TITL C-3201378-2706-1024 -40110.6682144994 125000 -965.566652166874 0 0 155 (C1) n - 1
REM
REM in /home/nfs/bkarasulu/CARBON/AIRSS/Generating-Clusters/LCBOP/Higher-Symm/SD-CG/FIRE-CG
REM
REM
REM
REM
REM
REM ./C.cell (b20cbc046b6831c77cfcea5457e17084)
REM AIRSS Version 0.9.1 bugfix July 2018 build 013d7b7c2542+ Fri, 06 Jul 2018 19:26:36 +0100
REM compiler GCC version 9.2.1 20190827 (Red Hat 9.2.1-1)
REM options -cpp -mtune=generic -march=x86-64 -g -O0 -fpre-include=/usr/include/finclude/math-vector-fortran.h
REM seed -1964378310 -139456971 -824174567 -1818616290 -1468630367 1873494455 -100049934 -944094831 1916060879 -1937251553 111653439 784711819 1013871892 989361398 1945210747 -1233820734 1219683797 1414932517 979681587 -1907193794 -1589945558 234504351 -1049865438 76210685 1592080041 -846504385 685495390 346988702 -1690406809 -1821228082 2064732881 -372583552 -1044905944
REM
CELL 1.54180   50.00000   50.00000   50.00000   90.00000   90.00000   90.00000
LATT -1
SFAC C  
C      1  0.4802880000000  0.5171840000000  0.3952520000000 1.0
C      1  0.5327900000000  0.4880500000000  0.3912450000000 1.0
C      1  0.5356680000000  0.5150880000000  0.6119220000000 1.0
C      1  0.4640380000000  0.4895270000000  0.6140730000000 1.0
C      1  0.5111550000000  0.4723260000000  0.4012190000000 1.0
C      1  0.4928470000000  0.5393040000000  0.3844090000000 1.0
C      1  0.5141010000000  0.5332190000000  0.6062190000000 1.0
C      1  0.4855400000000  0.4710640000000  0.6104310000000 1.0
C      1  0.5347590000000  0.6233030000000  0.4383020000000 1.0
C      1  0.4612650000000  0.4115250000000  0.4646060000000 1.0
C      1  0.4475710000000  0.5974750000000  0.5319690000000 1.0
C      1  0.5264390000000  0.3935950000000  0.5395830000000 1.0
C      1  0.6198850000000  0.5355650000000  0.4365750000000 1.0
C      1  0.3768470000000  0.4575130000000  0.4032310000000 1.0
C      1  0.6185130000000  0.4602920000000  0.5587200000000 1.0
C      1  0.3953600000000  0.5453090000000  0.5249210000000 1.0
C      1  0.4579330000000  0.5560020000000  0.4659340000000 1.0
C      1  0.5393230000000  0.4367650000000  0.4688680000000 1.0
C      1  0.5471590000000  0.5663260000000  0.5305340000000 1.0
C      1  0.4463680000000  0.4242000000000  0.5428910000000 1.0
C      1  0.5599670000000  0.4576130000000  0.4680920000000 1.0
C      1  0.4409620000000  0.5322250000000  0.4651570000000 1.0
C      1  0.5704070000000  0.5492020000000  0.5334490000000 1.0
C      1  0.4261520000000  0.4450690000000  0.5418730000000 1.0
C      1  0.5941930000000  0.4576750000000  0.5461930000000 1.0
C      1  0.4125010000000  0.5410650000000  0.5457460000000 1.0
C      1  0.3973280000000  0.4558900000000  0.4209900000000 1.0
C      1  0.5934420000000  0.5426070000000  0.4343730000000 1.0
C      1  0.4543010000000  0.5767060000000  0.5482620000000 1.0
C      1  0.5444280000000  0.4148030000000  0.5438000000000 1.0
C      1  0.4490410000000  0.4366060000000  0.4606600000000 1.0
C      1  0.5433510000000  0.5975690000000  0.4360930000000 1.0
C      1  0.4378660000000  0.4820350000000  0.6051020000000 1.0
C      1  0.5617920000000  0.5213170000000  0.6018080000000 1.0
C      1  0.5589970000000  0.4739490000000  0.3944930000000 1.0
C      1  0.4522440000000  0.5133980000000  0.3937730000000 1.0
C      1  0.4828850000000  0.4434800000000  0.6040100000000 1.0
C      1  0.5163430000000  0.5612440000000  0.5994170000000 1.0
C      1  0.4776020000000  0.5634900000000  0.3921680000000 1.0
C      1  0.5136970000000  0.4441150000000  0.4042060000000 1.0
C      1  0.4914400000000  0.5245790000000  0.4440810000000 1.0
C      1  0.5459220000000  0.5259650000000  0.4483830000000 1.0
C      1  0.5502640000000  0.4878150000000  0.5354970000000 1.0
C      1  0.4522150000000  0.5065070000000  0.5346830000000 1.0
C      1  0.4913270000000  0.4721990000000  0.4487650000000 1.0
C      1  0.5374880000000  0.5531280000000  0.4555680000000 1.0
C      1  0.4910480000000  0.5319810000000  0.5608800000000 1.0
C      1  0.5101720000000  0.4505410000000  0.5370900000000 1.0
C      1  0.4157850000000  0.4954330000000  0.5623180000000 1.0
C      1  0.5855920000000  0.5035880000000  0.5611990000000 1.0
C      1  0.5826720000000  0.4939770000000  0.4438450000000 1.0
C      1  0.4187230000000  0.4956660000000  0.4402560000000 1.0
C      1  0.4924120000000  0.4140500000000  0.5662680000000 1.0
C      1  0.5002300000000  0.5772300000000  0.5542540000000 1.0
C      1  0.4946860000000  0.5805230000000  0.4436880000000 1.0
C      1  0.5021150000000  0.4174650000000  0.4415460000000 1.0
C      1  0.3996890000000  0.4366460000000  0.4412420000000 1.0
C      1  0.5867180000000  0.5696850000000  0.4315390000000 1.0
C      1  0.5890330000000  0.4336870000000  0.5330940000000 1.0
C      1  0.4149670000000  0.5601300000000  0.5665220000000 1.0
C      1  0.4213700000000  0.4352590000000  0.4568890000000 1.0
C      1  0.5704000000000  0.5906300000000  0.4326090000000 1.0
C      1  0.4403310000000  0.5709050000000  0.5719660000000 1.0
C      1  0.5703970000000  0.4148610000000  0.5342860000000 1.0
C      1  0.4592770000000  0.5576760000000  0.4147410000000 1.0
C      1  0.5382770000000  0.4375770000000  0.4190740000000 1.0
C      1  0.5398580000000  0.5624690000000  0.5813820000000 1.0
C      1  0.4588600000000  0.4397410000000  0.5884840000000 1.0
C      1  0.5593810000000  0.4568470000000  0.4175750000000 1.0
C      1  0.4426070000000  0.5325720000000  0.4141540000000 1.0
C      1  0.5612990000000  0.5430040000000  0.5826920000000 1.0
C      1  0.4386600000000  0.4595310000000  0.5876850000000 1.0
C      1  0.4695140000000  0.5161570000000  0.6052350000000 1.0
C      1  0.5304320000000  0.4874100000000  0.6070400000000 1.0
C      1  0.5377500000000  0.5179070000000  0.3938000000000 1.0
C      1  0.4900810000000  0.5100100000000  0.4204870000000 1.0
C      1  0.5060160000000  0.4823130000000  0.5952150000000 1.0
C      1  0.4915030000000  0.5245150000000  0.5900470000000 1.0
C      1  0.5213300000000  0.5411390000000  0.3922170000000 1.0
C      1  0.4962250000000  0.4833330000000  0.4223450000000 1.0
C      1  0.5746500000000  0.4968480000000  0.5902980000000 1.0
C      1  0.4241210000000  0.5047770000000  0.5920750000000 1.0
C      1  0.4461570000000  0.4866420000000  0.3874410000000 1.0
C      1  0.5786940000000  0.4947410000000  0.3911380000000 1.0
C      1  0.4909440000000  0.5719890000000  0.5884520000000 1.0
C      1  0.5060170000000  0.4298660000000  0.5902750000000 1.0
C      1  0.4897510000000  0.4313360000000  0.4166340000000 1.0
C      1  0.4991790000000  0.5825560000000  0.3946650000000 1.0
C      1  0.5659180000000  0.5182140000000  0.4025760000000 1.0
C      1  0.4437030000000  0.4658690000000  0.4068380000000 1.0
C      1  0.4470360000000  0.5319330000000  0.5990780000000 1.0
C      1  0.5510000000000  0.4717190000000  0.5948790000000 1.0
C      1  0.5221050000000  0.5673540000000  0.4056940000000 1.0
C      1  0.4646470000000  0.4488170000000  0.4190930000000 1.0
C      1  0.5319370000000  0.4440690000000  0.5824600000000 1.0
C      1  0.4570640000000  0.5593470000000  0.5916130000000 1.0
C      1  0.3951090000000  0.4889490000000  0.5398400000000 1.0
C      1  0.6067190000000  0.5096630000000  0.5393970000000 1.0
C      1  0.5990490000000  0.4964840000000  0.4669890000000 1.0
C      1  0.4067410000000  0.4900950000000  0.4655660000000 1.0
C      1  0.4989880000000  0.3996930000000  0.5416640000000 1.0
C      1  0.5044700000000  0.5987610000000  0.5343480000000 1.0
C      1  0.4928850000000  0.5986440000000  0.4652250000000 1.0
C      1  0.4889780000000  0.4093540000000  0.4658190000000 1.0
C      1  0.5112990000000  0.5897320000000  0.5080930000000 1.0
C      1  0.4840760000000  0.4057630000000  0.5165710000000 1.0
C      1  0.4897390000000  0.5866300000000  0.4903090000000 1.0
C      1  0.4996770000000  0.4146080000000  0.4922380000000 1.0
C      1  0.5956770000000  0.5136990000000  0.5124530000000 1.0
C      1  0.4056030000000  0.4785950000000  0.5140460000000 1.0
C      1  0.5879370000000  0.4931870000000  0.4929750000000 1.0
C      1  0.4162710000000  0.4955950000000  0.4918950000000 1.0
C      1  0.5302000000000  0.4257070000000  0.4439770000000 1.0
C      1  0.4694410000000  0.5659780000000  0.4405970000000 1.0
C      1  0.4682640000000  0.4316560000000  0.5610980000000 1.0
C      1  0.5276510000000  0.5626760000000  0.5534090000000 1.0
C      1  0.4326180000000  0.5211540000000  0.4390940000000 1.0
C      1  0.5690550000000  0.4682200000000  0.4422500000000 1.0
C      1  0.4331090000000  0.4687580000000  0.5595780000000 1.0
C      1  0.5671700000000  0.5292570000000  0.5559730000000 1.0
C      1  0.5356120000000  0.5744700000000  0.5049820000000 1.0
C      1  0.4547250000000  0.4094160000000  0.5195600000000 1.0
C      1  0.4710280000000  0.5645970000000  0.4912480000000 1.0
C      1  0.5213950000000  0.4342200000000  0.4918070000000 1.0
C      1  0.5834150000000  0.5396400000000  0.5098790000000 1.0
C      1  0.4125560000000  0.4504190000000  0.5170980000000 1.0
C      1  0.5651570000000  0.4741180000000  0.4919240000000 1.0
C      1  0.4373480000000  0.5166850000000  0.4900870000000 1.0
C      1  0.4808450000000  0.4558460000000  0.5448290000000 1.0
C      1  0.5193350000000  0.5323260000000  0.5502060000000 1.0
C      1  0.5138940000000  0.4825990000000  0.4631810000000 1.0
C      1  0.5021860000000  0.5170730000000  0.4945340000000 1.0
C      1  0.4594210000000  0.4788360000000  0.5441590000000 1.0
C      1  0.5417680000000  0.5141890000000  0.5457030000000 1.0
C      1  0.4953770000000  0.5258030000000  0.4703950000000 1.0
C      1  0.5326390000000  0.5021780000000  0.4583510000000 1.0
C      1  0.4127720000000  0.4271130000000  0.5009650000000 1.0
C      1  0.5742180000000  0.5523850000000  0.4867190000000 1.0
C      1  0.5444130000000  0.4738970000000  0.5116170000000 1.0
C      1  0.4559300000000  0.5220660000000  0.5114090000000 1.0
C      1  0.4323200000000  0.4077960000000  0.5019500000000 1.0
C      1  0.5478510000000  0.5623980000000  0.4813440000000 1.0
C      1  0.4700150000000  0.5473940000000  0.5145910000000 1.0
C      1  0.5228560000000  0.4547810000000  0.5114420000000 1.0
C      1  0.4292040000000  0.5180120000000  0.5478660000000 1.0
C      1  0.5747000000000  0.4784670000000  0.5478580000000 1.0
C      1  0.5720190000000  0.5211950000000  0.4321330000000 1.0
C      1  0.4195470000000  0.4737010000000  0.4216380000000 1.0
C      1  0.5320270000000  0.4388820000000  0.5540600000000 1.0
C      1  0.4780810000000  0.5573570000000  0.5433180000000 1.0
C      1  0.5243650000000  0.5732560000000  0.4357320000000 1.0
C      1  0.4668340000000  0.4561130000000  0.4485890000000 1.0
C      1  0.5017200000000  0.5021510000000  0.5163880000000 1.0
C      1  0.5036420000000  0.4867920000000  0.5675670000000 1.0
C      1  0.5019040000000  0.4936200000000  0.5416570000000 1.0
END
