TITL C-3201372-1405-2334 88869.0114481668 125000 -628.602402010569 0 0 103 (C1) n - 1
REM
REM in /home/nfs/bkarasulu/CARBON/AIRSS/Generating-Clusters/LCBOP/Higher-Symm/SD-CG/FIRE-CG
REM
REM
REM
REM
REM
REM ./C.cell (b20cbc046b6831c77cfcea5457e17084)
REM AIRSS Version 0.9.1 bugfix July 2018 build 013d7b7c2542+ Fri, 06 Jul 2018 19:26:36 +0100
REM compiler GCC version 9.2.1 20190827 (Red Hat 9.2.1-1)
REM options -cpp -mtune=generic -march=x86-64 -g -O0 -fpre-include=/usr/include/finclude/math-vector-fortran.h
REM seed -924934934 -761364859 1450285938 -1641578860 -1150676603 1282640948 581867273 -1077613860 347042019 1406013988 1836357681 -1362553539 742786626 1619988427 -397791531 -1692323878 -43655145 -309155777 -1807293753 1345778076 944815445 -1353097068 929969724 -609976295 1560661066 -820478418 -316848805 1374888932 -570015623 -747148427 2102926365 -1340677260 601994170
REM
CELL 1.54180   50.00000   50.00000   50.00000   90.00000   90.00000   90.00000
LATT -1
SFAC C  
C      1  0.5282900000000  0.5058580000000  0.4375290000000 1.0
C      1  0.5805800000000  0.5076330000000  0.5096870000000 1.0
C      1  0.5084190000000  0.4980760000000  0.5628300000000 1.0
C      1  0.4167260000000  0.5155670000000  0.5444550000000 1.0
C      1  0.4465960000000  0.5117100000000  0.4409190000000 1.0
C      1  0.4010170000000  0.5283410000000  0.5265710000000 1.0
C      1  0.4563220000000  0.5319740000000  0.4221460000000 1.0
C      1  0.5526440000000  0.5210390000000  0.4399630000000 1.0
C      1  0.5896170000000  0.5215820000000  0.5311290000000 1.0
C      1  0.4884640000000  0.5148750000000  0.5777840000000 1.0
C      1  0.4875240000000  0.4798950000000  0.4930500000000 1.0
C      1  0.4640890000000  0.4891230000000  0.4501920000000 1.0
C      1  0.5139150000000  0.4834640000000  0.4513060000000 1.0
C      1  0.5314520000000  0.4627240000000  0.4980980000000 1.0
C      1  0.5067690000000  0.4789990000000  0.5393540000000 1.0
C      1  0.5549620000000  0.4215740000000  0.4480420000000 1.0
C      1  0.5698430000000  0.4406790000000  0.5293940000000 1.0
C      1  0.4912270000000  0.4314250000000  0.5799310000000 1.0
C      1  0.4426010000000  0.4551460000000  0.5155310000000 1.0
C      1  0.4652610000000  0.4315160000000  0.4353200000000 1.0
C      1  0.4856210000000  0.3945310000000  0.5096810000000 1.0
C      1  0.4936880000000  0.3843940000000  0.4837710000000 1.0
C      1  0.5208820000000  0.3743490000000  0.4863840000000 1.0
C      1  0.5276390000000  0.3775160000000  0.5146760000000 1.0
C      1  0.5032460000000  0.3825060000000  0.5296340000000 1.0
C      1  0.5438250000000  0.4375870000000  0.4919380000000 1.0
C      1  0.5321070000000  0.4701090000000  0.5269640000000 1.0
C      1  0.4867620000000  0.4698420000000  0.5204350000000 1.0
C      1  0.4624060000000  0.4812280000000  0.4786530000000 1.0
C      1  0.4876810000000  0.4761410000000  0.4386180000000 1.0
C      1  0.4918650000000  0.4036460000000  0.5750990000000 1.0
C      1  0.4700310000000  0.4468410000000  0.5203070000000 1.0
C      1  0.4717490000000  0.4047240000000  0.4408250000000 1.0
C      1  0.5538270000000  0.3935060000000  0.4516210000000 1.0
C      1  0.5528040000000  0.4217010000000  0.5147680000000 1.0
C      1  0.5415790000000  0.5710060000000  0.4543140000000 1.0
C      1  0.5632210000000  0.5635590000000  0.5283540000000 1.0
C      1  0.4941910000000  0.5673420000000  0.5666100000000 1.0
C      1  0.4302020000000  0.5651270000000  0.5118450000000 1.0
C      1  0.4671170000000  0.5787420000000  0.4416110000000 1.0
C      1  0.4591770000000  0.5986430000000  0.4974160000000 1.0
C      1  0.4990190000000  0.5974570000000  0.4764670000000 1.0
C      1  0.5420350000000  0.6065250000000  0.4971310000000 1.0
C      1  0.5399360000000  0.6053700000000  0.5244050000000 1.0
C      1  0.4906950000000  0.5953720000000  0.5284830000000 1.0
C      1  0.4759090000000  0.5820140000000  0.5483430000000 1.0
C      1  0.4388040000000  0.5813550000000  0.4887970000000 1.0
C      1  0.4942040000000  0.5888780000000  0.4501550000000 1.0
C      1  0.5501390000000  0.5845720000000  0.4808950000000 1.0
C      1  0.5433950000000  0.5820710000000  0.5409560000000 1.0
C      1  0.5551190000000  0.5276480000000  0.5630890000000 1.0
C      1  0.4512160000000  0.5453680000000  0.5623240000000 1.0
C      1  0.4088470000000  0.5329930000000  0.4783420000000 1.0
C      1  0.5025660000000  0.5520430000000  0.4229370000000 1.0
C      1  0.5709330000000  0.5429880000000  0.4794580000000 1.0
C      1  0.5512130000000  0.4568950000000  0.5442490000000 1.0
C      1  0.4662420000000  0.4447540000000  0.5775150000000 1.0
C      1  0.4402540000000  0.4647610000000  0.4884290000000 1.0
C      1  0.4868980000000  0.4492460000000  0.4286590000000 1.0
C      1  0.5634270000000  0.4366590000000  0.4706270000000 1.0
C      1  0.5907210000000  0.4479670000000  0.5106910000000 1.0
C      1  0.5167020000000  0.4438640000000  0.5810480000000 1.0
C      1  0.4305670000000  0.4562210000000  0.5412630000000 1.0
C      1  0.4401500000000  0.4401490000000  0.4450460000000 1.0
C      1  0.5372040000000  0.4323950000000  0.4289510000000 1.0
C      1  0.5271230000000  0.5445140000000  0.5168210000000 1.0
C      1  0.4895330000000  0.5299400000000  0.5323730000000 1.0
C      1  0.4566830000000  0.5330670000000  0.5044990000000 1.0
C      1  0.4760790000000  0.5435980000000  0.4673960000000 1.0
C      1  0.5118940000000  0.5243820000000  0.4818440000000 1.0
C      1  0.4726720000000  0.5561340000000  0.4227130000000 1.0
C      1  0.5583100000000  0.5460500000000  0.4533360000000 1.0
C      1  0.5725810000000  0.5403040000000  0.5440480000000 1.0
C      1  0.4784470000000  0.5429010000000  0.5752200000000 1.0
C      1  0.4098370000000  0.5448020000000  0.5052710000000 1.0
C      1  0.4759000000000  0.4200730000000  0.5151780000000 1.0
C      1  0.4805680000000  0.3882260000000  0.4597030000000 1.0
C      1  0.5397900000000  0.3756590000000  0.4658750000000 1.0
C      1  0.5490100000000  0.3947740000000  0.5201880000000 1.0
C      1  0.4983350000000  0.3853560000000  0.5567720000000 1.0
C      1  0.5669790000000  0.5659790000000  0.4974600000000 1.0
C      1  0.5226010000000  0.5745710000000  0.5610450000000 1.0
C      1  0.4495160000000  0.5684760000000  0.5427830000000 1.0
C      1  0.4438710000000  0.5795350000000  0.4596540000000 1.0
C      1  0.5164490000000  0.5735610000000  0.4386150000000 1.0
C      1  0.5403540000000  0.4498610000000  0.5694960000000 1.0
C      1  0.4434240000000  0.4519180000000  0.5649370000000 1.0
C      1  0.4286030000000  0.4497030000000  0.4675070000000 1.0
C      1  0.5121990000000  0.4385680000000  0.4215150000000 1.0
C      1  0.5882310000000  0.4448400000000  0.4831650000000 1.0
C      1  0.4634900000000  0.5207690000000  0.5278960000000 1.0
C      1  0.4534060000000  0.5342430000000  0.4783780000000 1.0
C      1  0.4969040000000  0.5281160000000  0.4599730000000 1.0
C      1  0.5342090000000  0.5256760000000  0.4973150000000 1.0
C      1  0.5158020000000  0.5337410000000  0.5387880000000 1.0
C      1  0.4317420000000  0.5241180000000  0.4632320000000 1.0
C      1  0.5080920000000  0.5263400000000  0.4339370000000 1.0
C      1  0.5616840000000  0.5192580000000  0.4926090000000 1.0
C      1  0.5292640000000  0.5180850000000  0.5578830000000 1.0
C      1  0.4438050000000  0.5211130000000  0.5487520000000 1.0
C      1  0.4868000000000  0.5870320000000  0.5009270000000 1.0
C      1  0.5133820000000  0.4760520000000  0.4799890000000 1.0
C      1  0.4915980000000  0.5518360000000  0.5013680000000 1.0
END
