TITL C-3201375-1262-978 0.0112920040568124 125000 -406.159875833356 0 0 67 (C1) n - 1
REM
REM in /home/nfs/bkarasulu/CARBON/AIRSS/Generating-Clusters/LCBOP/Higher-Symm/SD-CG/FIRE-CG
REM
REM
REM
REM
REM
REM ./C.cell (b20cbc046b6831c77cfcea5457e17084)
REM AIRSS Version 0.9.1 bugfix July 2018 build 013d7b7c2542+ Fri, 06 Jul 2018 19:26:36 +0100
REM compiler GCC version 9.2.1 20190827 (Red Hat 9.2.1-1)
REM options -cpp -mtune=generic -march=x86-64 -g -O0 -fpre-include=/usr/include/finclude/math-vector-fortran.h
REM seed -1005624362 -1007228433 1784964529 -989325828 -58813806 -580402645 -252002447 -1625043783 1763072441 -381589250 -1717472269 -1119194639 -1746852928 1790371792 -1237066765 -1520207008 1383629402 -1575413310 722174003 1027887768 120180638 -1603619016 16885522 706310587 -1425329244 -1379533204 -1572086955 1914306534 -1520151081 -1189749042 799233730 -1916509083 762888510
REM
CELL 1.54180   50.00000   50.00000   50.00000   90.00000   90.00000   90.00000
LATT -1
SFAC C  
C      1  0.5281240000000  0.4788280000000  0.4512830000000 1.0
C      1  0.4702180000000  0.4443000000000  0.5253770000000 1.0
C      1  0.4589410000000  0.5280260000000  0.4630260000000 1.0
C      1  0.4876830000000  0.5277230000000  0.5537420000000 1.0
C      1  0.4712430000000  0.4593130000000  0.5501090000000 1.0
C      1  0.4847340000000  0.5293320000000  0.4506730000000 1.0
C      1  0.4573060000000  0.5417200000000  0.4877490000000 1.0
C      1  0.5258430000000  0.4799080000000  0.5179030000000 1.0
C      1  0.5090090000000  0.5446170000000  0.5427330000000 1.0
C      1  0.4170980000000  0.5194980000000  0.5277230000000 1.0
C      1  0.6599710000000  0.4841870000000  0.4617870000000 1.0
C      1  0.5465270000000  0.4999640000000  0.4557840000000 1.0
C      1  0.4825020000000  0.4656770000000  0.4561330000000 1.0
C      1  0.5202140000000  0.4641640000000  0.5417850000000 1.0
C      1  0.5339480000000  0.5251510000000  0.4586460000000 1.0
C      1  0.4584580000000  0.5288070000000  0.5579140000000 1.0
C      1  0.4948470000000  0.4759240000000  0.5505620000000 1.0
C      1  0.5080230000000  0.5307260000000  0.4687080000000 1.0
C      1  0.5237860000000  0.5313970000000  0.5205560000000 1.0
C      1  0.4745710000000  0.4601100000000  0.5019220000000 1.0
C      1  0.4582920000000  0.5694630000000  0.4913080000000 1.0
C      1  0.6857460000000  0.4805760000000  0.4631380000000 1.0
C      1  0.4440870000000  0.5266110000000  0.5327200000000 1.0
C      1  0.4615050000000  0.4649770000000  0.4756340000000 1.0
C      1  0.4727400000000  0.5880290000000  0.5065210000000 1.0
C      1  0.5920280000000  0.5008860000000  0.4355990000000 1.0
C      1  0.4624490000000  0.4613940000000  0.5985100000000 1.0
C      1  0.4967820000000  0.4075740000000  0.5043530000000 1.0
C      1  0.5243520000000  0.5903920000000  0.5295350000000 1.0
C      1  0.5259530000000  0.4362800000000  0.5425490000000 1.0
C      1  0.6146690000000  0.4833560000000  0.4820280000000 1.0
C      1  0.3964700000000  0.5200080000000  0.4825830000000 1.0
C      1  0.4395040000000  0.4829230000000  0.4750530000000 1.0
C      1  0.5095800000000  0.5212580000000  0.4075290000000 1.0
C      1  0.4870520000000  0.4726860000000  0.4286230000000 1.0
C      1  0.4477060000000  0.5123260000000  0.5786590000000 1.0
C      1  0.5049490000000  0.5726220000000  0.5407280000000 1.0
C      1  0.4380340000000  0.5083020000000  0.4599680000000 1.0
C      1  0.4531880000000  0.4638860000000  0.5714110000000 1.0
C      1  0.5391590000000  0.4244240000000  0.5197950000000 1.0
C      1  0.4933110000000  0.6047980000000  0.4959440000000 1.0
C      1  0.4839940000000  0.4190420000000  0.5273650000000 1.0
C      1  0.4063840000000  0.5057360000000  0.5053190000000 1.0
C      1  0.6325620000000  0.4880270000000  0.4603500000000 1.0
C      1  0.5741420000000  0.4962100000000  0.4572850000000 1.0
C      1  0.4857610000000  0.5205750000000  0.4233230000000 1.0
C      1  0.5164980000000  0.4767300000000  0.4243760000000 1.0
C      1  0.4586170000000  0.5089400000000  0.6048150000000 1.0
C      1  0.4367130000000  0.4872870000000  0.5688450000000 1.0
C      1  0.5233590000000  0.4975180000000  0.4058850000000 1.0
C      1  0.5181030000000  0.6054630000000  0.5075420000000 1.0
C      1  0.5877420000000  0.4871280000000  0.4806190000000 1.0
C      1  0.5029900000000  0.4200330000000  0.5494210000000 1.0
C      1  0.4782650000000  0.5807520000000  0.5337360000000 1.0
C      1  0.5239510000000  0.4107420000000  0.5013770000000 1.0
C      1  0.6189550000000  0.4971100000000  0.4370190000000 1.0
C      1  0.4204910000000  0.4821960000000  0.4966900000000 1.0
C      1  0.4113700000000  0.5192370000000  0.4595560000000 1.0
C      1  0.4722840000000  0.4952560000000  0.4190770000000 1.0
C      1  0.4653330000000  0.4839470000000  0.6138840000000 1.0
C      1  0.5004140000000  0.4791430000000  0.4993670000000 1.0
C      1  0.4608960000000  0.5239180000000  0.5097180000000 1.0
C      1  0.5076460000000  0.4729550000000  0.4704260000000 1.0
C      1  0.5061360000000  0.5275180000000  0.4972270000000 1.0
C      1  0.5381240000000  0.5060840000000  0.5222550000000 1.0
C      1  0.4904270000000  0.5021540000000  0.5403560000000 1.0
C      1  0.4864110000000  0.5067440000000  0.5093340000000 1.0
END
