TITL C-3201373-1215-547 20840.2439830836 125000 -213.063815558259 0 0 38 (C1) n - 1
REM
REM in /home/nfs/bkarasulu/CARBON/AIRSS/Generating-Clusters/LCBOP/Higher-Symm/SD-CG/FIRE-CG
REM
REM
REM
REM
REM
REM ./C.cell (b20cbc046b6831c77cfcea5457e17084)
REM AIRSS Version 0.9.1 bugfix July 2018 build 013d7b7c2542+ Fri, 06 Jul 2018 19:26:36 +0100
REM compiler GCC version 9.2.1 20190827 (Red Hat 9.2.1-1)
REM options -cpp -mtune=generic -march=x86-64 -g -O0 -fpre-include=/usr/include/finclude/math-vector-fortran.h
REM seed 483068124 -177342879 1791205500 232704095 -769831447 -1639442856 1849000437 -1309997352 1234218221 1136949388 466789032 -829583054 -1691605716 1525130095 -1386508846 336035066 -113378585 1394831156 1843710845 -2012720747 -125103938 -1991029338 -1923724955 -100187798 133451089 -1032381187 -1640382268 133371631 752333467 -2086597438 1350634221 -2101008558 -2106743855
REM
CELL 1.54180   50.00000   50.00000   50.00000   90.00000   90.00000   90.00000
LATT -1
SFAC C  
C      1  0.5124460000000  0.4551070000000  0.4777630000000 1.0
C      1  0.5582980000000  0.5052220000000  0.4737340000000 1.0
C      1  0.5201560000000  0.5497140000000  0.4769230000000 1.0
C      1  0.4579810000000  0.5226580000000  0.4768840000000 1.0
C      1  0.4592270000000  0.4674470000000  0.4750980000000 1.0
C      1  0.5096230000000  0.4574210000000  0.5276940000000 1.0
C      1  0.5610740000000  0.5047020000000  0.5210280000000 1.0
C      1  0.5218900000000  0.5481010000000  0.5259640000000 1.0
C      1  0.4518200000000  0.5217320000000  0.5255200000000 1.0
C      1  0.4597190000000  0.4662610000000  0.5226330000000 1.0
C      1  0.5359850000000  0.5717050000000  0.4875820000000 1.0
C      1  0.4310640000000  0.5302300000000  0.4841330000000 1.0
C      1  0.4386590000000  0.4500770000000  0.4848320000000 1.0
C      1  0.5079020000000  0.4287900000000  0.4898080000000 1.0
C      1  0.5850830000000  0.4991990000000  0.4819750000000 1.0
C      1  0.5369320000000  0.5708290000000  0.5156490000000 1.0
C      1  0.4275030000000  0.5299160000000  0.5117860000000 1.0
C      1  0.4389820000000  0.4493300000000  0.5125180000000 1.0
C      1  0.5063620000000  0.4301580000000  0.5179580000000 1.0
C      1  0.5867220000000  0.4989520000000  0.5095570000000 1.0
C      1  0.4690800000000  0.4800410000000  0.4526150000000 1.0
C      1  0.5044890000000  0.4709770000000  0.4564410000000 1.0
C      1  0.5468240000000  0.5184510000000  0.4518740000000 1.0
C      1  0.5209500000000  0.5286370000000  0.4573300000000 1.0
C      1  0.4729650000000  0.5084380000000  0.4572800000000 1.0
C      1  0.4689280000000  0.4794520000000  0.5457860000000 1.0
C      1  0.4980510000000  0.4788610000000  0.5444600000000 1.0
C      1  0.5520330000000  0.5163600000000  0.5448870000000 1.0
C      1  0.5251490000000  0.5254050000000  0.5433550000000 1.0
C      1  0.4563880000000  0.5052190000000  0.5481330000000 1.0
C      1  0.4708000000000  0.5203010000000  0.5034490000000 1.0
C      1  0.5415370000000  0.5057270000000  0.4983960000000 1.0
C      1  0.5162120000000  0.4707870000000  0.5018830000000 1.0
C      1  0.5102970000000  0.5380800000000  0.5015210000000 1.0
C      1  0.4734390000000  0.4773020000000  0.4990170000000 1.0
C      1  0.5078460000000  0.5041440000000  0.5365870000000 1.0
C      1  0.5023460000000  0.5065450000000  0.4649500000000 1.0
C      1  0.5029850000000  0.5027520000000  0.5001920000000 1.0
END
