TITL C-3201378-2706-664 0.00662240378510243 125000 -913.024101536863 0 0 144 (C1) n - 1
REM
REM in /home/nfs/bkarasulu/CARBON/AIRSS/Generating-Clusters/LCBOP/Higher-Symm/SD-CG/FIRE-CG
REM
REM
REM
REM
REM
REM ./C.cell (b20cbc046b6831c77cfcea5457e17084)
REM AIRSS Version 0.9.1 bugfix July 2018 build 013d7b7c2542+ Fri, 06 Jul 2018 19:26:36 +0100
REM compiler GCC version 9.2.1 20190827 (Red Hat 9.2.1-1)
REM options -cpp -mtune=generic -march=x86-64 -g -O0 -fpre-include=/usr/include/finclude/math-vector-fortran.h
REM seed -1211234978 958888583 -1170513912 1780133303 1213567630 -274681377 -788525552 -1948727795 231427628 -16614882 -2146216862 -531783361 745311778 322243611 -2043261832 1946160161 1466172892 963122096 1935371942 -191512352 738237353 1867341565 -1137981826 -514788329 517487153 1230002853 -1184788567 -1167809664 1537314724 342723798 -1747727356 1486891819 111355624
REM
CELL 1.54180   50.00000   50.00000   50.00000   90.00000   90.00000   90.00000
LATT -1
SFAC C  
C      1  0.5162620000000  0.5662300000000  0.5475800000000 1.0
C      1  0.5538090000000  0.5805390000000  0.5159030000000 1.0
C      1  0.5325240000000  0.5765310000000  0.4641910000000 1.0
C      1  0.4810590000000  0.5791680000000  0.4463830000000 1.0
C      1  0.4455900000000  0.5785110000000  0.4849020000000 1.0
C      1  0.4742830000000  0.5782610000000  0.5255090000000 1.0
C      1  0.4896350000000  0.5767950000000  0.5488790000000 1.0
C      1  0.4544010000000  0.5673310000000  0.5095060000000 1.0
C      1  0.4613080000000  0.5682010000000  0.4637230000000 1.0
C      1  0.5071230000000  0.5682710000000  0.4522120000000 1.0
C      1  0.5422290000000  0.5664550000000  0.4911050000000 1.0
C      1  0.5408720000000  0.5804220000000  0.5421250000000 1.0
C      1  0.4471240000000  0.3985730000000  0.4865060000000 1.0
C      1  0.4646980000000  0.3964050000000  0.5325820000000 1.0
C      1  0.5152230000000  0.4044330000000  0.5554990000000 1.0
C      1  0.5563190000000  0.4055790000000  0.5162800000000 1.0
C      1  0.5316220000000  0.3975440000000  0.4659710000000 1.0
C      1  0.4833170000000  0.3991570000000  0.4506610000000 1.0
C      1  0.5464500000000  0.3979920000000  0.4894430000000 1.0
C      1  0.5377340000000  0.3981970000000  0.5385510000000 1.0
C      1  0.4889090000000  0.3958370000000  0.5455730000000 1.0
C      1  0.4425030000000  0.4058910000000  0.5147390000000 1.0
C      1  0.4558630000000  0.4056940000000  0.4587440000000 1.0
C      1  0.5124460000000  0.4052620000000  0.4447290000000 1.0
C      1  0.5877840000000  0.5573520000000  0.4681620000000 1.0
C      1  0.5130290000000  0.5595380000000  0.3999450000000 1.0
C      1  0.4217130000000  0.5569400000000  0.4354620000000 1.0
C      1  0.4081960000000  0.5604180000000  0.5335570000000 1.0
C      1  0.4882910000000  0.5580810000000  0.5938800000000 1.0
C      1  0.5772210000000  0.5569430000000  0.5642900000000 1.0
C      1  0.4093070000000  0.5566940000000  0.4631640000000 1.0
C      1  0.4828710000000  0.5580330000000  0.4029050000000 1.0
C      1  0.5720590000000  0.5576220000000  0.4431270000000 1.0
C      1  0.5934060000000  0.5589360000000  0.5384970000000 1.0
C      1  0.5180950000000  0.5597190000000  0.6002090000000 1.0
C      1  0.4268290000000  0.5578160000000  0.5579150000000 1.0
C      1  0.5669520000000  0.5287290000000  0.5681170000000 1.0
C      1  0.5800380000000  0.5324170000000  0.4808430000000 1.0
C      1  0.5193920000000  0.5329900000000  0.4111150000000 1.0
C      1  0.4360270000000  0.5308560000000  0.4362440000000 1.0
C      1  0.4128380000000  0.5344900000000  0.5193240000000 1.0
C      1  0.4811150000000  0.5304790000000  0.5858850000000 1.0
C      1  0.4384700000000  0.5307160000000  0.5584000000000 1.0
C      1  0.4140950000000  0.5292340000000  0.4740950000000 1.0
C      1  0.4754840000000  0.5298890000000  0.4120000000000 1.0
C      1  0.5602720000000  0.5314310000000  0.4379190000000 1.0
C      1  0.5896020000000  0.5316550000000  0.5279680000000 1.0
C      1  0.5282590000000  0.5335520000000  0.5899020000000 1.0
C      1  0.5708470000000  0.4833950000000  0.4382790000000 1.0
C      1  0.4801870000000  0.4803500000000  0.4053850000000 1.0
C      1  0.4082500000000  0.4804110000000  0.4688010000000 1.0
C      1  0.4283190000000  0.4834490000000  0.5625830000000 1.0
C      1  0.5174660000000  0.4810120000000  0.5943290000000 1.0
C      1  0.5898260000000  0.4801280000000  0.5334130000000 1.0
C      1  0.4266240000000  0.4792640000000  0.4383800000000 1.0
C      1  0.5156090000000  0.4801700000000  0.4074930000000 1.0
C      1  0.5886650000000  0.4842560000000  0.4700750000000 1.0
C      1  0.5731920000000  0.4798020000000  0.5651310000000 1.0
C      1  0.4817990000000  0.4827810000000  0.5947450000000 1.0
C      1  0.4116800000000  0.4819830000000  0.5313730000000 1.0
C      1  0.4949250000000  0.5253690000000  0.5609480000000 1.0
C      1  0.5446540000000  0.5248500000000  0.5461270000000 1.0
C      1  0.5530010000000  0.5364570000000  0.4955210000000 1.0
C      1  0.5113550000000  0.5398520000000  0.4408860000000 1.0
C      1  0.4585410000000  0.5383190000000  0.4579890000000 1.0
C      1  0.4430070000000  0.5393800000000  0.5111060000000 1.0
C      1  0.5212930000000  0.5382400000000  0.5592970000000 1.0
C      1  0.4540470000000  0.5263120000000  0.5347030000000 1.0
C      1  0.4444860000000  0.5267630000000  0.4832990000000 1.0
C      1  0.4837610000000  0.5275400000000  0.4427510000000 1.0
C      1  0.5353940000000  0.5286900000000  0.4525570000000 1.0
C      1  0.5607950000000  0.5336140000000  0.5234190000000 1.0
C      1  0.4163820000000  0.5769510000000  0.4834480000000 1.0
C      1  0.4455940000000  0.5759040000000  0.5707790000000 1.0
C      1  0.5390530000000  0.5784880000000  0.5916250000000 1.0
C      1  0.5837480000000  0.5775760000000  0.5162830000000 1.0
C      1  0.5501510000000  0.5769860000000  0.4394630000000 1.0
C      1  0.4684570000000  0.5772750000000  0.4194980000000 1.0
C      1  0.5947330000000  0.5763000000000  0.4890040000000 1.0
C      1  0.5561780000000  0.5772320000000  0.5676400000000 1.0
C      1  0.4747270000000  0.5753340000000  0.5739490000000 1.0
C      1  0.4041190000000  0.5786700000000  0.5105420000000 1.0
C      1  0.4387760000000  0.5759250000000  0.4211080000000 1.0
C      1  0.5340840000000  0.5772280000000  0.4132500000000 1.0
C      1  0.4669500000000  0.4553060000000  0.4138860000000 1.0
C      1  0.4096520000000  0.4564570000000  0.4853890000000 1.0
C      1  0.4416900000000  0.4588430000000  0.5705870000000 1.0
C      1  0.5316250000000  0.4542870000000  0.5855200000000 1.0
C      1  0.5903310000000  0.4546370000000  0.5156430000000 1.0
C      1  0.5591880000000  0.4577470000000  0.4294920000000 1.0
C      1  0.5319100000000  0.4538470000000  0.4163210000000 1.0
C      1  0.5921250000000  0.4588430000000  0.4855370000000 1.0
C      1  0.5567380000000  0.4562030000000  0.5694170000000 1.0
C      1  0.4680380000000  0.4585900000000  0.5860080000000 1.0
C      1  0.4100430000000  0.4548460000000  0.5153410000000 1.0
C      1  0.4408610000000  0.4527150000000  0.4293150000000 1.0
C      1  0.4047630000000  0.5062470000000  0.5142890000000 1.0
C      1  0.4652870000000  0.5071230000000  0.5914370000000 1.0
C      1  0.5644910000000  0.5026700000000  0.5813630000000 1.0
C      1  0.5924520000000  0.5071540000000  0.4873960000000 1.0
C      1  0.5322960000000  0.5058930000000  0.4091980000000 1.0
C      1  0.4379490000000  0.5038450000000  0.4250450000000 1.0
C      1  0.5964200000000  0.5051030000000  0.5175450000000 1.0
C      1  0.5364300000000  0.5048840000000  0.5940860000000 1.0
C      1  0.4397670000000  0.5074370000000  0.5752720000000 1.0
C      1  0.4027220000000  0.5042970000000  0.4840160000000 1.0
C      1  0.4629100000000  0.5036290000000  0.4077200000000 1.0
C      1  0.5599890000000  0.5061070000000  0.4233780000000 1.0
C      1  0.5128060000000  0.4608160000000  0.4592610000000 1.0
C      1  0.4682860000000  0.4599810000000  0.4660030000000 1.0
C      1  0.4609120000000  0.4591770000000  0.5107830000000 1.0
C      1  0.4881740000000  0.4446480000000  0.5473730000000 1.0
C      1  0.5334560000000  0.4483180000000  0.5291920000000 1.0
C      1  0.5499390000000  0.4458080000000  0.4854390000000 1.0
C      1  0.4888120000000  0.4489440000000  0.4526430000000 1.0
C      1  0.5323150000000  0.4436210000000  0.4655290000000 1.0
C      1  0.5426520000000  0.4619080000000  0.5064290000000 1.0
C      1  0.5101360000000  0.4586130000000  0.5391930000000 1.0
C      1  0.4647960000000  0.4452920000000  0.5339510000000 1.0
C      1  0.4547060000000  0.4476470000000  0.4865310000000 1.0
C      1  0.4875480000000  0.5002680000000  0.4528150000000 1.0
C      1  0.4547870000000  0.4996290000000  0.4865100000000 1.0
C      1  0.4685300000000  0.5032820000000  0.5310440000000 1.0
C      1  0.5118510000000  0.4858450000000  0.5439600000000 1.0
C      1  0.5431640000000  0.4896720000000  0.5104960000000 1.0
C      1  0.5311330000000  0.5059930000000  0.4672160000000 1.0
C      1  0.5122310000000  0.4884990000000  0.4588090000000 1.0
C      1  0.5406200000000  0.5095830000000  0.4919150000000 1.0
C      1  0.5357490000000  0.4980240000000  0.5364430000000 1.0
C      1  0.4907300000000  0.5025190000000  0.5463360000000 1.0
C      1  0.4609220000000  0.4870530000000  0.5106140000000 1.0
C      1  0.4662380000000  0.4875310000000  0.4646640000000 1.0
C      1  0.4383810000000  0.4290610000000  0.4488180000000 1.0
C      1  0.4240370000000  0.4293060000000  0.5267800000000 1.0
C      1  0.4870350000000  0.4396090000000  0.5755490000000 1.0
C      1  0.5555100000000  0.4408360000000  0.5458860000000 1.0
C      1  0.5753430000000  0.4399080000000  0.4725750000000 1.0
C      1  0.5147320000000  0.4280940000000  0.4231270000000 1.0
C      1  0.5674970000000  0.4370950000000  0.4461620000000 1.0
C      1  0.5741240000000  0.4295070000000  0.5256830000000 1.0
C      1  0.5139570000000  0.4304690000000  0.5800250000000 1.0
C      1  0.4409880000000  0.4398070000000  0.5488610000000 1.0
C      1  0.4295130000000  0.4394750000000  0.4750450000000 1.0
C      1  0.4873910000000  0.4393860000000  0.4257370000000 1.0
END
