TITL C-3201377-4638-277 7.22526096997796e-06 125000 -701.70864967204 0 0 112 (C1) n - 1
REM
REM in /home/nfs/bkarasulu/CARBON/AIRSS/Generating-Clusters/LCBOP/Higher-Symm/SD-CG/FIRE-CG
REM
REM
REM
REM
REM
REM ./C.cell (b20cbc046b6831c77cfcea5457e17084)
REM AIRSS Version 0.9.1 bugfix July 2018 build 013d7b7c2542+ Fri, 06 Jul 2018 19:26:36 +0100
REM compiler GCC version 9.2.1 20190827 (Red Hat 9.2.1-1)
REM options -cpp -mtune=generic -march=x86-64 -g -O0 -fpre-include=/usr/include/finclude/math-vector-fortran.h
REM seed 2034035492 -881275322 -750301577 1501866313 724109737 1759633743 562285295 -1079342608 -267463871 947238899 486164219 654355404 785868620 1275549737 2074037851 1764317522 1288779355 -1855706985 306173328 -728715102 -990370028 -582254856 1404220364 -1029878721 -174539627 -1495278294 1249063792 1860833131 -273011427 -1738056456 1167295553 1469822221 -763665967
REM
CELL 1.54180   50.00000   50.00000   50.00000   90.00000   90.00000   90.00000
LATT -1
SFAC C  
C      1  0.4655010000000  0.5649420000000  0.5679950000000 1.0
C      1  0.5668890000000  0.4617770000000  0.5582910000000 1.0
C      1  0.5648750000000  0.5714880000000  0.4728430000000 1.0
C      1  0.5479180000000  0.4129820000000  0.5620320000000 1.0
C      1  0.5417870000000  0.5752130000000  0.4312580000000 1.0
C      1  0.4741710000000  0.4359710000000  0.4302150000000 1.0
C      1  0.4269420000000  0.5318440000000  0.5639140000000 1.0
C      1  0.4322860000000  0.4584280000000  0.4255990000000 1.0
C      1  0.5692920000000  0.5318510000000  0.4420410000000 1.0
C      1  0.4414020000000  0.4314350000000  0.4692390000000 1.0
C      1  0.4225050000000  0.5719900000000  0.5386580000000 1.0
C      1  0.5642750000000  0.4277080000000  0.5200140000000 1.0
C      1  0.5460010000000  0.5189130000000  0.5865940000000 1.0
C      1  0.5721000000000  0.5412820000000  0.5273020000000 1.0
C      1  0.5257090000000  0.5816390000000  0.5447090000000 1.0
C      1  0.4679110000000  0.4809050000000  0.5756610000000 1.0
C      1  0.4703140000000  0.5205650000000  0.4196820000000 1.0
C      1  0.5439730000000  0.4732200000000  0.4223080000000 1.0
C      1  0.4230450000000  0.4568750000000  0.5290830000000 1.0
C      1  0.4192520000000  0.5301340000000  0.4791710000000 1.0
C      1  0.5805920000000  0.4635540000000  0.4756270000000 1.0
C      1  0.4850250000000  0.4095600000000  0.5483360000000 1.0
C      1  0.4796200000000  0.5823920000000  0.4694100000000 1.0
C      1  0.5270880000000  0.4280330000000  0.4716770000000 1.0
C      1  0.5020670000000  0.5967250000000  0.5389360000000 1.0
C      1  0.5376320000000  0.4937530000000  0.5976690000000 1.0
C      1  0.5902920000000  0.5397710000000  0.5056240000000 1.0
C      1  0.5069290000000  0.3961090000000  0.5365740000000 1.0
C      1  0.5038670000000  0.5974950000000  0.4605870000000 1.0
C      1  0.5055070000000  0.4095940000000  0.4625740000000 1.0
C      1  0.4591640000000  0.5031800000000  0.5927800000000 1.0
C      1  0.4619720000000  0.4965580000000  0.4041660000000 1.0
C      1  0.5402060000000  0.4974910000000  0.4076770000000 1.0
C      1  0.4083400000000  0.4610020000000  0.5047930000000 1.0
C      1  0.4024320000000  0.5393220000000  0.5020900000000 1.0
C      1  0.5977590000000  0.4608570000000  0.4983350000000 1.0
C      1  0.5382300000000  0.4727530000000  0.5056110000000 1.0
C      1  0.5033960000000  0.5432840000000  0.4626030000000 1.0
C      1  0.4688390000000  0.5097050000000  0.5385860000000 1.0
C      1  0.4570750000000  0.5402970000000  0.5038300000000 1.0
C      1  0.4582140000000  0.4721820000000  0.5013320000000 1.0
C      1  0.5364050000000  0.5314290000000  0.4954710000000 1.0
C      1  0.4942630000000  0.4628250000000  0.4714600000000 1.0
C      1  0.4977370000000  0.5465860000000  0.5294820000000 1.0
C      1  0.5051370000000  0.4546510000000  0.5371240000000 1.0
C      1  0.5289330000000  0.4975510000000  0.5459070000000 1.0
C      1  0.5281920000000  0.5019600000000  0.4573320000000 1.0
C      1  0.4631860000000  0.4970720000000  0.4592490000000 1.0
C      1  0.4078280000000  0.5633430000000  0.5171220000000 1.0
C      1  0.5298140000000  0.3947430000000  0.5533630000000 1.0
C      1  0.5583720000000  0.5183640000000  0.4179960000000 1.0
C      1  0.5897050000000  0.4355920000000  0.5098730000000 1.0
C      1  0.5872730000000  0.5624100000000  0.4880790000000 1.0
C      1  0.4179780000000  0.4430440000000  0.4832300000000 1.0
C      1  0.4796540000000  0.5881730000000  0.5562870000000 1.0
C      1  0.4915860000000  0.4150380000000  0.4383580000000 1.0
C      1  0.5200230000000  0.5905650000000  0.4377770000000 1.0
C      1  0.4390830000000  0.4802760000000  0.4104720000000 1.0
C      1  0.4350390000000  0.5166940000000  0.5864640000000 1.0
C      1  0.5537660000000  0.4720250000000  0.5838890000000 1.0
C      1  0.4889160000000  0.4065630000000  0.4871190000000 1.0
C      1  0.4882500000000  0.4811180000000  0.4027520000000 1.0
C      1  0.4032700000000  0.4897550000000  0.5010600000000 1.0
C      1  0.5195370000000  0.5997510000000  0.4867970000000 1.0
C      1  0.5099030000000  0.4037800000000  0.5090930000000 1.0
C      1  0.4998400000000  0.6001210000000  0.5098290000000 1.0
C      1  0.5112980000000  0.5007380000000  0.4029680000000 1.0
C      1  0.5075470000000  0.4967760000000  0.5975980000000 1.0
C      1  0.4851800000000  0.5190550000000  0.5961560000000 1.0
C      1  0.5910750000000  0.5126660000000  0.4936340000000 1.0
C      1  0.5932260000000  0.4867200000000  0.5127990000000 1.0
C      1  0.4010760000000  0.5139160000000  0.5190770000000 1.0
C      1  0.4604050000000  0.5215090000000  0.4461170000000 1.0
C      1  0.4488050000000  0.4684340000000  0.5284980000000 1.0
C      1  0.5201960000000  0.4545450000000  0.4633100000000 1.0
C      1  0.5323690000000  0.4746100000000  0.4478470000000 1.0
C      1  0.5373280000000  0.5202570000000  0.5609750000000 1.0
C      1  0.4610300000000  0.4840810000000  0.5483230000000 1.0
C      1  0.5446190000000  0.5407830000000  0.5212260000000 1.0
C      1  0.5553890000000  0.4687180000000  0.4836810000000 1.0
C      1  0.4453930000000  0.5413050000000  0.4784990000000 1.0
C      1  0.4783680000000  0.5555480000000  0.4601120000000 1.0
C      1  0.4855730000000  0.4363880000000  0.5461910000000 1.0
C      1  0.5246060000000  0.5555820000000  0.5340830000000 1.0
C      1  0.4227230000000  0.5191880000000  0.5378620000000 1.0
C      1  0.5326130000000  0.4249460000000  0.5032420000000 1.0
C      1  0.4996810000000  0.5215110000000  0.4197320000000 1.0
C      1  0.5738650000000  0.4820800000000  0.5358530000000 1.0
C      1  0.5735890000000  0.5158560000000  0.4683090000000 1.0
C      1  0.4205670000000  0.5007830000000  0.4804440000000 1.0
C      1  0.4790220000000  0.5829960000000  0.4987400000000 1.0
C      1  0.4664770000000  0.4260440000000  0.4859630000000 1.0
C      1  0.5380680000000  0.5772660000000  0.4838400000000 1.0
C      1  0.4847580000000  0.4627980000000  0.4251370000000 1.0
C      1  0.4823340000000  0.5401830000000  0.5749440000000 1.0
C      1  0.4963100000000  0.4776400000000  0.5785040000000 1.0
C      1  0.4872570000000  0.5285760000000  0.5485190000000 1.0
C      1  0.5471710000000  0.4891230000000  0.5264510000000 1.0
C      1  0.5228820000000  0.5520980000000  0.4815660000000 1.0
C      1  0.5106680000000  0.4767170000000  0.5540260000000 1.0
C      1  0.5111720000000  0.5221950000000  0.4457690000000 1.0
C      1  0.4814780000000  0.4771330000000  0.4506520000000 1.0
C      1  0.4482900000000  0.5218510000000  0.5236910000000 1.0
C      1  0.4468580000000  0.4897620000000  0.4809900000000 1.0
C      1  0.5458430000000  0.5121450000000  0.4772230000000 1.0
C      1  0.4763580000000  0.4531270000000  0.4909090000000 1.0
C      1  0.4781010000000  0.5573720000000  0.5112290000000 1.0
C      1  0.5214390000000  0.4512900000000  0.5141070000000 1.0
C      1  0.5611400000000  0.4340020000000  0.5483710000000 1.0
C      1  0.5620290000000  0.5605870000000  0.4457250000000 1.0
C      1  0.4371560000000  0.5592580000000  0.5601090000000 1.0
C      1  0.4465880000000  0.4382480000000  0.4406060000000 1.0
END
