TITL C-3201373-1215-315 -49.2554843884431 125000 -743.304130224763 0 0 123 (C1) n - 1
REM
REM in /home/nfs/bkarasulu/CARBON/AIRSS/Generating-Clusters/LCBOP/Higher-Symm/SD-CG/FIRE-CG
REM
REM
REM
REM
REM
REM ./C.cell (b20cbc046b6831c77cfcea5457e17084)
REM AIRSS Version 0.9.1 bugfix July 2018 build 013d7b7c2542+ Fri, 06 Jul 2018 19:26:36 +0100
REM compiler GCC version 9.2.1 20190827 (Red Hat 9.2.1-1)
REM options -cpp -mtune=generic -march=x86-64 -g -O0 -fpre-include=/usr/include/finclude/math-vector-fortran.h
REM seed -672108806 1805225091 1206230509 5891764 -1467656684 -1770934545 -1236503038 1846855173 832409642 -366880996 -21013492 -1534943214 -452134617 2137903931 1595492123 -1392830149 502655132 -550207229 -273701852 1051274107 -465112622 122977118 -1753817917 -620753006 -1578533854 793383221 -1204826756 475283904 -525491514 899439161 -2037153740 -2008621756 -386723503
REM
CELL 1.54180   50.00000   50.00000   50.00000   90.00000   90.00000   90.00000
LATT -1
SFAC C  
C      1  0.5496030000000  0.4833820000000  0.5294970000000 1.0
C      1  0.4577340000000  0.5231790000000  0.5320840000000 1.0
C      1  0.4365820000000  0.5192030000000  0.4290610000000 1.0
C      1  0.5639530000000  0.4796610000000  0.4315620000000 1.0
C      1  0.5584350000000  0.4476010000000  0.4684290000000 1.0
C      1  0.4320890000000  0.5530320000000  0.4667900000000 1.0
C      1  0.5557660000000  0.5617390000000  0.5092640000000 1.0
C      1  0.4445660000000  0.4337650000000  0.5068040000000 1.0
C      1  0.4519720000000  0.5424940000000  0.5115460000000 1.0
C      1  0.5604040000000  0.4877990000000  0.5026050000000 1.0
C      1  0.4899650000000  0.4560370000000  0.4746900000000 1.0
C      1  0.5100800000000  0.5466400000000  0.4707500000000 1.0
C      1  0.6221870000000  0.5706460000000  0.5635540000000 1.0
C      1  0.3758750000000  0.4433670000000  0.5542590000000 1.0
C      1  0.4977570000000  0.4682120000000  0.4138730000000 1.0
C      1  0.5032390000000  0.5340280000000  0.4150620000000 1.0
C      1  0.4256890000000  0.5436360000000  0.4404880000000 1.0
C      1  0.5702580000000  0.4534290000000  0.4430930000000 1.0
C      1  0.5227450000000  0.4685080000000  0.4005070000000 1.0
C      1  0.4787570000000  0.5346210000000  0.4003160000000 1.0
C      1  0.4927000000000  0.3923660000000  0.5192050000000 1.0
C      1  0.5188890000000  0.6106540000000  0.5248480000000 1.0
C      1  0.4503780000000  0.5396050000000  0.4837240000000 1.0
C      1  0.5506540000000  0.4708720000000  0.4820810000000 1.0
C      1  0.4033900000000  0.4990300000000  0.4916480000000 1.0
C      1  0.6048260000000  0.4831550000000  0.4889020000000 1.0
C      1  0.4842170000000  0.3936940000000  0.5463290000000 1.0
C      1  0.5245950000000  0.6046330000000  0.5520420000000 1.0
C      1  0.5051880000000  0.4740790000000  0.4600170000000 1.0
C      1  0.4904330000000  0.5273020000000  0.4604350000000 1.0
C      1  0.4558580000000  0.4444340000000  0.4355200000000 1.0
C      1  0.5480470000000  0.5551280000000  0.4378050000000 1.0
C      1  0.4957210000000  0.5579670000000  0.5162650000000 1.0
C      1  0.5164260000000  0.4498990000000  0.5197750000000 1.0
C      1  0.5629400000000  0.5278840000000  0.5763950000000 1.0
C      1  0.4406670000000  0.4716220000000  0.5741140000000 1.0
C      1  0.4996850000000  0.5660960000000  0.4883210000000 1.0
C      1  0.5063970000000  0.4420930000000  0.4930150000000 1.0
C      1  0.4287010000000  0.4945440000000  0.4426570000000 1.0
C      1  0.5720690000000  0.5034850000000  0.4474220000000 1.0
C      1  0.5509800000000  0.4226300000000  0.4807730000000 1.0
C      1  0.4185400000000  0.5750880000000  0.4779350000000 1.0
C      1  0.3743430000000  0.5859410000000  0.3950130000000 1.0
C      1  0.6193770000000  0.4008770000000  0.4072250000000 1.0
C      1  0.5258210000000  0.5518780000000  0.4188860000000 1.0
C      1  0.4769010000000  0.4485460000000  0.4161280000000 1.0
C      1  0.4549680000000  0.5235700000000  0.4078060000000 1.0
C      1  0.5465990000000  0.4782870000000  0.4091240000000 1.0
C      1  0.4212760000000  0.5498840000000  0.5550050000000 1.0
C      1  0.5794940000000  0.4480570000000  0.5552040000000 1.0
C      1  0.5386950000000  0.6066220000000  0.5041510000000 1.0
C      1  0.4735080000000  0.3951230000000  0.4982970000000 1.0
C      1  0.4078460000000  0.5584190000000  0.4247240000000 1.0
C      1  0.5872470000000  0.4356290000000  0.4300850000000 1.0
C      1  0.4914050000000  0.5936920000000  0.4891400000000 1.0
C      1  0.5234070000000  0.4179850000000  0.4887530000000 1.0
C      1  0.5335690000000  0.5290250000000  0.5739980000000 1.0
C      1  0.4692950000000  0.4674990000000  0.5743950000000 1.0
C      1  0.4095150000000  0.5881680000000  0.4993720000000 1.0
C      1  0.5708460000000  0.4097520000000  0.4963520000000 1.0
C      1  0.6011840000000  0.5561530000000  0.5583250000000 1.0
C      1  0.4004300000000  0.4517640000000  0.5520210000000 1.0
C      1  0.4805550000000  0.4148040000000  0.5629420000000 1.0
C      1  0.5235010000000  0.5812570000000  0.5658610000000 1.0
C      1  0.4081530000000  0.4993610000000  0.4632760000000 1.0
C      1  0.5938010000000  0.4966590000000  0.4670710000000 1.0
C      1  0.5032560000000  0.5332500000000  0.5254510000000 1.0
C      1  0.4785650000000  0.4721700000000  0.5276720000000 1.0
C      1  0.4477770000000  0.4397850000000  0.5368590000000 1.0
C      1  0.5542880000000  0.5568890000000  0.5383280000000 1.0
C      1  0.5213350000000  0.5172810000000  0.5124830000000 1.0
C      1  0.4583740000000  0.4839000000000  0.5139740000000 1.0
C      1  0.5374470000000  0.4766020000000  0.5787110000000 1.0
C      1  0.4658970000000  0.5246960000000  0.5791550000000 1.0
C      1  0.4102850000000  0.5752060000000  0.5485530000000 1.0
C      1  0.5852060000000  0.4225570000000  0.5440100000000 1.0
C      1  0.4333960000000  0.5096630000000  0.5395000000000 1.0
C      1  0.5734690000000  0.4917490000000  0.5446540000000 1.0
C      1  0.5500290000000  0.5838800000000  0.4906660000000 1.0
C      1  0.4568080000000  0.4152170000000  0.4869040000000 1.0
C      1  0.4113160000000  0.5275420000000  0.5378930000000 1.0
C      1  0.5919340000000  0.4701380000000  0.5408490000000 1.0
C      1  0.3980340000000  0.5203550000000  0.5120490000000 1.0
C      1  0.6052910000000  0.4720570000000  0.5145320000000 1.0
C      1  0.4616940000000  0.4937030000000  0.4874790000000 1.0
C      1  0.5254110000000  0.5077460000000  0.4868610000000 1.0
C      1  0.5350470000000  0.4306090000000  0.5599530000000 1.0
C      1  0.4672220000000  0.5700610000000  0.5545740000000 1.0
C      1  0.5226260000000  0.4753840000000  0.5312470000000 1.0
C      1  0.4851130000000  0.5157570000000  0.5373810000000 1.0
C      1  0.5270100000000  0.4836830000000  0.4739670000000 1.0
C      1  0.4675660000000  0.5187590000000  0.4751690000000 1.0
C      1  0.4558760000000  0.4229850000000  0.4574480000000 1.0
C      1  0.5504100000000  0.5767600000000  0.4604220000000 1.0
C      1  0.4920850000000  0.6029800000000  0.5171050000000 1.0
C      1  0.5184840000000  0.4042250000000  0.5149960000000 1.0
C      1  0.5319210000000  0.5551920000000  0.5584760000000 1.0
C      1  0.4699200000000  0.4406540000000  0.5584200000000 1.0
C      1  0.4277470000000  0.4616710000000  0.5483520000000 1.0
C      1  0.5774110000000  0.5404810000000  0.5518370000000 1.0
C      1  0.4563550000000  0.4685530000000  0.4732600000000 1.0
C      1  0.5372680000000  0.5312440000000  0.4741640000000 1.0
C      1  0.3909640000000  0.5722630000000  0.4097180000000 1.0
C      1  0.6034420000000  0.4181500000000  0.4185090000000 1.0
C      1  0.4450940000000  0.4700470000000  0.4458000000000 1.0
C      1  0.5547170000000  0.5285920000000  0.4493900000000 1.0
C      1  0.4155250000000  0.4758340000000  0.5033930000000 1.0
C      1  0.5722300000000  0.5153560000000  0.5060250000000 1.0
C      1  0.4502440000000  0.5487900000000  0.5664110000000 1.0
C      1  0.5523930000000  0.4522460000000  0.5682190000000 1.0
C      1  0.4984540000000  0.4865390000000  0.4357510000000 1.0
C      1  0.4982670000000  0.5148260000000  0.4361900000000 1.0
C      1  0.5588450000000  0.5376350000000  0.4947740000000 1.0
C      1  0.4338350000000  0.4560850000000  0.4910520000000 1.0
C      1  0.4860110000000  0.4975430000000  0.5805460000000 1.0
C      1  0.5188470000000  0.5018630000000  0.5792550000000 1.0
C      1  0.5244150000000  0.4259230000000  0.5344620000000 1.0
C      1  0.4827670000000  0.5787160000000  0.5322690000000 1.0
C      1  0.4062960000000  0.5889620000000  0.5258840000000 1.0
C      1  0.5824250000000  0.4098010000000  0.5205390000000 1.0
C      1  0.4314830000000  0.4832400000000  0.5277500000000 1.0
C      1  0.5813690000000  0.5171740000000  0.5337480000000 1.0
C      1  0.4982250000000  0.4893170000000  0.5375680000000 1.0
END
