TITL C-3201372-1405-549 117648.670822544 125000 -1055.30683864009 0 0 175 (C1) n - 1
REM
REM in /home/nfs/bkarasulu/CARBON/AIRSS/Generating-Clusters/LCBOP/Higher-Symm/SD-CG/FIRE-CG
REM
REM
REM
REM
REM
REM ./C.cell (b20cbc046b6831c77cfcea5457e17084)
REM AIRSS Version 0.9.1 bugfix July 2018 build 013d7b7c2542+ Fri, 06 Jul 2018 19:26:36 +0100
REM compiler GCC version 9.2.1 20190827 (Red Hat 9.2.1-1)
REM options -cpp -mtune=generic -march=x86-64 -g -O0 -fpre-include=/usr/include/finclude/math-vector-fortran.h
REM seed 381078475 -1460488951 658250232 -217849224 -1333477860 -2013376457 230044785 1329744204 976022401 887260208 -300413733 -178569524 435755237 -1201963165 -2062617434 -82745549 410502663 24810176 -154684086 -1359283944 -108173548 -1634007550 384824102 -2062389406 -1038880430 -1777867222 -368479755 -1026986747 -1574798548 -1523779476 783582207 -884882728 2068977703
REM
CELL 1.54180   50.00000   50.00000   50.00000   90.00000   90.00000   90.00000
LATT -1
SFAC C  
C      1  0.4640030000000  0.4674000000000  0.5137200000000 1.0
C      1  0.5302100000000  0.5250500000000  0.5131420000000 1.0
C      1  0.5317420000000  0.4751160000000  0.5129210000000 1.0
C      1  0.4640140000000  0.5285380000000  0.5070950000000 1.0
C      1  0.5129500000000  0.5501500000000  0.6075820000000 1.0
C      1  0.4867660000000  0.4408440000000  0.5942400000000 1.0
C      1  0.4888300000000  0.5578560000000  0.5928420000000 1.0
C      1  0.5110320000000  0.4471900000000  0.6084510000000 1.0
C      1  0.4678820000000  0.5059120000000  0.4416340000000 1.0
C      1  0.5515450000000  0.4859970000000  0.4435740000000 1.0
C      1  0.5540200000000  0.5136880000000  0.4464070000000 1.0
C      1  0.4613730000000  0.4808700000000  0.4543580000000 1.0
C      1  0.5087520000000  0.4864960000000  0.4726200000000 1.0
C      1  0.4808290000000  0.5236300000000  0.4609110000000 1.0
C      1  0.4834130000000  0.4745730000000  0.4716030000000 1.0
C      1  0.5071190000000  0.5153060000000  0.4702270000000 1.0
C      1  0.5286610000000  0.5583210000000  0.4067870000000 1.0
C      1  0.4794150000000  0.4398420000000  0.4041370000000 1.0
C      1  0.4734980000000  0.5563450000000  0.4056380000000 1.0
C      1  0.5336310000000  0.4380330000000  0.4086930000000 1.0
C      1  0.4847120000000  0.6303700000000  0.4319380000000 1.0
C      1  0.5099440000000  0.3704190000000  0.4304490000000 1.0
C      1  0.5116360000000  0.6289370000000  0.4308700000000 1.0
C      1  0.4828970000000  0.3704170000000  0.4308810000000 1.0
C      1  0.5499740000000  0.5810430000000  0.4797570000000 1.0
C      1  0.4459470000000  0.4161340000000  0.4796920000000 1.0
C      1  0.4445880000000  0.5873210000000  0.4802660000000 1.0
C      1  0.5505120000000  0.4193100000000  0.4794910000000 1.0
C      1  0.3874620000000  0.4851100000000  0.4590760000000 1.0
C      1  0.6098020000000  0.5156210000000  0.4603450000000 1.0
C      1  0.6102800000000  0.4867570000000  0.4600290000000 1.0
C      1  0.3865950000000  0.5139640000000  0.4604630000000 1.0
C      1  0.5802980000000  0.5357560000000  0.5731080000000 1.0
C      1  0.4133720000000  0.4660230000000  0.5730060000000 1.0
C      1  0.4180850000000  0.5396630000000  0.5725840000000 1.0
C      1  0.5827890000000  0.4631580000000  0.5714520000000 1.0
C      1  0.4620860000000  0.6246170000000  0.4457400000000 1.0
C      1  0.5326520000000  0.3780010000000  0.4434420000000 1.0
C      1  0.5342890000000  0.6205950000000  0.4433150000000 1.0
C      1  0.4604850000000  0.3774400000000  0.4446430000000 1.0
C      1  0.4903670000000  0.5824560000000  0.5761640000000 1.0
C      1  0.5139630000000  0.4056650000000  0.5720880000000 1.0
C      1  0.5161480000000  0.5945450000000  0.5733830000000 1.0
C      1  0.4880080000000  0.4170240000000  0.5766940000000 1.0
C      1  0.5674530000000  0.5615350000000  0.4611020000000 1.0
C      1  0.4280440000000  0.4380740000000  0.4566160000000 1.0
C      1  0.4234250000000  0.5671780000000  0.4650030000000 1.0
C      1  0.5686650000000  0.4392610000000  0.4605390000000 1.0
C      1  0.4878280000000  0.4732340000000  0.5590250000000 1.0
C      1  0.5203610000000  0.5201720000000  0.5720510000000 1.0
C      1  0.5186760000000  0.4742610000000  0.5700040000000 1.0
C      1  0.4925050000000  0.5211010000000  0.5643830000000 1.0
C      1  0.6029020000000  0.4875840000000  0.4130690000000 1.0
C      1  0.3982260000000  0.5160830000000  0.4144920000000 1.0
C      1  0.3978880000000  0.4887110000000  0.4128600000000 1.0
C      1  0.6026620000000  0.5149890000000  0.4132800000000 1.0
C      1  0.4243170000000  0.4732810000000  0.4863530000000 1.0
C      1  0.5750940000000  0.5263230000000  0.4911800000000 1.0
C      1  0.5756350000000  0.4756150000000  0.4901720000000 1.0
C      1  0.4193620000000  0.5249520000000  0.4923450000000 1.0
C      1  0.5379210000000  0.6102860000000  0.4694500000000 1.0
C      1  0.4581600000000  0.3882420000000  0.4709030000000 1.0
C      1  0.4576270000000  0.6149020000000  0.4720710000000 1.0
C      1  0.5351880000000  0.3899750000000  0.4689570000000 1.0
C      1  0.6207190000000  0.5456820000000  0.4972030000000 1.0
C      1  0.3787810000000  0.4547530000000  0.4964270000000 1.0
C      1  0.3720840000000  0.5401840000000  0.4986630000000 1.0
C      1  0.6212170000000  0.4557390000000  0.4959190000000 1.0
C      1  0.5130300000000  0.3835070000000  0.4852200000000 1.0
C      1  0.4785900000000  0.6223660000000  0.4897010000000 1.0
C      1  0.4822970000000  0.3819240000000  0.4861930000000 1.0
C      1  0.5184860000000  0.6202080000000  0.4871310000000 1.0
C      1  0.5477170000000  0.5580070000000  0.5471570000000 1.0
C      1  0.4477130000000  0.4438710000000  0.5509320000000 1.0
C      1  0.4513900000000  0.5567650000000  0.5449150000000 1.0
C      1  0.5496540000000  0.4416310000000  0.5462310000000 1.0
C      1  0.5144560000000  0.6106560000000  0.5129340000000 1.0
C      1  0.4811220000000  0.3881370000000  0.5179220000000 1.0
C      1  0.4850340000000  0.6115320000000  0.5146470000000 1.0
C      1  0.5154940000000  0.3889750000000  0.5135380000000 1.0
C      1  0.3943950000000  0.4706840000000  0.4346970000000 1.0
C      1  0.6029790000000  0.5312080000000  0.4367070000000 1.0
C      1  0.6036390000000  0.4711560000000  0.4363310000000 1.0
C      1  0.3944010000000  0.5313690000000  0.4382880000000 1.0
C      1  0.5291180000000  0.5286510000000  0.5978210000000 1.0
C      1  0.4741680000000  0.4664260000000  0.5860610000000 1.0
C      1  0.4755060000000  0.5328220000000  0.5840740000000 1.0
C      1  0.5271430000000  0.4675100000000  0.5970020000000 1.0
C      1  0.4678340000000  0.4074550000000  0.5585570000000 1.0
C      1  0.5344200000000  0.6016730000000  0.5548400000000 1.0
C      1  0.5339060000000  0.3994530000000  0.5548920000000 1.0
C      1  0.4713520000000  0.5932620000000  0.5571400000000 1.0
C      1  0.4881200000000  0.5323500000000  0.4050980000000 1.0
C      1  0.5224030000000  0.4635480000000  0.4049540000000 1.0
C      1  0.5168650000000  0.5329000000000  0.4045400000000 1.0
C      1  0.4942730000000  0.4632210000000  0.3985560000000 1.0
C      1  0.4187030000000  0.4895620000000  0.5867280000000 1.0
C      1  0.5765250000000  0.5134180000000  0.5903940000000 1.0
C      1  0.5816960000000  0.4858140000000  0.5875520000000 1.0
C      1  0.4257070000000  0.5165110000000  0.5866980000000 1.0
C      1  0.5591340000000  0.4157620000000  0.5105900000000 1.0
C      1  0.4405520000000  0.5862430000000  0.5128740000000 1.0
C      1  0.4393770000000  0.4174410000000  0.5141840000000 1.0
C      1  0.5578570000000  0.5833140000000  0.5110740000000 1.0
C      1  0.5604290000000  0.4863840000000  0.5116770000000 1.0
C      1  0.4402000000000  0.5117730000000  0.5080340000000 1.0
C      1  0.4412410000000  0.4838110000000  0.5066990000000 1.0
C      1  0.5597460000000  0.5147990000000  0.5118940000000 1.0
C      1  0.4264310000000  0.4393920000000  0.5310160000000 1.0
C      1  0.5704340000000  0.5625380000000  0.5294890000000 1.0
C      1  0.5721300000000  0.4366320000000  0.5284900000000 1.0
C      1  0.4280540000000  0.5637990000000  0.5286610000000 1.0
C      1  0.4709220000000  0.5739640000000  0.4257170000000 1.0
C      1  0.5275200000000  0.4241580000000  0.4307360000000 1.0
C      1  0.5262700000000  0.5736410000000  0.4285830000000 1.0
C      1  0.4726800000000  0.4281060000000  0.4273080000000 1.0
C      1  0.4059640000000  0.4440330000000  0.4387960000000 1.0
C      1  0.5890360000000  0.5561150000000  0.4422780000000 1.0
C      1  0.5903950000000  0.4457440000000  0.4418510000000 1.0
C      1  0.4040880000000  0.5583300000000  0.4449910000000 1.0
C      1  0.5119760000000  0.4291940000000  0.4535860000000 1.0
C      1  0.4835620000000  0.5751280000000  0.4508310000000 1.0
C      1  0.4843290000000  0.4279170000000  0.4528750000000 1.0
C      1  0.5110800000000  0.5721840000000  0.4521720000000 1.0
C      1  0.3943460000000  0.5162780000000  0.5371480000000 1.0
C      1  0.6053980000000  0.4864490000000  0.5359790000000 1.0
C      1  0.6045650000000  0.5136250000000  0.5370620000000 1.0
C      1  0.3940910000000  0.4892280000000  0.5353820000000 1.0
C      1  0.4764920000000  0.4557510000000  0.4913970000000 1.0
C      1  0.5273060000000  0.5347490000000  0.4827120000000 1.0
C      1  0.5292200000000  0.4667280000000  0.4828700000000 1.0
C      1  0.4644810000000  0.5405610000000  0.4791920000000 1.0
C      1  0.5584290000000  0.5543850000000  0.5729030000000 1.0
C      1  0.4336880000000  0.4462350000000  0.5755480000000 1.0
C      1  0.4402190000000  0.5577190000000  0.5709170000000 1.0
C      1  0.5602400000000  0.4457420000000  0.5719500000000 1.0
C      1  0.4752020000000  0.5087420000000  0.4141220000000 1.0
C      1  0.5356130000000  0.4844910000000  0.4185080000000 1.0
C      1  0.5323240000000  0.5114470000000  0.4126160000000 1.0
C      1  0.4791220000000  0.4865500000000  0.3977520000000 1.0
C      1  0.4706150000000  0.5435950000000  0.5297120000000 1.0
C      1  0.5285100000000  0.4525130000000  0.5315770000000 1.0
C      1  0.5264850000000  0.5470030000000  0.5326870000000 1.0
C      1  0.4691820000000  0.4588920000000  0.5401800000000 1.0
C      1  0.4715210000000  0.4315560000000  0.4782220000000 1.0
C      1  0.5229100000000  0.5643980000000  0.4771260000000 1.0
C      1  0.5243330000000  0.4372630000000  0.4780850000000 1.0
C      1  0.4698530000000  0.5693960000000  0.4747150000000 1.0
C      1  0.5371940000000  0.6003060000000  0.5265230000000 1.0
C      1  0.4612250000000  0.4024370000000  0.5309620000000 1.0
C      1  0.4644140000000  0.5987000000000  0.5293220000000 1.0
C      1  0.5380840000000  0.3991620000000  0.5265450000000 1.0
C      1  0.6033360000000  0.4736450000000  0.4843350000000 1.0
C      1  0.3917230000000  0.5247470000000  0.4863530000000 1.0
C      1  0.3960260000000  0.4720580000000  0.4831470000000 1.0
C      1  0.6027380000000  0.5283180000000  0.4849550000000 1.0
C      1  0.4060450000000  0.5407900000000  0.5452790000000 1.0
C      1  0.5938170000000  0.4617440000000  0.5440370000000 1.0
C      1  0.5917970000000  0.5375490000000  0.5456150000000 1.0
C      1  0.4045240000000  0.4645660000000  0.5445930000000 1.0
C      1  0.3629040000000  0.4357280000000  0.5045280000000 1.0
C      1  0.6364910000000  0.5649640000000  0.5048840000000 1.0
C      1  0.6369800000000  0.4360610000000  0.5025510000000 1.0
C      1  0.3552510000000  0.5586070000000  0.5062140000000 1.0
C      1  0.5470650000000  0.4841050000000  0.6080410000000 1.0
C      1  0.4548730000000  0.5149960000000  0.5934030000000 1.0
C      1  0.4577770000000  0.4867770000000  0.5961140000000 1.0
C      1  0.5509510000000  0.5124540000000  0.6063620000000 1.0
C      1  0.5558640000000  0.5329830000000  0.4687790000000 1.0
C      1  0.4385130000000  0.4651890000000  0.4623810000000 1.0
C      1  0.4342840000000  0.5413340000000  0.4742970000000 1.0
C      1  0.5566700000000  0.4682480000000  0.4674820000000 1.0
C      1  0.4886970000000  0.5012400000000  0.5454880000000 1.0
C      1  0.5302790000000  0.4973070000000  0.5590140000000 1.0
C      1  0.5172790000000  0.4996180000000  0.5241660000000 1.0
END
