TITL C-3201373-1215-1166 -10143.3247525144 125000 -806.681428923937 0 0 133 (C1) n - 1
REM
REM in /home/nfs/bkarasulu/CARBON/AIRSS/Generating-Clusters/LCBOP/Higher-Symm/SD-CG/FIRE-CG
REM
REM
REM
REM
REM
REM ./C.cell (b20cbc046b6831c77cfcea5457e17084)
REM AIRSS Version 0.9.1 bugfix July 2018 build 013d7b7c2542+ Fri, 06 Jul 2018 19:26:36 +0100
REM compiler GCC version 9.2.1 20190827 (Red Hat 9.2.1-1)
REM options -cpp -mtune=generic -march=x86-64 -g -O0 -fpre-include=/usr/include/finclude/math-vector-fortran.h
REM seed 780342803 -1660841692 173544070 539309436 -320451510 -1013293821 15902500 -183312341 -375025328 -898693249 1576308607 1435706541 -1442228218 1527694563 1480372711 -717134244 1687533174 -1337552036 1059134059 -989778650 -19955042 1285275900 -1943399027 -713034193 -438178823 561806149 1948781074 -2009507486 -1281270506 -224105123 1923104897 129891640 -667031288
REM
CELL 1.54180   50.00000   50.00000   50.00000   90.00000   90.00000   90.00000
LATT -1
SFAC C  
C      1  0.4853710000000  0.4705060000000  0.5602380000000 1.0
C      1  0.5554900000000  0.4794020000000  0.4620720000000 1.0
C      1  0.4505210000000  0.5706180000000  0.4683310000000 1.0
C      1  0.5177270000000  0.5312980000000  0.5631830000000 1.0
C      1  0.5320580000000  0.4450700000000  0.4385370000000 1.0
C      1  0.4785560000000  0.5421310000000  0.4401580000000 1.0
C      1  0.4334280000000  0.5315380000000  0.4469710000000 1.0
C      1  0.4412200000000  0.4700930000000  0.5441040000000 1.0
C      1  0.5546590000000  0.5262750000000  0.5337630000000 1.0
C      1  0.5346020000000  0.4360360000000  0.4863820000000 1.0
C      1  0.5341790000000  0.5610020000000  0.5135530000000 1.0
C      1  0.4562980000000  0.4333280000000  0.5193740000000 1.0
C      1  0.4635960000000  0.4851500000000  0.5529000000000 1.0
C      1  0.4708000000000  0.5698110000000  0.4478570000000 1.0
C      1  0.5669400000000  0.4701680000000  0.4861250000000 1.0
C      1  0.5448880000000  0.5239730000000  0.5606420000000 1.0
C      1  0.4593830000000  0.5216320000000  0.4392130000000 1.0
C      1  0.5529280000000  0.4636980000000  0.4375060000000 1.0
C      1  0.5205240000000  0.4457520000000  0.4648440000000 1.0
C      1  0.4827670000000  0.4322850000000  0.5286260000000 1.0
C      1  0.5121350000000  0.5655200000000  0.5300910000000 1.0
C      1  0.4398230000000  0.5434460000000  0.4721360000000 1.0
C      1  0.5600680000000  0.5520270000000  0.5222470000000 1.0
C      1  0.4462450000000  0.4595630000000  0.5185910000000 1.0
C      1  0.5792980000000  0.4450270000000  0.4945820000000 1.0
C      1  0.4928310000000  0.5870040000000  0.4421150000000 1.0
C      1  0.4268410000000  0.4753940000000  0.5895230000000 1.0
C      1  0.4158720000000  0.5743640000000  0.5010560000000 1.0
C      1  0.4216120000000  0.4223290000000  0.4912070000000 1.0
C      1  0.5783330000000  0.5612480000000  0.5021260000000 1.0
C      1  0.5019180000000  0.4086960000000  0.4368630000000 1.0
C      1  0.5077990000000  0.5766820000000  0.5564770000000 1.0
C      1  0.4858070000000  0.4241370000000  0.5555550000000 1.0
C      1  0.5600940000000  0.5024830000000  0.5723170000000 1.0
C      1  0.5628770000000  0.4783500000000  0.4154680000000 1.0
C      1  0.4189270000000  0.5070150000000  0.4088250000000 1.0
C      1  0.4418040000000  0.5838440000000  0.4921690000000 1.0
C      1  0.5905180000000  0.4860030000000  0.4182250000000 1.0
C      1  0.4830740000000  0.4455640000000  0.5735160000000 1.0
C      1  0.5600960000000  0.4241120000000  0.4934520000000 1.0
C      1  0.4424140000000  0.4120340000000  0.5074770000000 1.0
C      1  0.5788010000000  0.5892700000000  0.4986560000000 1.0
C      1  0.4122540000000  0.5174700000000  0.4349300000000 1.0
C      1  0.5874280000000  0.5047750000000  0.5641110000000 1.0
C      1  0.4194160000000  0.4752660000000  0.5618520000000 1.0
C      1  0.5031080000000  0.5546600000000  0.5738390000000 1.0
C      1  0.5047890000000  0.5816520000000  0.4164730000000 1.0
C      1  0.5104360000000  0.4333840000000  0.4238580000000 1.0
C      1  0.4883140000000  0.4522610000000  0.4224170000000 1.0
C      1  0.4093790000000  0.4939800000000  0.4524690000000 1.0
C      1  0.4575740000000  0.3881490000000  0.5091610000000 1.0
C      1  0.5234910000000  0.5592970000000  0.4181890000000 1.0
C      1  0.5038360000000  0.4450490000000  0.5939310000000 1.0
C      1  0.4785760000000  0.5413780000000  0.5826400000000 1.0
C      1  0.5926760000000  0.5087730000000  0.4358940000000 1.0
C      1  0.6000360000000  0.5142840000000  0.5415220000000 1.0
C      1  0.4134290000000  0.5034250000000  0.5537760000000 1.0
C      1  0.5598740000000  0.6084210000000  0.4980580000000 1.0
C      1  0.5535400000000  0.4143630000000  0.5208750000000 1.0
C      1  0.4608330000000  0.5836720000000  0.5139410000000 1.0
C      1  0.4369530000000  0.4841820000000  0.4120220000000 1.0
C      1  0.4864050000000  0.4128340000000  0.4606780000000 1.0
C      1  0.4216620000000  0.4487150000000  0.4800830000000 1.0
C      1  0.5475780000000  0.5038880000000  0.4151820000000 1.0
C      1  0.4438560000000  0.4985060000000  0.5951230000000 1.0
C      1  0.5432250000000  0.4806090000000  0.5801010000000 1.0
C      1  0.5138960000000  0.5858350000000  0.4620070000000 1.0
C      1  0.5012120000000  0.6039180000000  0.5557750000000 1.0
C      1  0.5106930000000  0.4096620000000  0.5600340000000 1.0
C      1  0.5812830000000  0.5428680000000  0.4805210000000 1.0
C      1  0.4170790000000  0.5511690000000  0.5176610000000 1.0
C      1  0.5868070000000  0.4509920000000  0.5231560000000 1.0
C      1  0.5004320000000  0.3997370000000  0.4901950000000 1.0
C      1  0.4638490000000  0.4861640000000  0.4023110000000 1.0
C      1  0.4084810000000  0.4771630000000  0.4967750000000 1.0
C      1  0.5091730000000  0.5988280000000  0.4881200000000 1.0
C      1  0.5129760000000  0.3924390000000  0.5373390000000 1.0
C      1  0.4925490000000  0.6150000000000  0.5324740000000 1.0
C      1  0.5183810000000  0.5051220000000  0.4078310000000 1.0
C      1  0.5185430000000  0.4900340000000  0.5950000000000 1.0
C      1  0.4714380000000  0.4955840000000  0.6031740000000 1.0
C      1  0.5971020000000  0.5180760000000  0.4872190000000 1.0
C      1  0.6025290000000  0.4749870000000  0.5198350000000 1.0
C      1  0.4069280000000  0.5247990000000  0.5090990000000 1.0
C      1  0.4052200000000  0.4983690000000  0.4803120000000 1.0
C      1  0.4915850000000  0.4799710000000  0.4091870000000 1.0
C      1  0.4854400000000  0.3878110000000  0.5092430000000 1.0
C      1  0.6050410000000  0.5075810000000  0.4614870000000 1.0
C      1  0.4063020000000  0.5035760000000  0.5260070000000 1.0
C      1  0.6015920000000  0.5039050000000  0.5143260000000 1.0
C      1  0.5150470000000  0.5342160000000  0.4059700000000 1.0
C      1  0.4882470000000  0.5155020000000  0.5953730000000 1.0
C      1  0.5011840000000  0.4712500000000  0.6053830000000 1.0
C      1  0.5332900000000  0.6121810000000  0.4966210000000 1.0
C      1  0.4860760000000  0.5993460000000  0.5089150000000 1.0
C      1  0.5292930000000  0.3994200000000  0.5172270000000 1.0
C      1  0.5132820000000  0.5069020000000  0.4525960000000 1.0
C      1  0.4560860000000  0.5266620000000  0.4934350000000 1.0
C      1  0.5020850000000  0.4532870000000  0.5189480000000 1.0
C      1  0.4670940000000  0.4982130000000  0.4545960000000 1.0
C      1  0.4692750000000  0.5100330000000  0.5418860000000 1.0
C      1  0.5135100000000  0.4998080000000  0.5277820000000 1.0
C      1  0.5487020000000  0.4758680000000  0.5089630000000 1.0
C      1  0.5406930000000  0.5179610000000  0.4896880000000 1.0
C      1  0.4590970000000  0.4749470000000  0.4979990000000 1.0
C      1  0.4928850000000  0.5452980000000  0.5240980000000 1.0
C      1  0.4990870000000  0.4639870000000  0.4692420000000 1.0
C      1  0.5035200000000  0.5441380000000  0.4791440000000 1.0
C      1  0.5017940000000  0.5330800000000  0.4537580000000 1.0
C      1  0.5298690000000  0.4532500000000  0.5089370000000 1.0
C      1  0.4514490000000  0.5194820000000  0.5220770000000 1.0
C      1  0.4933750000000  0.4869700000000  0.4534090000000 1.0
C      1  0.5060220000000  0.4735010000000  0.5412460000000 1.0
C      1  0.4977640000000  0.5210210000000  0.5412490000000 1.0
C      1  0.4827670000000  0.5415740000000  0.4975470000000 1.0
C      1  0.5287610000000  0.5439850000000  0.4907750000000 1.0
C      1  0.4884840000000  0.4687680000000  0.4963790000000 1.0
C      1  0.5421370000000  0.5042280000000  0.5168430000000 1.0
C      1  0.4562160000000  0.4984040000000  0.4812510000000 1.0
C      1  0.5379890000000  0.5021320000000  0.4660070000000 1.0
C      1  0.5379080000000  0.5639050000000  0.4453640000000 1.0
C      1  0.5256510000000  0.4300790000000  0.5778800000000 1.0
C      1  0.4332400000000  0.5194850000000  0.5731690000000 1.0
C      1  0.4515790000000  0.5431180000000  0.5667470000000 1.0
C      1  0.5662740000000  0.5234000000000  0.4323040000000 1.0
C      1  0.5470600000000  0.4485830000000  0.5666060000000 1.0
C      1  0.5644810000000  0.4372950000000  0.5411790000000 1.0
C      1  0.4453570000000  0.5607120000000  0.5375520000000 1.0
C      1  0.5615900000000  0.5457180000000  0.4517110000000 1.0
C      1  0.4276190000000  0.4732430000000  0.4386310000000 1.0
C      1  0.4658000000000  0.4397980000000  0.4480920000000 1.0
C      1  0.4386370000000  0.4521140000000  0.4552530000000 1.0
C      1  0.4992950000000  0.4963070000000  0.5018810000000 1.0
END
