TITL C-3201372-1405-840 0.0998934943125308 125000 -1165.75726276546 0 0 193 (C1) n - 1
REM
REM in /home/nfs/bkarasulu/CARBON/AIRSS/Generating-Clusters/LCBOP/Higher-Symm/SD-CG/FIRE-CG
REM
REM
REM
REM
REM
REM ./C.cell (b20cbc046b6831c77cfcea5457e17084)
REM AIRSS Version 0.9.1 bugfix July 2018 build 013d7b7c2542+ Fri, 06 Jul 2018 19:26:36 +0100
REM compiler GCC version 9.2.1 20190827 (Red Hat 9.2.1-1)
REM options -cpp -mtune=generic -march=x86-64 -g -O0 -fpre-include=/usr/include/finclude/math-vector-fortran.h
REM seed -567089313 -1174831290 965673365 868713630 -1549033367 -2137888874 -81142607 744280799 1088902301 -99752500 -57628409 -240493555 1164089583 -988384649 2046523491 155869368 171956258 682320106 152539049 -1353380584 525067050 1073648438 469632090 -1668396108 -437770386 410759436 -1653658664 -1341059950 2104153261 970989467 -918713290 184700881 677981795
REM
CELL 1.54180   50.00000   50.00000   50.00000   90.00000   90.00000   90.00000
LATT -1
SFAC C  
C      1  0.4226980000000  0.5802160000000  0.4523380000000 1.0
C      1  0.5604860000000  0.6072170000000  0.4983750000000 1.0
C      1  0.4444100000000  0.4910270000000  0.4507980000000 1.0
C      1  0.5848420000000  0.4897040000000  0.4658110000000 1.0
C      1  0.4562740000000  0.5252580000000  0.4152200000000 1.0
C      1  0.4463720000000  0.5592860000000  0.6213270000000 1.0
C      1  0.4118060000000  0.4548640000000  0.4822100000000 1.0
C      1  0.4575540000000  0.4480630000000  0.4770600000000 1.0
C      1  0.4469350000000  0.5426350000000  0.5298730000000 1.0
C      1  0.4034860000000  0.5588020000000  0.4464710000000 1.0
C      1  0.5949880000000  0.4764130000000  0.5755800000000 1.0
C      1  0.4953860000000  0.3641600000000  0.4696370000000 1.0
C      1  0.5400530000000  0.5695960000000  0.4688310000000 1.0
C      1  0.4945050000000  0.5745540000000  0.4816970000000 1.0
C      1  0.5154170000000  0.4178690000000  0.3934850000000 1.0
C      1  0.3492760000000  0.4737800000000  0.4788400000000 1.0
C      1  0.5026660000000  0.5143030000000  0.4681860000000 1.0
C      1  0.4378270000000  0.5473640000000  0.5972560000000 1.0
C      1  0.4692210000000  0.5903940000000  0.4336290000000 1.0
C      1  0.4441840000000  0.4412720000000  0.6276860000000 1.0
C      1  0.4701730000000  0.6010000000000  0.5766360000000 1.0
C      1  0.4863330000000  0.5324120000000  0.6305560000000 1.0
C      1  0.4202030000000  0.5022730000000  0.4657790000000 1.0
C      1  0.4767970000000  0.5693510000000  0.5027730000000 1.0
C      1  0.5427950000000  0.5123600000000  0.5886030000000 1.0
C      1  0.4372050000000  0.4800470000000  0.5964570000000 1.0
C      1  0.6162150000000  0.4474970000000  0.4596090000000 1.0
C      1  0.5679080000000  0.4683940000000  0.5808710000000 1.0
C      1  0.5576920000000  0.4506790000000  0.4166780000000 1.0
C      1  0.4835420000000  0.5910840000000  0.4596940000000 1.0
C      1  0.6216470000000  0.5384220000000  0.5063260000000 1.0
C      1  0.5225660000000  0.4067860000000  0.4168250000000 1.0
C      1  0.4282170000000  0.5285330000000  0.4788010000000 1.0
C      1  0.4288320000000  0.4182850000000  0.4532630000000 1.0
C      1  0.5870440000000  0.4382720000000  0.5203220000000 1.0
C      1  0.4611030000000  0.4527810000000  0.4251910000000 1.0
C      1  0.4556890000000  0.5273500000000  0.5864370000000 1.0
C      1  0.5370610000000  0.5037560000000  0.5011110000000 1.0
C      1  0.4680180000000  0.4592070000000  0.5600110000000 1.0
C      1  0.5389020000000  0.4153780000000  0.5810590000000 1.0
C      1  0.5630290000000  0.5435420000000  0.5602740000000 1.0
C      1  0.4096250000000  0.4415880000000  0.4561080000000 1.0
C      1  0.5347470000000  0.4668650000000  0.4146710000000 1.0
C      1  0.4079290000000  0.5339210000000  0.4311230000000 1.0
C      1  0.5533350000000  0.4569950000000  0.6015500000000 1.0
C      1  0.4611400000000  0.5122370000000  0.4403090000000 1.0
C      1  0.4768210000000  0.4998660000000  0.5309710000000 1.0
C      1  0.4473110000000  0.6009050000000  0.5630540000000 1.0
C      1  0.5636110000000  0.5097910000000  0.4024670000000 1.0
C      1  0.4162300000000  0.5734820000000  0.4994700000000 1.0
C      1  0.5173620000000  0.5900770000000  0.6018660000000 1.0
C      1  0.5757080000000  0.6025980000000  0.4527760000000 1.0
C      1  0.5676490000000  0.4216860000000  0.5037310000000 1.0
C      1  0.5128910000000  0.4700280000000  0.5334990000000 1.0
C      1  0.3986340000000  0.4907910000000  0.5593830000000 1.0
C      1  0.4747390000000  0.5273870000000  0.3926000000000 1.0
C      1  0.3943570000000  0.5262470000000  0.5093330000000 1.0
C      1  0.5392080000000  0.5067360000000  0.3869560000000 1.0
C      1  0.5999280000000  0.5122930000000  0.5397900000000 1.0
C      1  0.4372150000000  0.4493460000000  0.6014590000000 1.0
C      1  0.4727600000000  0.4737850000000  0.5162790000000 1.0
C      1  0.6373100000000  0.5375320000000  0.4421180000000 1.0
C      1  0.4236750000000  0.4821630000000  0.5702790000000 1.0
C      1  0.5314300000000  0.5816840000000  0.4436500000000 1.0
C      1  0.5581710000000  0.5470560000000  0.4680970000000 1.0
C      1  0.5843170000000  0.5991130000000  0.4808760000000 1.0
C      1  0.4557680000000  0.5327930000000  0.4832750000000 1.0
C      1  0.3881740000000  0.4837910000000  0.5333950000000 1.0
C      1  0.4416110000000  0.5833510000000  0.4314270000000 1.0
C      1  0.5827300000000  0.4441140000000  0.4234910000000 1.0
C      1  0.6007890000000  0.5416530000000  0.5283340000000 1.0
C      1  0.4955900000000  0.5207310000000  0.5238090000000 1.0
C      1  0.4604770000000  0.5475850000000  0.5067180000000 1.0
C      1  0.6027700000000  0.4621210000000  0.5098430000000 1.0
C      1  0.5292600000000  0.4202250000000  0.4644360000000 1.0
C      1  0.5201140000000  0.5653550000000  0.6148100000000 1.0
C      1  0.5126920000000  0.3763790000000  0.4534820000000 1.0
C      1  0.6236940000000  0.5632960000000  0.4920890000000 1.0
C      1  0.5498800000000  0.5354510000000  0.4417030000000 1.0
C      1  0.5292050000000  0.4997210000000  0.5666550000000 1.0
C      1  0.5040060000000  0.5464840000000  0.4341350000000 1.0
C      1  0.3606960000000  0.4817440000000  0.4558800000000 1.0
C      1  0.5458400000000  0.4428590000000  0.5461950000000 1.0
C      1  0.4616600000000  0.4083150000000  0.5804180000000 1.0
C      1  0.4821630000000  0.3837470000000  0.5113100000000 1.0
C      1  0.5084700000000  0.4816700000000  0.5603260000000 1.0
C      1  0.4742650000000  0.4477320000000  0.5337530000000 1.0
C      1  0.5922750000000  0.5049090000000  0.5673880000000 1.0
C      1  0.4273200000000  0.5952040000000  0.5464460000000 1.0
C      1  0.4395960000000  0.4644350000000  0.5555480000000 1.0
C      1  0.5087270000000  0.4382700000000  0.3772580000000 1.0
C      1  0.6188440000000  0.4754350000000  0.4204040000000 1.0
C      1  0.6115990000000  0.5027690000000  0.4193150000000 1.0
C      1  0.5132920000000  0.5392530000000  0.6215560000000 1.0
C      1  0.5645590000000  0.5579990000000  0.4243550000000 1.0
C      1  0.5171590000000  0.4722170000000  0.4359810000000 1.0
C      1  0.6163140000000  0.4543640000000  0.4854900000000 1.0
C      1  0.6173070000000  0.5114340000000  0.4957740000000 1.0
C      1  0.4979840000000  0.5448720000000  0.3878550000000 1.0
C      1  0.5919540000000  0.5098880000000  0.3993670000000 1.0
C      1  0.4695520000000  0.4393360000000  0.6363260000000 1.0
C      1  0.4009500000000  0.5077590000000  0.4423910000000 1.0
C      1  0.3648970000000  0.4687460000000  0.5276250000000 1.0
C      1  0.6066470000000  0.4920740000000  0.5170510000000 1.0
C      1  0.5382720000000  0.6077040000000  0.6012830000000 1.0
C      1  0.3504860000000  0.4671060000000  0.5048260000000 1.0
C      1  0.4667670000000  0.5513290000000  0.6369170000000 1.0
C      1  0.4497830000000  0.6116180000000  0.4826890000000 1.0
C      1  0.4962340000000  0.4278070000000  0.5310710000000 1.0
C      1  0.5527820000000  0.6215800000000  0.4550720000000 1.0
C      1  0.5579560000000  0.5097350000000  0.4303460000000 1.0
C      1  0.4795930000000  0.5048870000000  0.6209070000000 1.0
C      1  0.5008180000000  0.5722290000000  0.3991690000000 1.0
C      1  0.5693700000000  0.5219940000000  0.5786980000000 1.0
C      1  0.6025930000000  0.5130500000000  0.4694040000000 1.0
C      1  0.4740240000000  0.5230840000000  0.4639080000000 1.0
C      1  0.5887780000000  0.4310150000000  0.5503670000000 1.0
C      1  0.4115010000000  0.5501530000000  0.5887480000000 1.0
C      1  0.4150240000000  0.5847900000000  0.5252260000000 1.0
C      1  0.4541630000000  0.4645030000000  0.4514170000000 1.0
C      1  0.5051150000000  0.4869150000000  0.4546650000000 1.0
C      1  0.4636990000000  0.4659160000000  0.4008290000000 1.0
C      1  0.4814180000000  0.5914980000000  0.4072750000000 1.0
C      1  0.4771400000000  0.5354130000000  0.5689480000000 1.0
C      1  0.4297360000000  0.4312390000000  0.5232130000000 1.0
C      1  0.4589950000000  0.4125940000000  0.4505800000000 1.0
C      1  0.5059090000000  0.4666010000000  0.3774230000000 1.0
C      1  0.5318690000000  0.4394650000000  0.5965510000000 1.0
C      1  0.4303730000000  0.4370560000000  0.5518110000000 1.0
C      1  0.6177500000000  0.5183520000000  0.4431360000000 1.0
C      1  0.5199200000000  0.5299560000000  0.4491070000000 1.0
C      1  0.5593940000000  0.5846980000000  0.5181070000000 1.0
C      1  0.4347530000000  0.5671290000000  0.4087440000000 1.0
C      1  0.5152400000000  0.4606970000000  0.4863600000000 1.0
C      1  0.4310340000000  0.5391080000000  0.4134190000000 1.0
C      1  0.5221510000000  0.5294570000000  0.3817730000000 1.0
C      1  0.4566770000000  0.3469780000000  0.4929830000000 1.0
C      1  0.5237810000000  0.4005710000000  0.4443300000000 1.0
C      1  0.5855630000000  0.5688560000000  0.5193930000000 1.0
C      1  0.4076230000000  0.4835200000000  0.4866810000000 1.0
C      1  0.6055170000000  0.4510020000000  0.5649690000000 1.0
C      1  0.5265460000000  0.5152340000000  0.6115680000000 1.0
C      1  0.5651430000000  0.4894350000000  0.4478550000000 1.0
C      1  0.5009240000000  0.4011150000000  0.5224790000000 1.0
C      1  0.5762220000000  0.5817940000000  0.4326920000000 1.0
C      1  0.3900370000000  0.5360410000000  0.5818210000000 1.0
C      1  0.5384810000000  0.6209600000000  0.4813140000000 1.0
C      1  0.3851450000000  0.5114990000000  0.5727090000000 1.0
C      1  0.5501040000000  0.5112570000000  0.5247900000000 1.0
C      1  0.4103690000000  0.5448640000000  0.4949360000000 1.0
C      1  0.4799400000000  0.4778390000000  0.3812890000000 1.0
C      1  0.4342970000000  0.4422630000000  0.4964680000000 1.0
C      1  0.4915500000000  0.4646000000000  0.5761230000000 1.0
C      1  0.5283000000000  0.3929800000000  0.5216360000000 1.0
C      1  0.5064210000000  0.4944470000000  0.6169850000000 1.0
C      1  0.5150120000000  0.3990560000000  0.5785050000000 1.0
C      1  0.5546430000000  0.4250990000000  0.4779020000000 1.0
C      1  0.5483090000000  0.4928820000000  0.5455500000000 1.0
C      1  0.5277200000000  0.4802610000000  0.3899760000000 1.0
C      1  0.4767510000000  0.4272480000000  0.4704020000000 1.0
C      1  0.3846920000000  0.4832450000000  0.4406900000000 1.0
C      1  0.5045510000000  0.4491210000000  0.5977010000000 1.0
C      1  0.5538980000000  0.4000040000000  0.5169130000000 1.0
C      1  0.4789460000000  0.6162010000000  0.4751340000000 1.0
C      1  0.4570490000000  0.5020830000000  0.6024050000000 1.0
C      1  0.5157850000000  0.5697630000000  0.4236760000000 1.0
C      1  0.5205260000000  0.4426150000000  0.5359780000000 1.0
C      1  0.4742340000000  0.5046520000000  0.3755300000000 1.0
C      1  0.4940540000000  0.5376360000000  0.5474000000000 1.0
C      1  0.6009770000000  0.5805790000000  0.4955120000000 1.0
C      1  0.5605640000000  0.4223690000000  0.5604950000000 1.0
C      1  0.3974790000000  0.4976800000000  0.5101980000000 1.0
C      1  0.3970300000000  0.4571980000000  0.4349910000000 1.0
C      1  0.4491340000000  0.4824240000000  0.5017070000000 1.0
C      1  0.6076910000000  0.4528990000000  0.4333050000000 1.0
C      1  0.5826390000000  0.5360850000000  0.4754320000000 1.0
C      1  0.4875740000000  0.3995980000000  0.5797240000000 1.0
C      1  0.5080620000000  0.6249820000000  0.4823140000000 1.0
C      1  0.4775630000000  0.3644610000000  0.4913760000000 1.0
C      1  0.5329310000000  0.5740310000000  0.5155030000000 1.0
C      1  0.5001820000000  0.4714990000000  0.5072070000000 1.0
C      1  0.4930880000000  0.5965410000000  0.5893350000000 1.0
C      1  0.5389400000000  0.4778700000000  0.4877470000000 1.0
C      1  0.4917580000000  0.4437190000000  0.6221840000000 1.0
C      1  0.4286230000000  0.5901320000000  0.4787080000000 1.0
C      1  0.3962590000000  0.4474380000000  0.4093250000000 1.0
C      1  0.4389530000000  0.4267550000000  0.5790410000000 1.0
C      1  0.5109480000000  0.5164530000000  0.4979470000000 1.0
C      1  0.5565910000000  0.4677450000000  0.5539930000000 1.0
C      1  0.5541180000000  0.5372680000000  0.5351340000000 1.0
C      1  0.4653340000000  0.4246430000000  0.4251550000000 1.0
C      1  0.5214990000000  0.5717230000000  0.4896300000000 1.0
C      1  0.5063310000000  0.4356730000000  0.4736480000000 1.0
END
