TITL C-3201377-4638-2006 -1.7229173356262e-06 125000 -1160.21307878141 0 0 190 (C1) n - 1
REM
REM in /home/nfs/bkarasulu/CARBON/AIRSS/Generating-Clusters/LCBOP/Higher-Symm/SD-CG/FIRE-CG
REM
REM
REM
REM
REM
REM ./C.cell (b20cbc046b6831c77cfcea5457e17084)
REM AIRSS Version 0.9.1 bugfix July 2018 build 013d7b7c2542+ Fri, 06 Jul 2018 19:26:36 +0100
REM compiler GCC version 9.2.1 20190827 (Red Hat 9.2.1-1)
REM options -cpp -mtune=generic -march=x86-64 -g -O0 -fpre-include=/usr/include/finclude/math-vector-fortran.h
REM seed -160690194 -1441863893 1448265284 1810202378 -1635409563 -255577059 252330589 1112197418 -1454476979 -1609220181 -1404975 735924026 -1563393301 -1998825641 117645533 2020135666 -1173532948 1436236211 1421986036 -1133410180 1787833133 -1829510420 -1444409382 1618617487 48102061 -989643966 -948561399 -1334396346 -954167680 763918861 -1018559501 1372432375 1086752576
REM
CELL 1.54180   50.00000   50.00000   50.00000   90.00000   90.00000   90.00000
LATT -1
SFAC C  
C      1  0.5139330000000  0.6161310000000  0.5342500000000 1.0
C      1  0.3953260000000  0.4567360000000  0.5343080000000 1.0
C      1  0.5925100000000  0.4283550000000  0.5268170000000 1.0
C      1  0.4573050000000  0.4625900000000  0.5597860000000 1.0
C      1  0.5552300000000  0.4710930000000  0.5558160000000 1.0
C      1  0.4933010000000  0.5587710000000  0.5513280000000 1.0
C      1  0.4005840000000  0.5531620000000  0.4835100000000 1.0
C      1  0.5048830000000  0.3924030000000  0.4821510000000 1.0
C      1  0.5908670000000  0.5592610000000  0.4828000000000 1.0
C      1  0.4959810000000  0.4421150000000  0.4640220000000 1.0
C      1  0.5480360000000  0.5228140000000  0.4629330000000 1.0
C      1  0.4513070000000  0.5412020000000  0.4601890000000 1.0
C      1  0.5620760000000  0.4815080000000  0.6202280000000 1.0
C      1  0.4815530000000  0.5552080000000  0.6170050000000 1.0
C      1  0.4560150000000  0.4547070000000  0.6186650000000 1.0
C      1  0.4388320000000  0.4651010000000  0.4031790000000 1.0
C      1  0.5585740000000  0.4653830000000  0.4111380000000 1.0
C      1  0.4973690000000  0.5704020000000  0.4029350000000 1.0
C      1  0.4203760000000  0.5157910000000  0.5902970000000 1.0
C      1  0.5239580000000  0.4194650000000  0.6015960000000 1.0
C      1  0.5520610000000  0.5538980000000  0.5928340000000 1.0
C      1  0.4444270000000  0.4379980000000  0.5668030000000 1.0
C      1  0.5823560000000  0.4762150000000  0.5627010000000 1.0
C      1  0.4756760000000  0.5787890000000  0.5616340000000 1.0
C      1  0.5356290000000  0.5818640000000  0.4403890000000 1.0
C      1  0.4118270000000  0.4921710000000  0.4423840000000 1.0
C      1  0.5644730000000  0.4452730000000  0.4700620000000 1.0
C      1  0.5284640000000  0.5659210000000  0.6044450000000 1.0
C      1  0.4213740000000  0.4886200000000  0.6013090000000 1.0
C      1  0.5471540000000  0.4333060000000  0.6123270000000 1.0
C      1  0.4685560000000  0.5010370000000  0.3959300000000 1.0
C      1  0.5106950000000  0.4791260000000  0.3894310000000 1.0
C      1  0.5123120000000  0.5259180000000  0.3966520000000 1.0
C      1  0.4632770000000  0.5060540000000  0.5996550000000 1.0
C      1  0.5115580000000  0.4615300000000  0.6127570000000 1.0
C      1  0.5225620000000  0.5206080000000  0.6020250000000 1.0
C      1  0.4939990000000  0.5285810000000  0.4418140000000 1.0
C      1  0.4705940000000  0.4865890000000  0.4467420000000 1.0
C      1  0.5188880000000  0.4879960000000  0.4402030000000 1.0
C      1  0.3769880000000  0.5322920000000  0.5410570000000 1.0
C      1  0.5348740000000  0.3771280000000  0.5372780000000 1.0
C      1  0.5858860000000  0.5879660000000  0.5408780000000 1.0
C      1  0.4392940000000  0.5904630000000  0.5377480000000 1.0
C      1  0.4561190000000  0.4069100000000  0.5372770000000 1.0
C      1  0.6013930000000  0.5056520000000  0.5345100000000 1.0
C      1  0.4571920000000  0.5540130000000  0.6009650000000 1.0
C      1  0.4722320000000  0.4331540000000  0.6061580000000 1.0
C      1  0.5690900000000  0.5035610000000  0.6020470000000 1.0
C      1  0.5993840000000  0.4768560000000  0.5388580000000 1.0
C      1  0.4672120000000  0.5983680000000  0.5415120000000 1.0
C      1  0.4334240000000  0.4241960000000  0.5435510000000 1.0
C      1  0.5122680000000  0.5076040000000  0.5009820000000 1.0
C      1  0.4827490000000  0.5176490000000  0.5046510000000 1.0
C      1  0.5044890000000  0.4758280000000  0.5003140000000 1.0
C      1  0.4221860000000  0.4150810000000  0.4533160000000 1.0
C      1  0.6172900000000  0.4830920000000  0.4510560000000 1.0
C      1  0.4662770000000  0.6138810000000  0.4521290000000 1.0
C      1  0.4582270000000  0.4822970000000  0.4712860000000 1.0
C      1  0.5296880000000  0.4739700000000  0.4615210000000 1.0
C      1  0.5057120000000  0.5424570000000  0.4627640000000 1.0
C      1  0.5059900000000  0.5714740000000  0.5010170000000 1.0
C      1  0.4447480000000  0.4609230000000  0.5099140000000 1.0
C      1  0.5505650000000  0.4773100000000  0.5072420000000 1.0
C      1  0.4439190000000  0.5287910000000  0.6020310000000 1.0
C      1  0.5004510000000  0.4342300000000  0.6112800000000 1.0
C      1  0.5518200000000  0.5263330000000  0.6026420000000 1.0
C      1  0.4894570000000  0.5324260000000  0.5602800000000 1.0
C      1  0.4811630000000  0.4694650000000  0.5733160000000 1.0
C      1  0.5362820000000  0.4893780000000  0.5655330000000 1.0
C      1  0.5679810000000  0.3962720000000  0.4304830000000 1.0
C      1  0.5623220000000  0.6031150000000  0.4001870000000 1.0
C      1  0.3771280000000  0.5031840000000  0.4047160000000 1.0
C      1  0.6069620000000  0.5467740000000  0.5582590000000 1.0
C      1  0.4016430000000  0.5706230000000  0.5603120000000 1.0
C      1  0.4891240000000  0.3786590000000  0.5576570000000 1.0
C      1  0.4613890000000  0.4268870000000  0.4212430000000 1.0
C      1  0.5837530000000  0.5072970000000  0.4206700000000 1.0
C      1  0.4536280000000  0.5734410000000  0.4231530000000 1.0
C      1  0.5832560000000  0.5318830000000  0.4356570000000 1.0
C      1  0.4280390000000  0.5722800000000  0.4380280000000 1.0
C      1  0.4825520000000  0.4113850000000  0.4347310000000 1.0
C      1  0.4036130000000  0.5638180000000  0.5111230000000 1.0
C      1  0.4947820000000  0.3907540000000  0.5097500000000 1.0
C      1  0.5957720000000  0.5490100000000  0.5099910000000 1.0
C      1  0.5219940000000  0.6031360000000  0.4264770000000 1.0
C      1  0.4000950000000  0.4689210000000  0.4298260000000 1.0
C      1  0.5813770000000  0.4404150000000  0.4473950000000 1.0
C      1  0.4660670000000  0.4525630000000  0.4040400000000 1.0
C      1  0.5550270000000  0.4943470000000  0.4055160000000 1.0
C      1  0.4720260000000  0.5543920000000  0.4056550000000 1.0
C      1  0.4332090000000  0.4280710000000  0.4310500000000 1.0
C      1  0.5977140000000  0.4842350000000  0.4309410000000 1.0
C      1  0.4707410000000  0.5969400000000  0.4303590000000 1.0
C      1  0.4114080000000  0.5668000000000  0.4596400000000 1.0
C      1  0.4875520000000  0.3923700000000  0.4576400000000 1.0
C      1  0.5972700000000  0.5446340000000  0.4580250000000 1.0
C      1  0.5502910000000  0.5425510000000  0.5422830000000 1.0
C      1  0.4338440000000  0.5263090000000  0.5407810000000 1.0
C      1  0.5150930000000  0.4258140000000  0.5512220000000 1.0
C      1  0.4451350000000  0.5450840000000  0.5232260000000 1.0
C      1  0.4968710000000  0.4337010000000  0.5312270000000 1.0
C      1  0.5574590000000  0.5232340000000  0.5233170000000 1.0
C      1  0.5770400000000  0.4798660000000  0.6434140000000 1.0
C      1  0.4793210000000  0.5659240000000  0.6422940000000 1.0
C      1  0.4465060000000  0.4493360000000  0.6440900000000 1.0
C      1  0.6020180000000  0.5188740000000  0.5615740000000 1.0
C      1  0.4282580000000  0.5804910000000  0.5641570000000 1.0
C      1  0.4681620000000  0.3974580000000  0.5636390000000 1.0
C      1  0.4200080000000  0.4513360000000  0.4199400000000 1.0
C      1  0.5816910000000  0.4606490000000  0.4275960000000 1.0
C      1  0.4964100000000  0.5948940000000  0.4178220000000 1.0
C      1  0.4104690000000  0.4327840000000  0.5284940000000 1.0
C      1  0.6041910000000  0.4543040000000  0.5219940000000 1.0
C      1  0.4860530000000  0.6144060000000  0.5272360000000 1.0
C      1  0.4387350000000  0.4956870000000  0.3980390000000 1.0
C      1  0.5405060000000  0.4444090000000  0.4040330000000 1.0
C      1  0.5233410000000  0.5541580000000  0.3982410000000 1.0
C      1  0.4064300000000  0.4202680000000  0.5033560000000 1.0
C      1  0.6179650000000  0.4597280000000  0.4979010000000 1.0
C      1  0.4778420000000  0.6244810000000  0.5022140000000 1.0
C      1  0.5281770000000  0.4266100000000  0.4231150000000 1.0
C      1  0.5444660000000  0.5598470000000  0.4207640000000 1.0
C      1  0.4242600000000  0.5109140000000  0.4210330000000 1.0
C      1  0.3776250000000  0.4773450000000  0.4141150000000 1.0
C      1  0.5863810000000  0.4135920000000  0.4400780000000 1.0
C      1  0.5404700000000  0.6168820000000  0.4094950000000 1.0
C      1  0.4048180000000  0.5057370000000  0.4656090000000 1.0
C      1  0.5454020000000  0.4247540000000  0.4762260000000 1.0
C      1  0.5509500000000  0.5831870000000  0.4634590000000 1.0
C      1  0.4698380000000  0.4373380000000  0.4742610000000 1.0
C      1  0.5654210000000  0.5009450000000  0.4696690000000 1.0
C      1  0.4657880000000  0.5543080000000  0.4808370000000 1.0
C      1  0.5667650000000  0.6033440000000  0.5267020000000 1.0
C      1  0.3760140000000  0.5079670000000  0.5263690000000 1.0
C      1  0.5569750000000  0.3865170000000  0.5220010000000 1.0
C      1  0.5518380000000  0.3823820000000  0.4943440000000 1.0
C      1  0.5730560000000  0.6032790000000  0.4992580000000 1.0
C      1  0.3734300000000  0.5138300000000  0.4989200000000 1.0
C      1  0.5068000000000  0.5650130000000  0.5272030000000 1.0
C      1  0.4500180000000  0.4713880000000  0.5341190000000 1.0
C      1  0.5515850000000  0.4605270000000  0.5297270000000 1.0
C      1  0.4667440000000  0.5411260000000  0.5064800000000 1.0
C      1  0.4978650000000  0.4599350000000  0.5219860000000 1.0
C      1  0.5397310000000  0.5035860000000  0.5141130000000 1.0
C      1  0.3920880000000  0.5252230000000  0.4811660000000 1.0
C      1  0.5335820000000  0.3993600000000  0.4807630000000 1.0
C      1  0.5730430000000  0.5823070000000  0.4805320000000 1.0
C      1  0.4817890000000  0.5266120000000  0.3977030000000 1.0
C      1  0.4833600000000  0.4751740000000  0.3954070000000 1.0
C      1  0.5281290000000  0.5015390000000  0.3954060000000 1.0
C      1  0.5857000000000  0.5224520000000  0.5167860000000 1.0
C      1  0.4310010000000  0.5697910000000  0.5191060000000 1.0
C      1  0.4793660000000  0.4130570000000  0.5206790000000 1.0
C      1  0.4118440000000  0.4138870000000  0.4779560000000 1.0
C      1  0.6231600000000  0.4724660000000  0.4749620000000 1.0
C      1  0.4700860000000  0.6233180000000  0.4767510000000 1.0
C      1  0.5384050000000  0.4375810000000  0.3773970000000 1.0
C      1  0.5345380000000  0.5609780000000  0.3707550000000 1.0
C      1  0.4259300000000  0.5014270000000  0.3711610000000 1.0
C      1  0.5239700000000  0.4150140000000  0.5739620000000 1.0
C      1  0.5543350000000  0.5558640000000  0.5650420000000 1.0
C      1  0.4198680000000  0.5186720000000  0.5623250000000 1.0
C      1  0.4613210000000  0.4197060000000  0.5829900000000 1.0
C      1  0.5871420000000  0.5001650000000  0.5796620000000 1.0
C      1  0.4526840000000  0.5720570000000  0.5791640000000 1.0
C      1  0.4783420000000  0.5141500000000  0.5764150000000 1.0
C      1  0.5008020000000  0.4776960000000  0.5922560000000 1.0
C      1  0.5182030000000  0.4981500000000  0.5850100000000 1.0
C      1  0.4930390000000  0.5627380000000  0.4773340000000 1.0
C      1  0.4524900000000  0.4574170000000  0.4831500000000 1.0
C      1  0.5556650000000  0.4735030000000  0.4769400000000 1.0
C      1  0.5074670000000  0.5459120000000  0.6086770000000 1.0
C      1  0.4490820000000  0.4806780000000  0.6074730000000 1.0
C      1  0.5413390000000  0.4615650000000  0.6168820000000 1.0
C      1  0.3841390000000  0.4815160000000  0.5338920000000 1.0
C      1  0.5766970000000  0.4062960000000  0.5285700000000 1.0
C      1  0.5407030000000  0.6118100000000  0.5346340000000 1.0
C      1  0.5047670000000  0.4301440000000  0.4391170000000 1.0
C      1  0.5550130000000  0.5380690000000  0.4389370000000 1.0
C      1  0.4411740000000  0.5286360000000  0.4384270000000 1.0
C      1  0.5420920000000  0.4017480000000  0.4251090000000 1.0
C      1  0.5663200000000  0.5764150000000  0.4051390000000 1.0
C      1  0.3980060000000  0.5208700000000  0.4080370000000 1.0
C      1  0.5063970000000  0.3774120000000  0.5341080000000 1.0
C      1  0.5999680000000  0.5637100000000  0.5357030000000 1.0
C      1  0.3897470000000  0.5575650000000  0.5370960000000 1.0
C      1  0.5234070000000  0.5258770000000  0.4765750000000 1.0
C      1  0.4646300000000  0.5005320000000  0.4909910000000 1.0
C      1  0.5097500000000  0.4622460000000  0.4766890000000 1.0
C      1  0.4937360000000  0.5006240000000  0.4393670000000 1.0
END
