TITL C-3201372-1405-1158 -7.12587747353816e-07 125000 -948.369973544809 0 0 153 (C1) n - 1
REM
REM in /home/nfs/bkarasulu/CARBON/AIRSS/Generating-Clusters/LCBOP/Higher-Symm/SD-CG/FIRE-CG
REM
REM
REM
REM
REM
REM ./C.cell (b20cbc046b6831c77cfcea5457e17084)
REM AIRSS Version 0.9.1 bugfix July 2018 build 013d7b7c2542+ Fri, 06 Jul 2018 19:26:36 +0100
REM compiler GCC version 9.2.1 20190827 (Red Hat 9.2.1-1)
REM options -cpp -mtune=generic -march=x86-64 -g -O0 -fpre-include=/usr/include/finclude/math-vector-fortran.h
REM seed 637239584 1889991360 598354952 1254864735 1485596778 6766940 20014514 -95381658 2138346717 -681044643 -171449396 280811610 70108244 -2140839233 1808332887 -1772322045 -2017364290 1296402538 1059477072 555827676 -1172196087 -1941338250 1799108040 116800540 1727723844 -1118516145 -594975736 -1784556939 1208144631 -494004154 -422508565 2052248837 -1640616129
REM
CELL 1.54180   50.00000   50.00000   50.00000   90.00000   90.00000   90.00000
LATT -1
SFAC C  
C      1  0.5377940000000  0.5615360000000  0.5763310000000 1.0
C      1  0.5133500000000  0.4610810000000  0.5501400000000 1.0
C      1  0.4479560000000  0.5671690000000  0.4378000000000 1.0
C      1  0.5498600000000  0.5586870000000  0.4007770000000 1.0
C      1  0.5058880000000  0.4872070000000  0.5557340000000 1.0
C      1  0.5387930000000  0.5871120000000  0.4402450000000 1.0
C      1  0.5909250000000  0.4824430000000  0.5690770000000 1.0
C      1  0.3958240000000  0.5274090000000  0.4886300000000 1.0
C      1  0.4997000000000  0.4389210000000  0.5092530000000 1.0
C      1  0.5164490000000  0.5245900000000  0.3825080000000 1.0
C      1  0.6063710000000  0.5395760000000  0.5041110000000 1.0
C      1  0.5993370000000  0.4761090000000  0.5418320000000 1.0
C      1  0.5841270000000  0.5495260000000  0.5201030000000 1.0
C      1  0.4354720000000  0.5209160000000  0.5219470000000 1.0
C      1  0.4183760000000  0.5008070000000  0.4504630000000 1.0
C      1  0.3892270000000  0.4996890000000  0.4881630000000 1.0
C      1  0.5004280000000  0.4788510000000  0.4220700000000 1.0
C      1  0.4754120000000  0.5856350000000  0.5189640000000 1.0
C      1  0.4997630000000  0.3958440000000  0.4752150000000 1.0
C      1  0.6174650000000  0.4914950000000  0.4870210000000 1.0
C      1  0.5946150000000  0.5334920000000  0.4181270000000 1.0
C      1  0.4671420000000  0.4244850000000  0.4136070000000 1.0
C      1  0.4628280000000  0.5136190000000  0.5191870000000 1.0
C      1  0.4404220000000  0.5270180000000  0.4146230000000 1.0
C      1  0.5752820000000  0.4405750000000  0.4494050000000 1.0
C      1  0.5049320000000  0.5891870000000  0.5117320000000 1.0
C      1  0.5596400000000  0.4913920000000  0.3997050000000 1.0
C      1  0.5233350000000  0.4801350000000  0.5093850000000 1.0
C      1  0.4861600000000  0.3937540000000  0.5011870000000 1.0
C      1  0.5309500000000  0.5422930000000  0.4514300000000 1.0
C      1  0.5290460000000  0.6045330000000  0.5077410000000 1.0
C      1  0.4916710000000  0.5714590000000  0.5905280000000 1.0
C      1  0.5277030000000  0.4834740000000  0.6071190000000 1.0
C      1  0.6059280000000  0.5107130000000  0.4273630000000 1.0
C      1  0.4479860000000  0.4853590000000  0.5985380000000 1.0
C      1  0.5472660000000  0.4917680000000  0.5175510000000 1.0
C      1  0.5129230000000  0.4591320000000  0.6010250000000 1.0
C      1  0.5689980000000  0.5706800000000  0.5071960000000 1.0
C      1  0.4399390000000  0.4074470000000  0.5097450000000 1.0
C      1  0.3884930000000  0.4381570000000  0.5271400000000 1.0
C      1  0.5478380000000  0.5310550000000  0.4916060000000 1.0
C      1  0.5308070000000  0.5766960000000  0.4143680000000 1.0
C      1  0.4594060000000  0.5244530000000  0.4622060000000 1.0
C      1  0.4554870000000  0.5023790000000  0.4201200000000 1.0
C      1  0.4287870000000  0.4322050000000  0.5515140000000 1.0
C      1  0.4849290000000  0.5302580000000  0.5299900000000 1.0
C      1  0.4677130000000  0.4230450000000  0.4422700000000 1.0
C      1  0.4247330000000  0.4271040000000  0.4644190000000 1.0
C      1  0.5797450000000  0.5220940000000  0.5429220000000 1.0
C      1  0.4384650000000  0.5669280000000  0.5506020000000 1.0
C      1  0.5467250000000  0.5368650000000  0.5876580000000 1.0
C      1  0.5243950000000  0.5427570000000  0.5020740000000 1.0
C      1  0.4507180000000  0.6204660000000  0.4432970000000 1.0
C      1  0.4069090000000  0.4996220000000  0.5551990000000 1.0
C      1  0.5656980000000  0.5687960000000  0.4781630000000 1.0
C      1  0.5255460000000  0.4078080000000  0.4736560000000 1.0
C      1  0.5364570000000  0.4460050000000  0.4130490000000 1.0
C      1  0.4382340000000  0.5479810000000  0.4594910000000 1.0
C      1  0.6080720000000  0.4874370000000  0.4411390000000 1.0
C      1  0.4841530000000  0.5382110000000  0.4636830000000 1.0
C      1  0.4357660000000  0.5356360000000  0.5930610000000 1.0
C      1  0.4914620000000  0.4142760000000  0.5197160000000 1.0
C      1  0.4000250000000  0.4865990000000  0.4667820000000 1.0
C      1  0.5664460000000  0.5167030000000  0.5937990000000 1.0
C      1  0.3955990000000  0.4271430000000  0.5037580000000 1.0
C      1  0.4183080000000  0.5803810000000  0.5051550000000 1.0
C      1  0.4482220000000  0.5947810000000  0.4396860000000 1.0
C      1  0.4020570000000  0.4735220000000  0.5571210000000 1.0
C      1  0.4628980000000  0.5703550000000  0.4959190000000 1.0
C      1  0.4416870000000  0.4175900000000  0.4031780000000 1.0
C      1  0.5243560000000  0.4320530000000  0.4595340000000 1.0
C      1  0.5532610000000  0.5838200000000  0.5743150000000 1.0
C      1  0.4528520000000  0.5513020000000  0.6090620000000 1.0
C      1  0.6019010000000  0.5032650000000  0.5302310000000 1.0
C      1  0.5069880000000  0.5238180000000  0.5128960000000 1.0
C      1  0.4811050000000  0.5522270000000  0.6091440000000 1.0
C      1  0.5878880000000  0.4611840000000  0.5196380000000 1.0
C      1  0.5473390000000  0.5650890000000  0.4565850000000 1.0
C      1  0.5757560000000  0.5510980000000  0.4100650000000 1.0
C      1  0.5489680000000  0.5093920000000  0.5395250000000 1.0
C      1  0.5084480000000  0.5263890000000  0.4567140000000 1.0
C      1  0.4574430000000  0.3885000000000  0.4972360000000 1.0
C      1  0.5603120000000  0.5152980000000  0.4738340000000 1.0
C      1  0.5310460000000  0.6168820000000  0.4818190000000 1.0
C      1  0.4759960000000  0.4159270000000  0.5437000000000 1.0
C      1  0.5123550000000  0.5089030000000  0.6050780000000 1.0
C      1  0.5564970000000  0.4957150000000  0.4252830000000 1.0
C      1  0.4831400000000  0.4998360000000  0.4115280000000 1.0
C      1  0.4312280000000  0.5424890000000  0.5651490000000 1.0
C      1  0.4949050000000  0.5279630000000  0.6169210000000 1.0
C      1  0.4210940000000  0.5344380000000  0.5014370000000 1.0
C      1  0.4891320000000  0.4367070000000  0.4011090000000 1.0
C      1  0.4102180000000  0.4166890000000  0.4422260000000 1.0
C      1  0.5543860000000  0.4215980000000  0.5384480000000 1.0
C      1  0.4788060000000  0.4907110000000  0.5597590000000 1.0
C      1  0.4935610000000  0.5236500000000  0.3988470000000 1.0
C      1  0.4202550000000  0.4201520000000  0.4920810000000 1.0
C      1  0.5729170000000  0.4687510000000  0.5871320000000 1.0
C      1  0.5095620000000  0.4549580000000  0.4083250000000 1.0
C      1  0.4851580000000  0.5603070000000  0.4805610000000 1.0
C      1  0.4342860000000  0.5597130000000  0.4891620000000 1.0
C      1  0.5165420000000  0.4404030000000  0.5714090000000 1.0
C      1  0.4052010000000  0.4473860000000  0.5478840000000 1.0
C      1  0.5378560000000  0.5408770000000  0.3821720000000 1.0
C      1  0.5585930000000  0.4411670000000  0.4280440000000 1.0
C      1  0.4532180000000  0.4687810000000  0.4629200000000 1.0
C      1  0.4557890000000  0.5511230000000  0.4150890000000 1.0
C      1  0.5065870000000  0.4778870000000  0.4501380000000 1.0
C      1  0.4328760000000  0.5088520000000  0.6028930000000 1.0
C      1  0.5038420000000  0.4983920000000  0.4967920000000 1.0
C      1  0.4487180000000  0.4958180000000  0.4497570000000 1.0
C      1  0.5094830000000  0.5656110000000  0.4945670000000 1.0
C      1  0.5600370000000  0.5016200000000  0.4509820000000 1.0
C      1  0.4475930000000  0.4171010000000  0.5368770000000 1.0
C      1  0.4876270000000  0.4572140000000  0.6137080000000 1.0
C      1  0.5472150000000  0.4059870000000  0.4919480000000 1.0
C      1  0.5648110000000  0.4424450000000  0.5819070000000 1.0
C      1  0.4566170000000  0.4831400000000  0.5719340000000 1.0
C      1  0.4891800000000  0.5512540000000  0.5488720000000 1.0
C      1  0.5452990000000  0.4304520000000  0.5649300000000 1.0
C      1  0.4679050000000  0.4695110000000  0.4871480000000 1.0
C      1  0.5846300000000  0.4393300000000  0.5007030000000 1.0
C      1  0.4484860000000  0.4410780000000  0.4556310000000 1.0
C      1  0.4234730000000  0.5208730000000  0.5478310000000 1.0
C      1  0.5531140000000  0.5919950000000  0.5178810000000 1.0
C      1  0.5065700000000  0.4529960000000  0.4635020000000 1.0
C      1  0.4633290000000  0.4690480000000  0.6158840000000 1.0
C      1  0.4558870000000  0.3838490000000  0.4688190000000 1.0
C      1  0.5029100000000  0.5707330000000  0.4095700000000 1.0
C      1  0.4923060000000  0.4219840000000  0.5667030000000 1.0
C      1  0.5905450000000  0.4495530000000  0.4722180000000 1.0
C      1  0.4770510000000  0.3991610000000  0.4555780000000 1.0
C      1  0.4204140000000  0.5801280000000  0.5325360000000 1.0
C      1  0.4678790000000  0.5752180000000  0.5473000000000 1.0
C      1  0.6129500000000  0.5118390000000  0.5057750000000 1.0
C      1  0.5698990000000  0.4801880000000  0.5079630000000 1.0
C      1  0.5636150000000  0.4204210000000  0.5104030000000 1.0
C      1  0.4166680000000  0.5310300000000  0.4439330000000 1.0
C      1  0.5092950000000  0.5002530000000  0.4670070000000 1.0
C      1  0.6068090000000  0.4744550000000  0.4668140000000 1.0
C      1  0.4832590000000  0.5499690000000  0.4065720000000 1.0
C      1  0.4745320000000  0.5886700000000  0.5742590000000 1.0
C      1  0.5260860000000  0.5068890000000  0.5575160000000 1.0
C      1  0.5334000000000  0.6104100000000  0.4554860000000 1.0
C      1  0.5564420000000  0.4884680000000  0.6015610000000 1.0
C      1  0.5852660000000  0.5122980000000  0.5724020000000 1.0
C      1  0.5157340000000  0.4567050000000  0.5229210000000 1.0
C      1  0.3928190000000  0.5385920000000  0.4614960000000 1.0
C      1  0.4890980000000  0.4503570000000  0.4860310000000 1.0
C      1  0.5095430000000  0.5605360000000  0.5696870000000 1.0
C      1  0.4182790000000  0.4138470000000  0.4164400000000 1.0
C      1  0.4740040000000  0.4927620000000  0.5021180000000 1.0
C      1  0.5244930000000  0.5200920000000  0.5818260000000 1.0
END
