TITL C-3201379-3821-1352 0.000284572974177018 125000 -68.5507049599291 0 0 13 (Cs) n - 1
REM
REM in /home/nfs/bkarasulu/CARBON/AIRSS/Generating-Clusters/LCBOP/Higher-Symm/SD-CG/FIRE-CG
REM
REM
REM
REM
REM
REM ./C.cell (b20cbc046b6831c77cfcea5457e17084)
REM AIRSS Version 0.9.1 bugfix July 2018 build 013d7b7c2542+ Fri, 06 Jul 2018 19:26:36 +0100
REM compiler GCC version 9.2.1 20190827 (Red Hat 9.2.1-1)
REM options -cpp -mtune=generic -march=x86-64 -g -O0 -fpre-include=/usr/include/finclude/math-vector-fortran.h
REM seed -200462350 -499056225 -144195739 821509790 -1166398369 638948872 674940581 876954504 -447242273 2063276241 -690129845 903674297 1471491189 1323892197 1123573622 -1121887872 1426065079 -1658705721 -400098236 477586350 -556356859 1011097169 137706000 619108500 1367472269 -1874402197 1142869662 -1008284901 -1761499918 2137481073 1756266329 1455751486 1992134982
REM
CELL 1.54180   50.00000   50.00000   50.00000   90.00000   90.00000   90.00000
LATT -1
SFAC C  
C      1  0.5180230000000  0.4912720000000  0.5100650000000 1.0
C      1  0.4701660000000  0.4922480000000  0.5277070000000 1.0
C      1  0.5355760000000  0.5513520000000  0.4587540000000 1.0
C      1  0.4810820000000  0.4600850000000  0.4937820000000 1.0
C      1  0.5368970000000  0.4802960000000  0.5265440000000 1.0
C      1  0.4717570000000  0.5122820000000  0.5458750000000 1.0
C      1  0.5408130000000  0.5707050000000  0.4420910000000 1.0
C      1  0.4944500000000  0.4454140000000  0.4753430000000 1.0
C      1  0.4533130000000  0.4578660000000  0.5013780000000 1.0
C      1  0.5302490000000  0.5316750000000  0.4756950000000 1.0
C      1  0.4470340000000  0.4763680000000  0.5208930000000 1.0
C      1  0.5247930000000  0.5120120000000  0.4925810000000 1.0
C      1  0.4915310000000  0.4818150000000  0.5105080000000 1.0
END
