TITL C-3201378-2706-295 -1.58782716789533e-06 125000 -387.795189733125 0 0 71 (C1) n - 1
REM
REM in /home/nfs/bkarasulu/CARBON/AIRSS/Generating-Clusters/LCBOP/Higher-Symm/SD-CG/FIRE-CG
REM
REM
REM
REM
REM
REM ./C.cell (b20cbc046b6831c77cfcea5457e17084)
REM AIRSS Version 0.9.1 bugfix July 2018 build 013d7b7c2542+ Fri, 06 Jul 2018 19:26:36 +0100
REM compiler GCC version 9.2.1 20190827 (Red Hat 9.2.1-1)
REM options -cpp -mtune=generic -march=x86-64 -g -O0 -fpre-include=/usr/include/finclude/math-vector-fortran.h
REM seed -1125797835 917370391 701035128 -1671516532 -1459315217 53271430 -488312998 -1937078514 -2026044208 523603895 -741886816 -1191627130 -1558378812 1235643579 -118730863 -885282207 -1639139867 -2139650491 1870225690 522383150 -1349733051 -1124264976 -1242403512 -1217595321 44514536 859203780 1664107714 598673005 -2049036927 -952915933 -1183734525 1704296126 -1042561882
REM
CELL 1.54180   50.00000   50.00000   50.00000   90.00000   90.00000   90.00000
LATT -1
SFAC C  
C      1  0.5509620000000  0.5137640000000  0.5514710000000 1.0
C      1  0.5548210000000  0.5135000000000  0.4486380000000 1.0
C      1  0.4494590000000  0.5133750000000  0.4487750000000 1.0
C      1  0.4446770000000  0.5137170000000  0.5527370000000 1.0
C      1  0.5508900000000  0.4849450000000  0.5512220000000 1.0
C      1  0.5551880000000  0.4859180000000  0.4486410000000 1.0
C      1  0.4499020000000  0.4844640000000  0.4497260000000 1.0
C      1  0.4447090000000  0.4861860000000  0.5522740000000 1.0
C      1  0.4755360000000  0.4728770000000  0.4405770000000 1.0
C      1  0.4366630000000  0.4747920000000  0.5264060000000 1.0
C      1  0.5253970000000  0.4732060000000  0.5604490000000 1.0
C      1  0.5640240000000  0.4745440000000  0.4744820000000 1.0
C      1  0.4749400000000  0.5248300000000  0.4390610000000 1.0
C      1  0.4376580000000  0.5264340000000  0.5263610000000 1.0
C      1  0.5252570000000  0.5252180000000  0.5603660000000 1.0
C      1  0.5636350000000  0.5250800000000  0.4745400000000 1.0
C      1  0.5338070000000  0.5574800000000  0.4379070000000 1.0
C      1  0.4405320000000  0.5571030000000  0.4663690000000 1.0
C      1  0.4674630000000  0.5562400000000  0.5656170000000 1.0
C      1  0.5625100000000  0.5579420000000  0.5341540000000 1.0
C      1  0.5339020000000  0.4416680000000  0.4383230000000 1.0
C      1  0.4400470000000  0.4411180000000  0.4671650000000 1.0
C      1  0.4658390000000  0.4417250000000  0.5634970000000 1.0
C      1  0.5609800000000  0.4413600000000  0.5344480000000 1.0
C      1  0.4761610000000  0.4701500000000  0.5628180000000 1.0
C      1  0.5616800000000  0.4705170000000  0.5252450000000 1.0
C      1  0.5243820000000  0.4704390000000  0.4387470000000 1.0
C      1  0.4394270000000  0.4703520000000  0.4760410000000 1.0
C      1  0.4761960000000  0.5275610000000  0.5638120000000 1.0
C      1  0.5621980000000  0.5286770000000  0.5252800000000 1.0
C      1  0.5244660000000  0.5284670000000  0.4385850000000 1.0
C      1  0.4395930000000  0.5279200000000  0.4752080000000 1.0
C      1  0.5415660000000  0.4340620000000  0.4646400000000 1.0
C      1  0.4669010000000  0.4321910000000  0.4641860000000 1.0
C      1  0.4580650000000  0.4339520000000  0.5371770000000 1.0
C      1  0.5341490000000  0.4323220000000  0.5373640000000 1.0
C      1  0.5410260000000  0.5655170000000  0.4643230000000 1.0
C      1  0.4672440000000  0.5659270000000  0.4629630000000 1.0
C      1  0.4601300000000  0.5660120000000  0.5401950000000 1.0
C      1  0.5358910000000  0.5676590000000  0.5363880000000 1.0
C      1  0.5767410000000  0.4848380000000  0.5007740000000 1.0
C      1  0.4997390000000  0.4841850000000  0.4267470000000 1.0
C      1  0.4245260000000  0.4852750000000  0.5002950000000 1.0
C      1  0.5013330000000  0.4840160000000  0.5745010000000 1.0
C      1  0.5766710000000  0.5145640000000  0.5007020000000 1.0
C      1  0.4996150000000  0.5139880000000  0.4265850000000 1.0
C      1  0.4247510000000  0.5150970000000  0.5000680000000 1.0
C      1  0.5015270000000  0.5137780000000  0.5751350000000 1.0
C      1  0.4873220000000  0.4534700000000  0.4742490000000 1.0
C      1  0.4621190000000  0.4582540000000  0.5186440000000 1.0
C      1  0.5136010000000  0.4536610000000  0.5272390000000 1.0
C      1  0.5383000000000  0.4586420000000  0.4828310000000 1.0
C      1  0.4875900000000  0.5448310000000  0.4711840000000 1.0
C      1  0.4637720000000  0.5440150000000  0.5186530000000 1.0
C      1  0.5161030000000  0.5457800000000  0.5292930000000 1.0
C      1  0.5377670000000  0.5412030000000  0.4828760000000 1.0
C      1  0.4864650000000  0.5273850000000  0.5353590000000 1.0
C      1  0.5342450000000  0.5296670000000  0.5107810000000 1.0
C      1  0.5129150000000  0.5288540000000  0.4680580000000 1.0
C      1  0.4670780000000  0.5270180000000  0.4886790000000 1.0
C      1  0.4870460000000  0.4698400000000  0.5337310000000 1.0
C      1  0.5342130000000  0.4703030000000  0.5106550000000 1.0
C      1  0.5130870000000  0.4706640000000  0.4680800000000 1.0
C      1  0.4672310000000  0.4702490000000  0.4904580000000 1.0
C      1  0.4731650000000  0.4989480000000  0.4894680000000 1.0
C      1  0.5286770000000  0.4999640000000  0.5101360000000 1.0
C      1  0.5082680000000  0.4997270000000  0.4715640000000 1.0
C      1  0.4898770000000  0.4991390000000  0.5290880000000 1.0
C      1  0.5005840000000  0.4373680000000  0.5007310000000 1.0
C      1  0.4939040000000  0.5576510000000  0.5041690000000 1.0
C      1  0.5010060000000  0.4997790000000  0.5029070000000 1.0
END
