TITL C-3201379-3821-2075 -5.48884761178797e-07 125000 -634.796409120383 0 0 102 (C3) n - 1
REM
REM in /home/nfs/bkarasulu/CARBON/AIRSS/Generating-Clusters/LCBOP/Higher-Symm/SD-CG/FIRE-CG
REM
REM
REM
REM
REM
REM ./C.cell (b20cbc046b6831c77cfcea5457e17084)
REM AIRSS Version 0.9.1 bugfix July 2018 build 013d7b7c2542+ Fri, 06 Jul 2018 19:26:36 +0100
REM compiler GCC version 9.2.1 20190827 (Red Hat 9.2.1-1)
REM options -cpp -mtune=generic -march=x86-64 -g -O0 -fpre-include=/usr/include/finclude/math-vector-fortran.h
REM seed 1424133777 58106163 1796219596 762080756 1259187354 -1159837342 41013211 -1549913070 -633485813 -1803607163 997275291 172242093 1042940535 318152481 -195367141 1919168542 509764077 379421196 -1112183370 780409710 -1273478178 679494179 -1713890788 1014986877 548288153 -120297120 151714434 44523262 -1073194462 -287339799 1278710043 1042187519 1858005201
REM
CELL 1.54180   50.00000   50.00000   50.00000   90.00000   90.00000   90.00000
LATT -1
SFAC C  
C      1  0.5465680000000  0.5387260000000  0.5925400000000 1.0
C      1  0.5568450000000  0.5387550000000  0.4134050000000 1.0
C      1  0.3965710000000  0.5387200000000  0.4940730000000 1.0
C      1  0.4755720000000  0.5526320000000  0.4344580000000 1.0
C      1  0.4554350000000  0.5526120000000  0.5539320000000 1.0
C      1  0.5689710000000  0.5526340000000  0.5116340000000 1.0
C      1  0.5178850000000  0.4201100000000  0.4620420000000 1.0
C      1  0.4582120000000  0.4200960000000  0.5034820000000 1.0
C      1  0.5239360000000  0.4201000000000  0.5344400000000 1.0
C      1  0.4510030000000  0.5367130000000  0.4323520000000 1.0
C      1  0.4659010000000  0.5366930000000  0.5762610000000 1.0
C      1  0.5830810000000  0.5367220000000  0.4914040000000 1.0
C      1  0.5798310000000  0.4878460000000  0.4479110000000 1.0
C      1  0.4149780000000  0.4878210000000  0.4569080000000 1.0
C      1  0.5051960000000  0.4878130000000  0.5951760000000 1.0
C      1  0.4786610000000  0.4969940000000  0.4236070000000 1.0
C      1  0.4445130000000  0.4969690000000  0.5566770000000 1.0
C      1  0.5768280000000  0.4969930000000  0.5197150000000 1.0
C      1  0.4670260000000  0.4326600000000  0.4551310000000 1.0
C      1  0.4776520000000  0.4326470000000  0.5509840000000 1.0
C      1  0.5553500000000  0.4326660000000  0.4938550000000 1.0
C      1  0.4305100000000  0.5387960000000  0.4510080000000 1.0
C      1  0.4923030000000  0.5387840000000  0.5846800000000 1.0
C      1  0.5771700000000  0.5388150000000  0.4643300000000 1.0
C      1  0.5808270000000  0.4478420000000  0.4889100000000 1.0
C      1  0.4500000000000  0.4478320000000  0.4355410000000 1.0
C      1  0.4691950000000  0.4478130000000  0.5755260000000 1.0
C      1  0.5233960000000  0.5742480000000  0.5244880000000 1.0
C      1  0.5094840000000  0.5742550000000  0.4675020000000 1.0
C      1  0.4670890000000  0.5742430000000  0.5080440000000 1.0
C      1  0.5265880000000  0.5175940000000  0.4947530000000 1.0
C      1  0.4821560000000  0.5175900000000  0.4795990000000 1.0
C      1  0.4912480000000  0.5175840000000  0.5256550000000 1.0
C      1  0.4716020000000  0.5242500000000  0.5057510000000 1.0
C      1  0.5191710000000  0.5242540000000  0.5217210000000 1.0
C      1  0.5092170000000  0.5242600000000  0.4725390000000 1.0
C      1  0.4717610000000  0.4918060000000  0.4725520000000 1.0
C      1  0.4903520000000  0.4917990000000  0.5381790000000 1.0
C      1  0.5378910000000  0.4918130000000  0.4892660000000 1.0
C      1  0.5330010000000  0.4836400000000  0.5836640000000 1.0
C      1  0.5559600000000  0.4836670000000  0.4295860000000 1.0
C      1  0.4110450000000  0.4836380000000  0.4867420000000 1.0
C      1  0.5451290000000  0.4264560000000  0.4669340000000 1.0
C      1  0.4488250000000  0.4264410000000  0.4774420000000 1.0
C      1  0.5060770000000  0.4264370000000  0.5555900000000 1.0
C      1  0.4655540000000  0.4369950000000  0.5249780000000 1.0
C      1  0.5388760000000  0.4370060000000  0.5173360000000 1.0
C      1  0.4955970000000  0.4370090000000  0.4576580000000 1.0
C      1  0.5789520000000  0.5152720000000  0.5421560000000 1.0
C      1  0.4970270000000  0.5152800000000  0.4105500000000 1.0
C      1  0.4240150000000  0.5152490000000  0.5473020000000 1.0
C      1  0.4925280000000  0.4601880000000  0.5885650000000 1.0
C      1  0.5804490000000  0.4602200000000  0.4621850000000 1.0
C      1  0.4270400000000  0.4602000000000  0.4492330000000 1.0
C      1  0.4420580000000  0.5218470000000  0.5060840000000 1.0
C      1  0.5342330000000  0.5218540000000  0.5471400000000 1.0
C      1  0.5237000000000  0.5218680000000  0.4467860000000 1.0
C      1  0.5811920000000  0.5269150000000  0.4183300000000 1.0
C      1  0.3886660000000  0.5268800000000  0.4705230000000 1.0
C      1  0.5301300000000  0.5268790000000  0.6111590000000 1.0
C      1  0.4945930000000  0.5424470000000  0.4153910000000 1.0
C      1  0.4294160000000  0.5424180000000  0.5469920000000 1.0
C      1  0.5759740000000  0.5424390000000  0.5376360000000 1.0
C      1  0.4100920000000  0.5172070000000  0.4534140000000 1.0
C      1  0.5046040000000  0.5171980000000  0.6011570000000 1.0
C      1  0.5852970000000  0.5172320000000  0.4454360000000 1.0
C      1  0.4824340000000  0.5674600000000  0.4593740000000 1.0
C      1  0.4735770000000  0.5674480000000  0.5355330000000 1.0
C      1  0.5439610000000  0.5674620000000  0.5051240000000 1.0
C      1  0.5917470000000  0.5107260000000  0.4993980000000 1.0
C      1  0.4536010000000  0.5107190000000  0.4208470000000 1.0
C      1  0.4546470000000  0.5106950000000  0.5797610000000 1.0
C      1  0.5365860000000  0.5688610000000  0.4767760000000 1.0
C      1  0.4615720000000  0.5688500000000  0.4799350000000 1.0
C      1  0.5018140000000  0.5688460000000  0.5433200000000 1.0
C      1  0.5538660000000  0.5550980000000  0.4579910000000 1.0
C      1  0.4366670000000  0.5550800000000  0.4743610000000 1.0
C      1  0.5094440000000  0.5550760000000  0.5676730000000 1.0
C      1  0.6027010000000  0.4466030000000  0.5051550000000 1.0
C      1  0.4531320000000  0.4465960000000  0.4084750000000 1.0
C      1  0.4441900000000  0.4465680000000  0.5863460000000 1.0
C      1  0.4608160000000  0.4644250000000  0.5189860000000 1.0
C      1  0.5360460000000  0.4644350000000  0.5244380000000 1.0
C      1  0.5031530000000  0.4644410000000  0.4565600000000 1.0
C      1  0.5329480000000  0.4953910000000  0.5578620000000 1.0
C      1  0.5336370000000  0.4954080000000  0.4425350000000 1.0
C      1  0.4334170000000  0.4953860000000  0.4996010000000 1.0
C      1  0.5353630000000  0.5428760000000  0.5665690000000 1.0
C      1  0.5399540000000  0.5428960000000  0.4360950000000 1.0
C      1  0.4246650000000  0.5428710000000  0.4973560000000 1.0
C      1  0.4824440000000  0.4822640000000  0.4479660000000 1.0
C      1  0.4637210000000  0.4822480000000  0.5412190000000 1.0
C      1  0.5538420000000  0.4822650000000  0.5108070000000 1.0
C      1  0.5263810000000  0.4789260000000  0.4656760000000 1.0
C      1  0.4570910000000  0.4789120000000  0.4943130000000 1.0
C      1  0.5165360000000  0.4789130000000  0.5400010000000 1.0
C      1  0.4073430000000  0.4555470000000  0.4913010000000 1.0
C      1  0.5388100000000  0.4555510000000  0.5845880000000 1.0
C      1  0.5538650000000  0.4555770000000  0.4240910000000 1.0
C      1  0.5615970000000  0.4407510000000  0.4474290000000 1.0
C      1  0.4236940000000  0.4407280000000  0.4729340000000 1.0
C      1  0.5147340000000  0.4407240000000  0.5796090000000 1.0
END
