TITL C-3201376-6384-1493 -102.488307172067 125000 -876.319292432268 0 0 141 (C1) n - 1
REM
REM in /home/nfs/bkarasulu/CARBON/AIRSS/Generating-Clusters/LCBOP/Higher-Symm/SD-CG/FIRE-CG
REM
REM
REM
REM
REM
REM ./C.cell (b20cbc046b6831c77cfcea5457e17084)
REM AIRSS Version 0.9.1 bugfix July 2018 build 013d7b7c2542+ Fri, 06 Jul 2018 19:26:36 +0100
REM compiler GCC version 9.2.1 20190827 (Red Hat 9.2.1-1)
REM options -cpp -mtune=generic -march=x86-64 -g -O0 -fpre-include=/usr/include/finclude/math-vector-fortran.h
REM seed -1412938986 1404784213 1084778524 1650210309 858074228 1007523590 -521632212 -871401338 -1250431381 -1527532774 891709437 -503157165 -603242331 -1285466775 1895754536 1269802075 -960357778 -1902360301 -1842101981 1125712428 1862169612 821312124 129829935 -1987251744 -244530735 505020804 -1108102549 843025499 -1057588959 -2131826662 1622421605 1877426908 1849176693
REM
CELL 1.54180   50.00000   50.00000   50.00000   90.00000   90.00000   90.00000
LATT -1
SFAC C  
C      1  0.5857660000000  0.4471770000000  0.5195040000000 1.0
C      1  0.4152010000000  0.4510570000000  0.4937290000000 1.0
C      1  0.5852350000000  0.5530370000000  0.5206330000000 1.0
C      1  0.4204860000000  0.5481340000000  0.4799110000000 1.0
C      1  0.4422630000000  0.3945880000000  0.4826700000000 1.0
C      1  0.5696640000000  0.4227380000000  0.5174520000000 1.0
C      1  0.4347930000000  0.5741990000000  0.4823360000000 1.0
C      1  0.5677000000000  0.5771310000000  0.5174350000000 1.0
C      1  0.4985970000000  0.4101930000000  0.5439310000000 1.0
C      1  0.5085910000000  0.4055180000000  0.4535830000000 1.0
C      1  0.4961710000000  0.5913190000000  0.5465640000000 1.0
C      1  0.5064260000000  0.5926330000000  0.4517890000000 1.0
C      1  0.4984120000000  0.4641240000000  0.4142490000000 1.0
C      1  0.5035740000000  0.4617040000000  0.5923090000000 1.0
C      1  0.4981650000000  0.5362980000000  0.4070890000000 1.0
C      1  0.5055980000000  0.5352630000000  0.5910950000000 1.0
C      1  0.6106540000000  0.4870680000000  0.5043170000000 1.0
C      1  0.3874910000000  0.4884810000000  0.5062770000000 1.0
C      1  0.6114250000000  0.5140360000000  0.5047770000000 1.0
C      1  0.3899320000000  0.5148020000000  0.5006290000000 1.0
C      1  0.5532410000000  0.5136010000000  0.5973320000000 1.0
C      1  0.4489860000000  0.5145360000000  0.4022740000000 1.0
C      1  0.5434930000000  0.4884870000000  0.6060940000000 1.0
C      1  0.4557680000000  0.4876140000000  0.4038700000000 1.0
C      1  0.3772360000000  0.5075280000000  0.3901710000000 1.0
C      1  0.6004390000000  0.4722480000000  0.5615670000000 1.0
C      1  0.4094290000000  0.5263440000000  0.4307290000000 1.0
C      1  0.5967310000000  0.5293570000000  0.5683530000000 1.0
C      1  0.5169100000000  0.5162560000000  0.4104170000000 1.0
C      1  0.4871780000000  0.5146150000000  0.5884320000000 1.0
C      1  0.5179190000000  0.4838520000000  0.4164810000000 1.0
C      1  0.4847660000000  0.4819120000000  0.5882270000000 1.0
C      1  0.4939460000000  0.4599380000000  0.5360280000000 1.0
C      1  0.4974060000000  0.4663640000000  0.4644800000000 1.0
C      1  0.5004640000000  0.5395350000000  0.5373080000000 1.0
C      1  0.5001770000000  0.5374920000000  0.4573060000000 1.0
C      1  0.4686550000000  0.4497910000000  0.4968070000000 1.0
C      1  0.5226060000000  0.4454530000000  0.5013250000000 1.0
C      1  0.4843060000000  0.5577450000000  0.4964610000000 1.0
C      1  0.5161810000000  0.5585610000000  0.4969830000000 1.0
C      1  0.4979980000000  0.4348310000000  0.5832870000000 1.0
C      1  0.5053720000000  0.4368020000000  0.4198150000000 1.0
C      1  0.4976440000000  0.5623270000000  0.5832280000000 1.0
C      1  0.5057030000000  0.5634880000000  0.4153010000000 1.0
C      1  0.4244320000000  0.4817770000000  0.5360820000000 1.0
C      1  0.5728180000000  0.4826610000000  0.4739260000000 1.0
C      1  0.4260570000000  0.5172560000000  0.5345300000000 1.0
C      1  0.5747360000000  0.5175640000000  0.4722290000000 1.0
C      1  0.4731240000000  0.5843760000000  0.5040850000000 1.0
C      1  0.5286330000000  0.5851810000000  0.4928550000000 1.0
C      1  0.4705300000000  0.4223030000000  0.5031490000000 1.0
C      1  0.5305580000000  0.4193780000000  0.4941140000000 1.0
C      1  0.5770260000000  0.4877030000000  0.5667430000000 1.0
C      1  0.4020870000000  0.5169730000000  0.3839930000000 1.0
C      1  0.5770200000000  0.5120610000000  0.5814090000000 1.0
C      1  0.4214210000000  0.5220150000000  0.4043110000000 1.0
C      1  0.4794350000000  0.4257410000000  0.5623980000000 1.0
C      1  0.5249070000000  0.4269080000000  0.4390640000000 1.0
C      1  0.4784740000000  0.5719090000000  0.5630000000000 1.0
C      1  0.5246930000000  0.5730360000000  0.4359980000000 1.0
C      1  0.5222670000000  0.4924380000000  0.4949610000000 1.0
C      1  0.4627240000000  0.4911610000000  0.5177610000000 1.0
C      1  0.5323700000000  0.5138660000000  0.4811840000000 1.0
C      1  0.4645710000000  0.5168430000000  0.5148470000000 1.0
C      1  0.6216590000000  0.5157550000000  0.5646030000000 1.0
C      1  0.3896680000000  0.5064220000000  0.4367310000000 1.0
C      1  0.6236140000000  0.4884650000000  0.5621380000000 1.0
C      1  0.3705060000000  0.5025310000000  0.4161510000000 1.0
C      1  0.4451520000000  0.4088390000000  0.5074860000000 1.0
C      1  0.5586350000000  0.4168560000000  0.4925050000000 1.0
C      1  0.4449340000000  0.5825240000000  0.5072760000000 1.0
C      1  0.5569150000000  0.5837850000000  0.4922090000000 1.0
C      1  0.5247650000000  0.5904200000000  0.5538220000000 1.0
C      1  0.4778140000000  0.5901830000000  0.4454850000000 1.0
C      1  0.5270110000000  0.4099940000000  0.5528090000000 1.0
C      1  0.4805710000000  0.4036200000000  0.4453660000000 1.0
C      1  0.5569300000000  0.4685650000000  0.4516180000000 1.0
C      1  0.4423950000000  0.4656800000000  0.5552950000000 1.0
C      1  0.5595010000000  0.5322960000000  0.4476620000000 1.0
C      1  0.4435090000000  0.5313280000000  0.5550230000000 1.0
C      1  0.4870100000000  0.6007220000000  0.5219960000000 1.0
C      1  0.5157530000000  0.6030160000000  0.4757690000000 1.0
C      1  0.4907170000000  0.4089980000000  0.5172690000000 1.0
C      1  0.5162780000000  0.4003870000000  0.4797110000000 1.0
C      1  0.4409460000000  0.4304250000000  0.4493670000000 1.0
C      1  0.5680210000000  0.4346660000000  0.5638970000000 1.0
C      1  0.4395260000000  0.5625790000000  0.4373430000000 1.0
C      1  0.5651520000000  0.5657150000000  0.5632490000000 1.0
C      1  0.4797900000000  0.4224100000000  0.4231430000000 1.0
C      1  0.5246640000000  0.4222790000000  0.5794630000000 1.0
C      1  0.4796330000000  0.5776000000000  0.4187690000000 1.0
C      1  0.5231450000000  0.5772400000000  0.5802760000000 1.0
C      1  0.4575550000000  0.4826730000000  0.5733570000000 1.0
C      1  0.5440890000000  0.4854930000000  0.4325370000000 1.0
C      1  0.4577490000000  0.5137560000000  0.5725900000000 1.0
C      1  0.5466240000000  0.5146060000000  0.4295090000000 1.0
C      1  0.4507070000000  0.5815680000000  0.4575060000000 1.0
C      1  0.5523960000000  0.5837320000000  0.5426060000000 1.0
C      1  0.4541420000000  0.4048700000000  0.4583760000000 1.0
C      1  0.5547560000000  0.4163590000000  0.5427550000000 1.0
C      1  0.4377660000000  0.5757250000000  0.5338700000000 1.0
C      1  0.5657450000000  0.5775220000000  0.4659310000000 1.0
C      1  0.4376590000000  0.4179270000000  0.5340870000000 1.0
C      1  0.5670250000000  0.4228140000000  0.4661390000000 1.0
C      1  0.5472230000000  0.4411180000000  0.5846230000000 1.0
C      1  0.4570660000000  0.4415930000000  0.4265610000000 1.0
C      1  0.5462010000000  0.5601250000000  0.5841540000000 1.0
C      1  0.4575920000000  0.5595900000000  0.4154010000000 1.0
C      1  0.4727710000000  0.4660130000000  0.5193210000000 1.0
C      1  0.5179200000000  0.4671100000000  0.4835130000000 1.0
C      1  0.4787210000000  0.5392980000000  0.5197620000000 1.0
C      1  0.5218870000000  0.5386560000000  0.4750530000000 1.0
C      1  0.4086620000000  0.4708310000000  0.5137370000000 1.0
C      1  0.5886400000000  0.4691980000000  0.4986500000000 1.0
C      1  0.4133470000000  0.5306000000000  0.5036600000000 1.0
C      1  0.5903960000000  0.5324830000000  0.4991100000000 1.0
C      1  0.4521400000000  0.5600930000000  0.5535950000000 1.0
C      1  0.5512200000000  0.5612780000000  0.4467360000000 1.0
C      1  0.4517110000000  0.4360300000000  0.5530410000000 1.0
C      1  0.5504880000000  0.4395270000000  0.4493040000000 1.0
C      1  0.4206360000000  0.5442030000000  0.4495640000000 1.0
C      1  0.5861800000000  0.5495500000000  0.5511360000000 1.0
C      1  0.4226530000000  0.4405910000000  0.4694390000000 1.0
C      1  0.5902010000000  0.4487430000000  0.5493240000000 1.0
C      1  0.5576820000000  0.4866020000000  0.5466080000000 1.0
C      1  0.4265360000000  0.4832530000000  0.4589430000000 1.0
C      1  0.5572930000000  0.5086080000000  0.5302800000000 1.0
C      1  0.4007400000000  0.4861420000000  0.4523190000000 1.0
C      1  0.5352490000000  0.5348770000000  0.5934550000000 1.0
C      1  0.4685230000000  0.5346530000000  0.4055450000000 1.0
C      1  0.5327500000000  0.4645110000000  0.5962790000000 1.0
C      1  0.4689470000000  0.4660180000000  0.4151080000000 1.0
C      1  0.5199280000000  0.4535400000000  0.5284230000000 1.0
C      1  0.4706220000000  0.4656070000000  0.4728330000000 1.0
C      1  0.5236610000000  0.5468630000000  0.5235550000000 1.0
C      1  0.4759260000000  0.5384550000000  0.4712780000000 1.0
C      1  0.4608530000000  0.5148870000000  0.4688400000000 1.0
C      1  0.5462350000000  0.5320660000000  0.5270030000000 1.0
C      1  0.4531150000000  0.4877000000000  0.4664510000000 1.0
C      1  0.5403820000000  0.4659240000000  0.5419480000000 1.0
C      1  0.5114720000000  0.4981080000000  0.5192680000000 1.0
END
