TITL C-3201372-1405-2027 -8.91509726560466e-07 125000 -450.892351599105 0 0 76 (C4h) n - 1
REM
REM in /home/nfs/bkarasulu/CARBON/AIRSS/Generating-Clusters/LCBOP/Higher-Symm/SD-CG/FIRE-CG
REM
REM
REM
REM
REM
REM ./C.cell (b20cbc046b6831c77cfcea5457e17084)
REM AIRSS Version 0.9.1 bugfix July 2018 build 013d7b7c2542+ Fri, 06 Jul 2018 19:26:36 +0100
REM compiler GCC version 9.2.1 20190827 (Red Hat 9.2.1-1)
REM options -cpp -mtune=generic -march=x86-64 -g -O0 -fpre-include=/usr/include/finclude/math-vector-fortran.h
REM seed -1072956021 -121685766 353854505 -149365742 -1599303443 114560464 1061448835 81148987 -1055301694 2078539271 745069356 -792312245 -1637592278 -1477179209 1270158628 2066613197 -67795069 -144523517 521364499 350533590 119806202 -2026255147 1854644216 -1895829595 -1471288536 2009622168 1034965892 1407279015 -2057511353 -2110687160 1426065572 -1823742265 567835059
REM
CELL 1.54180   50.00000   50.00000   50.00000   90.00000   90.00000   90.00000
LATT -1
SFAC C  
C      1  0.5115230000000  0.5210570000000  0.5658850000000 1.0
C      1  0.5194280000000  0.4885490000000  0.5651750000000 1.0
C      1  0.4893120000000  0.4802580000000  0.5649230000000 1.0
C      1  0.4799440000000  0.5100280000000  0.5653370000000 1.0
C      1  0.5115230000000  0.5210570000000  0.4356050000000 1.0
C      1  0.5194280000000  0.4885500000000  0.4363150000000 1.0
C      1  0.4893120000000  0.4802580000000  0.4365670000000 1.0
C      1  0.4799440000000  0.5100280000000  0.4361530000000 1.0
C      1  0.5470190000000  0.4528270000000  0.4632240000000 1.0
C      1  0.4528630000000  0.4527770000000  0.4631940000000 1.0
C      1  0.4531390000000  0.5468650000000  0.4631770000000 1.0
C      1  0.5472310000000  0.5474880000000  0.4632250000000 1.0
C      1  0.5470190000000  0.4528260000000  0.5382660000000 1.0
C      1  0.4528630000000  0.4527770000000  0.5382950000000 1.0
C      1  0.4531390000000  0.5468650000000  0.5383130000000 1.0
C      1  0.5472310000000  0.5474880000000  0.5382650000000 1.0
C      1  0.4980790000000  0.5374110000000  0.4876420000000 1.0
C      1  0.5370130000000  0.5024140000000  0.4876440000000 1.0
C      1  0.5022690000000  0.4625940000000  0.4876600000000 1.0
C      1  0.4627520000000  0.4975490000000  0.4876590000000 1.0
C      1  0.4980790000000  0.5374110000000  0.5138480000000 1.0
C      1  0.5370130000000  0.5024140000000  0.5138460000000 1.0
C      1  0.5022690000000  0.4625940000000  0.5138300000000 1.0
C      1  0.4627520000000  0.4975490000000  0.5138310000000 1.0
C      1  0.5870790000000  0.5348010000000  0.5143910000000 1.0
C      1  0.5348340000000  0.4127770000000  0.5143950000000 1.0
C      1  0.4128510000000  0.4650430000000  0.5143940000000 1.0
C      1  0.4650610000000  0.5869800000000  0.5143960000000 1.0
C      1  0.5870790000000  0.5348010000000  0.4870980000000 1.0
C      1  0.5348340000000  0.4127770000000  0.4870940000000 1.0
C      1  0.4128510000000  0.4650430000000  0.4870950000000 1.0
C      1  0.4650610000000  0.5869800000000  0.4870940000000 1.0
C      1  0.4811230000000  0.4185330000000  0.4775750000000 1.0
C      1  0.4187310000000  0.5187650000000  0.4775770000000 1.0
C      1  0.5188710000000  0.5816810000000  0.4776150000000 1.0
C      1  0.5811020000000  0.4812720000000  0.4775660000000 1.0
C      1  0.4811230000000  0.4185330000000  0.5239150000000 1.0
C      1  0.4187310000000  0.5187650000000  0.5239130000000 1.0
C      1  0.5188710000000  0.5816810000000  0.5238750000000 1.0
C      1  0.5811020000000  0.4812710000000  0.5239230000000 1.0
C      1  0.5430130000000  0.4786500000000  0.5530350000000 1.0
C      1  0.4787390000000  0.4566310000000  0.5530370000000 1.0
C      1  0.4567960000000  0.5209730000000  0.5531170000000 1.0
C      1  0.5215160000000  0.5438660000000  0.5531390000000 1.0
C      1  0.5430130000000  0.4786500000000  0.4484540000000 1.0
C      1  0.4787390000000  0.4566320000000  0.4484520000000 1.0
C      1  0.4567960000000  0.5209730000000  0.4483730000000 1.0
C      1  0.5215160000000  0.5438670000000  0.4483510000000 1.0
C      1  0.5007650000000  0.5592540000000  0.4663990000000 1.0
C      1  0.5587150000000  0.4994860000000  0.4663310000000 1.0
C      1  0.4993460000000  0.4408620000000  0.4663810000000 1.0
C      1  0.4409840000000  0.5004740000000  0.4664010000000 1.0
C      1  0.5007650000000  0.5592540000000  0.5350910000000 1.0
C      1  0.5587150000000  0.4994860000000  0.5351590000000 1.0
C      1  0.4993460000000  0.4408620000000  0.5351090000000 1.0
C      1  0.4409840000000  0.5004740000000  0.5350890000000 1.0
C      1  0.5682230000000  0.5283130000000  0.4662090000000 1.0
C      1  0.5281680000000  0.4315330000000  0.4661690000000 1.0
C      1  0.4316240000000  0.4716800000000  0.4661800000000 1.0
C      1  0.4718730000000  0.5682730000000  0.4661620000000 1.0
C      1  0.5682230000000  0.5283130000000  0.5352800000000 1.0
C      1  0.5281680000000  0.4315330000000  0.5353210000000 1.0
C      1  0.4316240000000  0.4716800000000  0.5353100000000 1.0
C      1  0.4718730000000  0.5682730000000  0.5353280000000 1.0
C      1  0.5438280000000  0.5663960000000  0.4855700000000 1.0
C      1  0.5658460000000  0.4563580000000  0.4855760000000 1.0
C      1  0.4562630000000  0.4338930000000  0.4855600000000 1.0
C      1  0.4342310000000  0.5435290000000  0.4855600000000 1.0
C      1  0.5438280000000  0.5663960000000  0.5159200000000 1.0
C      1  0.5658460000000  0.4563580000000  0.5159140000000 1.0
C      1  0.4562630000000  0.4338930000000  0.5159300000000 1.0
C      1  0.4342310000000  0.5435290000000  0.5159300000000 1.0
C      1  0.5116820000000  0.5969200000000  0.5007450000000 1.0
C      1  0.5963370000000  0.4883640000000  0.5007450000000 1.0
C      1  0.4882100000000  0.4032910000000  0.5007450000000 1.0
C      1  0.4034610000000  0.5117420000000  0.5007450000000 1.0
END
