TITL C-3201372-1405-1491 55794.611368382 125000 -942.95529492053 0 0 154 (C7) n - 1
REM
REM in /home/nfs/bkarasulu/CARBON/AIRSS/Generating-Clusters/LCBOP/Higher-Symm/SD-CG/FIRE-CG
REM
REM
REM
REM
REM
REM ./C.cell (b20cbc046b6831c77cfcea5457e17084)
REM AIRSS Version 0.9.1 bugfix July 2018 build 013d7b7c2542+ Fri, 06 Jul 2018 19:26:36 +0100
REM compiler GCC version 9.2.1 20190827 (Red Hat 9.2.1-1)
REM options -cpp -mtune=generic -march=x86-64 -g -O0 -fpre-include=/usr/include/finclude/math-vector-fortran.h
REM seed -960098701 -1409425270 2010474348 -1322865594 763583657 -996378322 306622527 161708136 -633296495 -174825704 -1664042409 -128568838 -273078180 316816578 1906630506 -2130280216 361520905 1278579573 746317879 -372423538 -1443120413 -1459427396 1528288407 1201977991 507512483 -720038980 768654156 46682772 608785821 1609282764 -886222915 1749689158 1044379441
REM
CELL 1.54180   50.00000   50.00000   50.00000   90.00000   90.00000   90.00000
LATT -1
SFAC C  
C      1  0.5837790000000  0.4427100000000  0.5014600000000 1.0
C      1  0.5510910000000  0.4427070000000  0.5664080000000 1.0
C      1  0.4799330000000  0.4427110000000  0.5813520000000 1.0
C      1  0.4238850000000  0.4427110000000  0.5350320000000 1.0
C      1  0.4251530000000  0.4427120000000  0.4623330000000 1.0
C      1  0.4827820000000  0.4427120000000  0.4179960000000 1.0
C      1  0.5533750000000  0.4427090000000  0.4354130000000 1.0
C      1  0.4862040000000  0.4965830000000  0.5299980000000 1.0
C      1  0.4679440000000  0.4965830000000  0.5079170000000 1.0
C      1  0.4738250000000  0.4965830000000  0.4798740000000 1.0
C      1  0.4994160000000  0.4965830000000  0.4669870000000 1.0
C      1  0.5254480000000  0.4965820000000  0.4789600000000 1.0
C      1  0.5323190000000  0.4965850000000  0.5067770000000 1.0
C      1  0.5148520000000  0.4965830000000  0.5294900000000 1.0
C      1  0.5597440000000  0.5462440000000  0.4794580000000 1.0
C      1  0.5533090000000  0.5462430000000  0.5339020000000 1.0
C      1  0.5067320000000  0.5462420000000  0.5628170000000 1.0
C      1  0.4550850000000  0.5462420000000  0.5444290000000 1.0
C      1  0.4372600000000  0.5462430000000  0.4925850000000 1.0
C      1  0.4666790000000  0.5462440000000  0.4463250000000 1.0
C      1  0.5211890000000  0.5462440000000  0.4404830000000 1.0
C      1  0.5113500000000  0.5446740000000  0.4680400000000 1.0
C      1  0.5320650000000  0.5446740000000  0.4889470000000 1.0
C      1  0.5286330000000  0.5446740000000  0.5181770000000 1.0
C      1  0.5036410000000  0.5446730000000  0.5337200000000 1.0
C      1  0.4759070000000  0.5446740000000  0.5238710000000 1.0
C      1  0.4663150000000  0.5446740000000  0.4960460000000 1.0
C      1  0.4820890000000  0.5446740000000  0.4711990000000 1.0
C      1  0.4192290000000  0.5439530000000  0.5766780000000 1.0
C      1  0.3896910000000  0.5439540000000  0.4846590000000 1.0
C      1  0.4432160000000  0.5439550000000  0.4041940000000 1.0
C      1  0.5395000000000  0.5439570000000  0.3958710000000 1.0
C      1  0.6060440000000  0.5439600000000  0.4659650000000 1.0
C      1  0.5927300000000  0.5439550000000  0.5616790000000 1.0
C      1  0.5095900000000  0.5439530000000  0.6109570000000 1.0
C      1  0.4031520000000  0.5262810000000  0.5919460000000 1.0
C      1  0.3677300000000  0.5262810000000  0.4816090000000 1.0
C      1  0.4319070000000  0.5262840000000  0.3851230000000 1.0
C      1  0.5473600000000  0.5262850000000  0.3751380000000 1.0
C      1  0.6271560000000  0.5262890000000  0.4591870000000 1.0
C      1  0.6111950000000  0.5262840000000  0.5739540000000 1.0
C      1  0.5115030000000  0.5262810000000  0.6330460000000 1.0
C      1  0.4410460000000  0.5966910000000  0.4923580000000 1.0
C      1  0.4692170000000  0.5966920000000  0.4491440000000 1.0
C      1  0.5205690000000  0.5966930000000  0.4442270000000 1.0
C      1  0.5564300000000  0.5966930000000  0.4813080000000 1.0
C      1  0.5497980000000  0.5966920000000  0.5324660000000 1.0
C      1  0.5056660000000  0.5966900000000  0.5591770000000 1.0
C      1  0.4572670000000  0.5966910000000  0.5413270000000 1.0
C      1  0.5140070000000  0.4770320000000  0.6407790000000 1.0
C      1  0.3986680000000  0.4770310000000  0.5987240000000 1.0
C      1  0.3596350000000  0.4770320000000  0.4823270000000 1.0
C      1  0.4262950000000  0.4770350000000  0.3792410000000 1.0
C      1  0.5484620000000  0.4770370000000  0.3670830000000 1.0
C      1  0.6341370000000  0.4770390000000  0.4550250000000 1.0
C      1  0.6188040000000  0.4770350000000  0.5768190000000 1.0
C      1  0.5459050000000  0.4860140000000  0.4613930000000 1.0
C      1  0.5588080000000  0.4860180000000  0.5118220000000 1.0
C      1  0.5274200000000  0.4860120000000  0.5533440000000 1.0
C      1  0.4753890000000  0.4860140000000  0.5546990000000 1.0
C      1  0.4418910000000  0.4860140000000  0.5148630000000 1.0
C      1  0.4521500000000  0.4860150000000  0.4638350000000 1.0
C      1  0.4984400000000  0.4860160000000  0.4400400000000 1.0
C      1  0.3978780000000  0.5710780000000  0.4853270000000 1.0
C      1  0.4478000000000  0.5710800000000  0.4110100000000 1.0
C      1  0.5370290000000  0.5710810000000  0.4037050000000 1.0
C      1  0.5983760000000  0.5710840000000  0.4689180000000 1.0
C      1  0.5856420000000  0.5710790000000  0.5575280000000 1.0
C      1  0.5084180000000  0.5710780000000  0.6028270000000 1.0
C      1  0.4248550000000  0.5710780000000  0.5706930000000 1.0
C      1  0.4751230000000  0.3953640000000  0.5217140000000 1.0
C      1  0.4675110000000  0.3953650000000  0.4940890000000 1.0
C      1  0.4843630000000  0.3953640000000  0.4709140000000 1.0
C      1  0.5129890000000  0.3953650000000  0.4696400000000 1.0
C      1  0.5318310000000  0.3953690000000  0.4912280000000 1.0
C      1  0.5267050000000  0.3953640000000  0.5194200000000 1.0
C      1  0.5014670000000  0.3953650000000  0.5329870000000 1.0
C      1  0.4400320000000  0.4254130000000  0.5533880000000 1.0
C      1  0.4208690000000  0.4254130000000  0.4864020000000 1.0
C      1  0.4612930000000  0.4254130000000  0.4296540000000 1.0
C      1  0.5308640000000  0.4254110000000  0.4258780000000 1.0
C      1  0.5771960000000  0.4254080000000  0.4779200000000 1.0
C      1  0.5653960000000  0.4254090000000  0.5465840000000 1.0
C      1  0.5043510000000  0.4254130000000  0.5801710000000 1.0
C      1  0.5101990000000  0.4411580000000  0.4118690000000 1.0
C      1  0.5752610000000  0.4411580000000  0.4530250000000 1.0
C      1  0.5836520000000  0.4411560000000  0.5295540000000 1.0
C      1  0.5290490000000  0.4411580000000  0.5838260000000 1.0
C      1  0.4525730000000  0.4411570000000  0.5749760000000 1.0
C      1  0.4118110000000  0.4411580000000  0.5096670000000 1.0
C      1  0.4374560000000  0.4411590000000  0.4370770000000 1.0
C      1  0.4831070000000  0.6060600000000  0.4721000000000 1.0
C      1  0.5112800000000  0.6060600000000  0.4693990000000 1.0
C      1  0.5309590000000  0.6060600000000  0.4897410000000 1.0
C      1  0.5273240000000  0.6060600000000  0.5178100000000 1.0
C      1  0.5031120000000  0.6060590000000  0.5324680000000 1.0
C      1  0.4765560000000  0.6060590000000  0.5226780000000 1.0
C      1  0.4676530000000  0.6060590000000  0.4958120000000 1.0
C      1  0.4911510000000  0.4656520000000  0.5663290000000 1.0
C      1  0.4426390000000  0.4656430000000  0.5344310000000 1.0
C      1  0.4373190000000  0.4656420000000  0.4766220000000 1.0
C      1  0.4791960000000  0.4656440000000  0.4364160000000 1.0
C      1  0.5367460000000  0.4656480000000  0.4440840000000 1.0
C      1  0.5666660000000  0.4656800000000  0.4938660000000 1.0
C      1  0.5463280000000  0.4656380000000  0.5482540000000 1.0
C      1  0.5308990000000  0.4992190000000  0.4085340000000 1.0
C      1  0.5907790000000  0.4992230000000  0.4671210000000 1.0
C      1  0.5822970000000  0.4992180000000  0.5504800000000 1.0
C      1  0.5118500000000  0.4992170000000  0.5958160000000 1.0
C      1  0.4324760000000  0.4992180000000  0.5690040000000 1.0
C      1  0.4039500000000  0.4992180000000  0.4902300000000 1.0
C      1  0.4477510000000  0.4992200000000  0.4188140000000 1.0
C      1  0.5523110000000  0.4141940000000  0.4856710000000 1.0
C      1  0.5438240000000  0.4141790000000  0.5319610000000 1.0
C      1  0.5023320000000  0.4141860000000  0.5541870000000 1.0
C      1  0.4590870000000  0.4141820000000  0.5356100000000 1.0
C      1  0.4466490000000  0.4141830000000  0.4902150000000 1.0
C      1  0.4743850000000  0.4141830000000  0.4521870000000 1.0
C      1  0.5214080000000  0.4141820000000  0.4501630000000 1.0
C      1  0.5625010000000  0.5735140000000  0.5409830000000 1.0
C      1  0.5069270000000  0.5735130000000  0.5744190000000 1.0
C      1  0.4461360000000  0.5735130000000  0.5518160000000 1.0
C      1  0.4259050000000  0.5735140000000  0.4901950000000 1.0
C      1  0.4614690000000  0.5735150000000  0.4359580000000 1.0
C      1  0.5260470000000  0.5735160000000  0.4299470000000 1.0
C      1  0.5710110000000  0.5735160000000  0.4766880000000 1.0
C      1  0.4546470000000  0.5271710000000  0.4268220000000 1.0
C      1  0.5289360000000  0.5271710000000  0.4189160000000 1.0
C      1  0.5814380000000  0.5271740000000  0.4720650000000 1.0
C      1  0.5726120000000  0.5271700000000  0.5462540000000 1.0
C      1  0.5091100000000  0.5271690000000  0.5856100000000 1.0
C      1  0.4387470000000  0.5271690000000  0.5604990000000 1.0
C      1  0.4145100000000  0.5271690000000  0.4898310000000 1.0
C      1  0.4531970000000  0.4764630000000  0.4360410000000 1.0
C      1  0.5208250000000  0.4764620000000  0.4235330000000 1.0
C      1  0.5727670000000  0.4764600000000  0.4686090000000 1.0
C      1  0.5699190000000  0.4764610000000  0.5373180000000 1.0
C      1  0.5144190000000  0.4764610000000  0.5779310000000 1.0
C      1  0.4480600000000  0.4764620000000  0.5598620000000 1.0
C      1  0.4208150000000  0.4764620000000  0.4967140000000 1.0
C      1  0.6187710000000  0.4988280000000  0.4598700000000 1.0
C      1  0.6054260000000  0.4988220000000  0.5678330000000 1.0
C      1  0.5126960000000  0.4988200000000  0.6247180000000 1.0
C      1  0.4104070000000  0.4988200000000  0.5876860000000 1.0
C      1  0.3755840000000  0.4988200000000  0.4846240000000 1.0
C      1  0.4344460000000  0.4988220000000  0.3931420000000 1.0
C      1  0.5426740000000  0.4988230000000  0.3821240000000 1.0
C      1  0.5344510000000  0.4456940000000  0.4931830000000 1.0
C      1  0.5268380000000  0.4457240000000  0.5227140000000 1.0
C      1  0.4989750000000  0.4457110000000  0.5351260000000 1.0
C      1  0.4718880000000  0.4457200000000  0.5211060000000 1.0
C      1  0.4659680000000  0.4457220000000  0.4911780000000 1.0
C      1  0.4856780000000  0.4457220000000  0.4678920000000 1.0
C      1  0.5161620000000  0.4457160000000  0.4687920000000 1.0
END
