TITL C-3201373-1215-2144 0.406998160109473 125000 -418.368854178267 0 0 71 (C1) n - 1
REM
REM in /home/nfs/bkarasulu/CARBON/AIRSS/Generating-Clusters/LCBOP/Higher-Symm/SD-CG/FIRE-CG
REM
REM
REM
REM
REM
REM ./C.cell (b20cbc046b6831c77cfcea5457e17084)
REM AIRSS Version 0.9.1 bugfix July 2018 build 013d7b7c2542+ Fri, 06 Jul 2018 19:26:36 +0100
REM compiler GCC version 9.2.1 20190827 (Red Hat 9.2.1-1)
REM options -cpp -mtune=generic -march=x86-64 -g -O0 -fpre-include=/usr/include/finclude/math-vector-fortran.h
REM seed 876764504 -2046787408 -693876960 531894318 415897761 -808886020 -311657479 -348848438 -42569404 1509507183 -1065337248 -330231440 1520180844 840848034 -111870998 -277283318 1245247361 121714198 -281402650 768619792 896945042 1904707225 1415709455 161588323 -25496812 -1148709729 -1650199020 -805877919 -41281850 277332770 455966782 -1353650248 357928786
REM
CELL 1.54180   50.00000   50.00000   50.00000   90.00000   90.00000   90.00000
LATT -1
SFAC C  
C      1  0.4844790000000  0.4898680000000  0.4039220000000 1.0
C      1  0.4558220000000  0.4888500000000  0.4030540000000 1.0
C      1  0.4435520000000  0.5037690000000  0.4239570000000 1.0
C      1  0.4018270000000  0.4820120000000  0.5262030000000 1.0
C      1  0.5319500000000  0.5130000000000  0.5203200000000 1.0
C      1  0.4779400000000  0.5544650000000  0.5636640000000 1.0
C      1  0.4275390000000  0.4708880000000  0.5269300000000 1.0
C      1  0.4192800000000  0.5542500000000  0.4577710000000 1.0
C      1  0.5047590000000  0.4486550000000  0.4974950000000 1.0
C      1  0.5415480000000  0.5376600000000  0.5219610000000 1.0
C      1  0.4150670000000  0.4480150000000  0.3471990000000 1.0
C      1  0.3996020000000  0.5286760000000  0.4987430000000 1.0
C      1  0.5711860000000  0.5695380000000  0.6053890000000 1.0
C      1  0.5186240000000  0.5353870000000  0.3707490000000 1.0
C      1  0.4887400000000  0.5779320000000  0.5697850000000 1.0
C      1  0.5065810000000  0.5450880000000  0.6273330000000 1.0
C      1  0.5943650000000  0.4574730000000  0.5768650000000 1.0
C      1  0.4701670000000  0.5017540000000  0.4881110000000 1.0
C      1  0.5959790000000  0.4985990000000  0.4943290000000 1.0
C      1  0.5444580000000  0.4409540000000  0.5236960000000 1.0
C      1  0.5483620000000  0.4680850000000  0.5299660000000 1.0
C      1  0.5477900000000  0.5623870000000  0.5292630000000 1.0
C      1  0.4756370000000  0.5308220000000  0.5518610000000 1.0
C      1  0.5194570000000  0.5247260000000  0.3959180000000 1.0
C      1  0.3979620000000  0.5069290000000  0.5139230000000 1.0
C      1  0.4538640000000  0.4714490000000  0.5229940000000 1.0
C      1  0.5439750000000  0.6282740000000  0.5646730000000 1.0
C      1  0.5060210000000  0.4341360000000  0.4515520000000 1.0
C      1  0.4482860000000  0.4926250000000  0.4728160000000 1.0
C      1  0.5079680000000  0.5962220000000  0.5684410000000 1.0
C      1  0.5638520000000  0.5190910000000  0.4265980000000 1.0
C      1  0.4985650000000  0.4665060000000  0.4099790000000 1.0
C      1  0.5904320000000  0.4885040000000  0.5182440000000 1.0
C      1  0.6193640000000  0.4157630000000  0.5968180000000 1.0
C      1  0.4867980000000  0.5216740000000  0.4771290000000 1.0
C      1  0.5493720000000  0.3890550000000  0.4923400000000 1.0
C      1  0.5807550000000  0.4789720000000  0.5653950000000 1.0
C      1  0.5735260000000  0.4781900000000  0.5380270000000 1.0
C      1  0.5045050000000  0.4468250000000  0.4268360000000 1.0
C      1  0.4957540000000  0.5159010000000  0.4085090000000 1.0
C      1  0.4531480000000  0.5308360000000  0.4264690000000 1.0
C      1  0.4923420000000  0.5341190000000  0.4540280000000 1.0
C      1  0.3396240000000  0.4428770000000  0.5589780000000 1.0
C      1  0.5459110000000  0.5857890000000  0.5416630000000 1.0
C      1  0.5740930000000  0.5013470000000  0.5807220000000 1.0
C      1  0.5658520000000  0.5236590000000  0.5923490000000 1.0
C      1  0.4361470000000  0.5500460000000  0.4375310000000 1.0
C      1  0.4369790000000  0.4916390000000  0.4485180000000 1.0
C      1  0.4825190000000  0.5441130000000  0.6373160000000 1.0
C      1  0.5271970000000  0.4312950000000  0.5037410000000 1.0
C      1  0.4767930000000  0.4888630000000  0.5145180000000 1.0
C      1  0.4787760000000  0.5099700000000  0.5358220000000 1.0
C      1  0.5329230000000  0.6041380000000  0.5584180000000 1.0
C      1  0.3802710000000  0.4684280000000  0.5375770000000 1.0
C      1  0.4282220000000  0.4614410000000  0.3652630000000 1.0
C      1  0.6069800000000  0.4364800000000  0.5869660000000 1.0
C      1  0.5306220000000  0.5463020000000  0.6162660000000 1.0
C      1  0.4416000000000  0.4750470000000  0.3836410000000 1.0
C      1  0.5028790000000  0.4735710000000  0.5117310000000 1.0
C      1  0.4628870000000  0.4388010000000  0.4736400000000 1.0
C      1  0.4899570000000  0.4422340000000  0.4738930000000 1.0
C      1  0.5560460000000  0.5467730000000  0.6046450000000 1.0
C      1  0.5919250000000  0.5074390000000  0.4696380000000 1.0
C      1  0.4818510000000  0.5317580000000  0.4279770000000 1.0
C      1  0.5271970000000  0.4855050000000  0.5216600000000 1.0
C      1  0.3597830000000  0.4555490000000  0.5483640000000 1.0
C      1  0.5437310000000  0.5224190000000  0.4096610000000 1.0
C      1  0.5260000000000  0.4155460000000  0.4587340000000 1.0
C      1  0.4066270000000  0.5457480000000  0.4795970000000 1.0
C      1  0.5804620000000  0.5142620000000  0.4467060000000 1.0
C      1  0.5349400000000  0.4110360000000  0.4852090000000 1.0
END
