TITL C-3201377-4638-804 1.23045826997027e-08 125000 -18.9723641415035 0 0 4 (D(inf)h) n - 1
REM
REM in /home/nfs/bkarasulu/CARBON/AIRSS/Generating-Clusters/LCBOP/Higher-Symm/SD-CG/FIRE-CG
REM
REM
REM
REM
REM
REM ./C.cell (b20cbc046b6831c77cfcea5457e17084)
REM AIRSS Version 0.9.1 bugfix July 2018 build 013d7b7c2542+ Fri, 06 Jul 2018 19:26:36 +0100
REM compiler GCC version 9.2.1 20190827 (Red Hat 9.2.1-1)
REM options -cpp -mtune=generic -march=x86-64 -g -O0 -fpre-include=/usr/include/finclude/math-vector-fortran.h
REM seed -340585485 435652548 -536706180 100560507 655057048 -269539828 -1628869565 1980406486 1782706261 -93828350 -1961954892 1377614587 236330781 -1131530972 1899494594 960569507 889743169 -209074594 585935120 -128082529 1142277079 1610363475 1258727015 -20938179 -1263022112 1810482457 -824254104 709187365 1579513065 -1019916214 -123084426 1785055127 1502470163
REM
CELL 1.54180   50.00000   50.00000   50.00000   90.00000   90.00000   90.00000
LATT -1
SFAC C  
C      1  0.5001460000000  0.4994350000000  0.5393270000000 1.0
C      1  0.5001460000000  0.4994350000000  0.5132570000000 1.0
C      1  0.5001460000000  0.4994350000000  0.4606730000000 1.0
C      1  0.5001460000000  0.4994350000000  0.4867430000000 1.0
END
