TITL C-3201377-4638-1190 -3.34019935620834e-07 125000 -479.444414547006 0 0 78 (C1) n - 1
REM
REM in /home/nfs/bkarasulu/CARBON/AIRSS/Generating-Clusters/LCBOP/Higher-Symm/SD-CG/FIRE-CG
REM
REM
REM
REM
REM
REM ./C.cell (b20cbc046b6831c77cfcea5457e17084)
REM AIRSS Version 0.9.1 bugfix July 2018 build 013d7b7c2542+ Fri, 06 Jul 2018 19:26:36 +0100
REM compiler GCC version 9.2.1 20190827 (Red Hat 9.2.1-1)
REM options -cpp -mtune=generic -march=x86-64 -g -O0 -fpre-include=/usr/include/finclude/math-vector-fortran.h
REM seed -891724120 -383995281 -295797881 -1700568500 -72615351 -2135406228 1177851550 958798480 1376179764 -775566314 179434256 888000738 940842785 -1568492427 -453557496 181840418 -553660947 -2047130581 -243950818 -829370769 301401164 1281071749 -1618721704 1248354959 -1093822322 287991641 -1600681769 1771173709 588824974 -30680675 -1691381084 1517062763 243722538
REM
CELL 1.54180   50.00000   50.00000   50.00000   90.00000   90.00000   90.00000
LATT -1
SFAC C  
C      1  0.5010870000000  0.5760940000000  0.4852780000000 1.0
C      1  0.4720020000000  0.5709800000000  0.4918670000000 1.0
C      1  0.5249880000000  0.5755800000000  0.5012990000000 1.0
C      1  0.4852660000000  0.5620170000000  0.5360190000000 1.0
C      1  0.5708930000000  0.5572960000000  0.5174770000000 1.0
C      1  0.4772640000000  0.5606680000000  0.4458390000000 1.0
C      1  0.5905460000000  0.4989260000000  0.4951490000000 1.0
C      1  0.4342730000000  0.5270220000000  0.4224240000000 1.0
C      1  0.4966250000000  0.4895220000000  0.5860840000000 1.0
C      1  0.5152240000000  0.4787870000000  0.5224110000000 1.0
C      1  0.4715700000000  0.4990790000000  0.4596300000000 1.0
C      1  0.4524540000000  0.5086000000000  0.4811180000000 1.0
C      1  0.4603590000000  0.5146400000000  0.5568850000000 1.0
C      1  0.5887330000000  0.5374760000000  0.5220460000000 1.0
C      1  0.4814860000000  0.5384300000000  0.4268950000000 1.0
C      1  0.5166810000000  0.4679140000000  0.5823850000000 1.0
C      1  0.5417850000000  0.4614390000000  0.4406920000000 1.0
C      1  0.4352470000000  0.4599070000000  0.4941050000000 1.0
C      1  0.4988350000000  0.5069050000000  0.6078310000000 1.0
C      1  0.5837350000000  0.5111020000000  0.4720980000000 1.0
C      1  0.4222490000000  0.5332260000000  0.4474430000000 1.0
C      1  0.5265550000000  0.4944580000000  0.5463020000000 1.0
C      1  0.5349380000000  0.4883100000000  0.4491280000000 1.0
C      1  0.4328370000000  0.4889090000000  0.4950790000000 1.0
C      1  0.5792890000000  0.4955770000000  0.5455180000000 1.0
C      1  0.5167370000000  0.4938740000000  0.4027280000000 1.0
C      1  0.4166290000000  0.4825630000000  0.5422860000000 1.0
C      1  0.5731370000000  0.4400480000000  0.5040650000000 1.0
C      1  0.4765720000000  0.4455180000000  0.4384700000000 1.0
C      1  0.4594920000000  0.4303510000000  0.5741260000000 1.0
C      1  0.5429480000000  0.5609020000000  0.5185710000000 1.0
C      1  0.5036560000000  0.5693950000000  0.4570340000000 1.0
C      1  0.4633010000000  0.5671930000000  0.5188930000000 1.0
C      1  0.4976450000000  0.5106180000000  0.4610280000000 1.0
C      1  0.4677100000000  0.5170580000000  0.5063770000000 1.0
C      1  0.5132670000000  0.4995290000000  0.5013870000000 1.0
C      1  0.5084840000000  0.5273560000000  0.4375580000000 1.0
C      1  0.4472730000000  0.5211760000000  0.5301640000000 1.0
C      1  0.5388430000000  0.5202430000000  0.5500300000000 1.0
C      1  0.5016360000000  0.5240390000000  0.6272620000000 1.0
C      1  0.5714710000000  0.5312950000000  0.4594800000000 1.0
C      1  0.3954850000000  0.5368400000000  0.4508670000000 1.0
C      1  0.5254180000000  0.4515040000000  0.4193570000000 1.0
C      1  0.4241570000000  0.4451830000000  0.5159890000000 1.0
C      1  0.5385660000000  0.4741900000000  0.5642500000000 1.0
C      1  0.4886380000000  0.4672640000000  0.5291770000000 1.0
C      1  0.5278230000000  0.4394020000000  0.4919700000000 1.0
C      1  0.5033210000000  0.4350550000000  0.4789870000000 1.0
C      1  0.5652190000000  0.5167370000000  0.5598140000000 1.0
C      1  0.5267330000000  0.5066620000000  0.4260730000000 1.0
C      1  0.4264610000000  0.5002790000000  0.5221080000000 1.0
C      1  0.5645260000000  0.4698490000000  0.5491220000000 1.0
C      1  0.5051190000000  0.4685110000000  0.4080030000000 1.0
C      1  0.4261950000000  0.4555090000000  0.5424030000000 1.0
C      1  0.4410270000000  0.5505670000000  0.5262000000000 1.0
C      1  0.5293950000000  0.5423610000000  0.5357530000000 1.0
C      1  0.5240170000000  0.5512550000000  0.4479500000000 1.0
C      1  0.5194180000000  0.4963200000000  0.4735940000000 1.0
C      1  0.4412530000000  0.5352160000000  0.4689580000000 1.0
C      1  0.4952040000000  0.5204710000000  0.5104980000000 1.0
C      1  0.5513290000000  0.5476750000000  0.4529410000000 1.0
C      1  0.4591230000000  0.5581940000000  0.4688170000000 1.0
C      1  0.5023440000000  0.5406240000000  0.5294880000000 1.0
C      1  0.5551810000000  0.4355240000000  0.4817170000000 1.0
C      1  0.4787030000000  0.4404050000000  0.4660700000000 1.0
C      1  0.4839050000000  0.4279850000000  0.5856570000000 1.0
C      1  0.4555660000000  0.4466560000000  0.4803820000000 1.0
C      1  0.5069230000000  0.4419100000000  0.5879440000000 1.0
C      1  0.5585730000000  0.4445840000000  0.4554890000000 1.0
C      1  0.5599900000000  0.4537000000000  0.5258330000000 1.0
C      1  0.4797600000000  0.4682780000000  0.4219210000000 1.0
C      1  0.4505120000000  0.4504590000000  0.5565020000000 1.0
C      1  0.4612940000000  0.5186650000000  0.4196980000000 1.0
C      1  0.4749880000000  0.4922830000000  0.5669550000000 1.0
C      1  0.5900330000000  0.5086030000000  0.5216130000000 1.0
C      1  0.5322520000000  0.4556160000000  0.5155060000000 1.0
C      1  0.4668120000000  0.4923520000000  0.4313500000000 1.0
C      1  0.4710170000000  0.4692940000000  0.5505830000000 1.0
END
