TITL C-3201377-4638-333 -6.607114665409e-07 125000 -566.398275504697 0 0 90 (C1) n - 1
REM
REM in /home/nfs/bkarasulu/CARBON/AIRSS/Generating-Clusters/LCBOP/Higher-Symm/SD-CG/FIRE-CG
REM
REM
REM
REM
REM
REM ./C.cell (b20cbc046b6831c77cfcea5457e17084)
REM AIRSS Version 0.9.1 bugfix July 2018 build 013d7b7c2542+ Fri, 06 Jul 2018 19:26:36 +0100
REM compiler GCC version 9.2.1 20190827 (Red Hat 9.2.1-1)
REM options -cpp -mtune=generic -march=x86-64 -g -O0 -fpre-include=/usr/include/finclude/math-vector-fortran.h
REM seed 2076029730 1529278526 -1413747945 1720630001 666563589 -314835470 1328843397 1632844820 -1297893 -2086738747 -2089513067 920378006 -1542496802 -1657418532 363030032 1403832701 -375837766 534600452 -144108297 1016765662 1527165956 -768230741 -425779557 -1815926240 -242339263 1854152313 464572131 -1149230752 465469880 938568524 -568109728 11920996 -1707081330
REM
CELL 1.54180   50.00000   50.00000   50.00000   90.00000   90.00000   90.00000
LATT -1
SFAC C  
C      1  0.5319290000000  0.5334180000000  0.4615730000000 1.0
C      1  0.4693230000000  0.5264680000000  0.5396160000000 1.0
C      1  0.4722140000000  0.5246260000000  0.4639620000000 1.0
C      1  0.5304090000000  0.5321120000000  0.5360180000000 1.0
C      1  0.4328500000000  0.4531020000000  0.5170690000000 1.0
C      1  0.5700050000000  0.4358950000000  0.4773440000000 1.0
C      1  0.5705730000000  0.4342880000000  0.5245780000000 1.0
C      1  0.4246320000000  0.4194760000000  0.4741290000000 1.0
C      1  0.5331280000000  0.4746490000000  0.6044280000000 1.0
C      1  0.4804690000000  0.4920890000000  0.4248380000000 1.0
C      1  0.4803540000000  0.4902570000000  0.5747420000000 1.0
C      1  0.5321580000000  0.4753450000000  0.3947430000000 1.0
C      1  0.4821310000000  0.4289940000000  0.4467420000000 1.0
C      1  0.5123570000000  0.4195230000000  0.5567030000000 1.0
C      1  0.5107630000000  0.4233870000000  0.4461350000000 1.0
C      1  0.4833920000000  0.4234270000000  0.5561360000000 1.0
C      1  0.5215240000000  0.5558020000000  0.5508720000000 1.0
C      1  0.4726760000000  0.5524360000000  0.4542600000000 1.0
C      1  0.4729230000000  0.5531260000000  0.5517730000000 1.0
C      1  0.5213940000000  0.5571330000000  0.4477830000000 1.0
C      1  0.4699120000000  0.4382780000000  0.4706220000000 1.0
C      1  0.5265180000000  0.4246000000000  0.5325870000000 1.0
C      1  0.5256120000000  0.4270710000000  0.4699640000000 1.0
C      1  0.4721700000000  0.4318280000000  0.5317190000000 1.0
C      1  0.4898560000000  0.5067940000000  0.4480740000000 1.0
C      1  0.5144500000000  0.5094350000000  0.5418910000000 1.0
C      1  0.5174780000000  0.5099880000000  0.4550650000000 1.0
C      1  0.4872860000000  0.5061720000000  0.5509820000000 1.0
C      1  0.4606150000000  0.5508940000000  0.4060490000000 1.0
C      1  0.5277120000000  0.5465430000000  0.5988380000000 1.0
C      1  0.5209810000000  0.5467240000000  0.3997410000000 1.0
C      1  0.4676140000000  0.5495490000000  0.6003440000000 1.0
C      1  0.4628140000000  0.5020750000000  0.5935250000000 1.0
C      1  0.5371060000000  0.4999880000000  0.3859610000000 1.0
C      1  0.5404210000000  0.4988990000000  0.6124930000000 1.0
C      1  0.4603010000000  0.5032110000000  0.4085690000000 1.0
C      1  0.4409100000000  0.5985790000000  0.4761820000000 1.0
C      1  0.5559440000000  0.5690910000000  0.5228320000000 1.0
C      1  0.5571430000000  0.5700180000000  0.4768660000000 1.0
C      1  0.4438930000000  0.5539560000000  0.5094170000000 1.0
C      1  0.4794150000000  0.5556330000000  0.4261360000000 1.0
C      1  0.5119700000000  0.5553640000000  0.5776830000000 1.0
C      1  0.5078980000000  0.5556870000000  0.4226260000000 1.0
C      1  0.4834210000000  0.5559650000000  0.5782190000000 1.0
C      1  0.5279780000000  0.4561140000000  0.4767180000000 1.0
C      1  0.4785580000000  0.4603990000000  0.5271970000000 1.0
C      1  0.4779740000000  0.4654620000000  0.4780550000000 1.0
C      1  0.5283700000000  0.4541030000000  0.5273430000000 1.0
C      1  0.4183690000000  0.5837810000000  0.4809960000000 1.0
C      1  0.5813000000000  0.5791030000000  0.5143560000000 1.0
C      1  0.5820280000000  0.5796130000000  0.4869870000000 1.0
C      1  0.4196670000000  0.5614080000000  0.4966780000000 1.0
C      1  0.5114870000000  0.5772210000000  0.4667520000000 1.0
C      1  0.4815610000000  0.5733710000000  0.5324960000000 1.0
C      1  0.4833010000000  0.5750790000000  0.4693120000000 1.0
C      1  0.5101000000000  0.5761580000000  0.5326540000000 1.0
C      1  0.4539800000000  0.4731030000000  0.5165860000000 1.0
C      1  0.5552590000000  0.4607430000000  0.4870910000000 1.0
C      1  0.5554940000000  0.4596450000000  0.5168340000000 1.0
C      1  0.4603860000000  0.4848980000000  0.4911120000000 1.0
C      1  0.5168950000000  0.4573810000000  0.5899670000000 1.0
C      1  0.4893450000000  0.4662980000000  0.4168250000000 1.0
C      1  0.4899930000000  0.4643460000000  0.5824570000000 1.0
C      1  0.5161330000000  0.4585560000000  0.4100420000000 1.0
C      1  0.4075400000000  0.4514520000000  0.5045430000000 1.0
C      1  0.5964820000000  0.4314750000000  0.4868330000000 1.0
C      1  0.5968170000000  0.4305800000000  0.5141770000000 1.0
C      1  0.4037190000000  0.4343940000000  0.4835370000000 1.0
C      1  0.4631830000000  0.5759580000000  0.5114320000000 1.0
C      1  0.5320020000000  0.5845730000000  0.4851330000000 1.0
C      1  0.5308330000000  0.5841640000000  0.5144280000000 1.0
C      1  0.4658980000000  0.5890220000000  0.4863410000000 1.0
C      1  0.4506630000000  0.4231050000000  0.4855120000000 1.0
C      1  0.5487720000000  0.4142350000000  0.5160120000000 1.0
C      1  0.5482930000000  0.4154090000000  0.4851240000000 1.0
C      1  0.4495630000000  0.4279570000000  0.5143080000000 1.0
C      1  0.5322610000000  0.5261400000000  0.3871660000000 1.0
C      1  0.4579170000000  0.5251600000000  0.6061630000000 1.0
C      1  0.4516980000000  0.5265950000000  0.3987970000000 1.0
C      1  0.5382630000000  0.5253710000000  0.6110310000000 1.0
C      1  0.5482320000000  0.5403500000000  0.5141850000000 1.0
C      1  0.4619750000000  0.5133160000000  0.4888970000000 1.0
C      1  0.4564670000000  0.5284280000000  0.5131750000000 1.0
C      1  0.5491090000000  0.5411130000000  0.4839520000000 1.0
C      1  0.5245210000000  0.4316600000000  0.5799440000000 1.0
C      1  0.4734460000000  0.4437530000000  0.4239400000000 1.0
C      1  0.4745670000000  0.4406620000000  0.5774820000000 1.0
C      1  0.5235150000000  0.4338650000000  0.4223940000000 1.0
C      1  0.5046650000000  0.4655620000000  0.5169320000000 1.0
C      1  0.5047760000000  0.4671790000000  0.4882760000000 1.0
END
