TITL C-3201374-830-638 -5.44164473819427e-07 125000 -316.752032402845 0 0 50 (C2) n - 1
REM
REM in /home/nfs/bkarasulu/CARBON/AIRSS/Generating-Clusters/LCBOP/Higher-Symm/SD-CG/FIRE-CG
REM
REM
REM
REM
REM
REM ./C.cell (b20cbc046b6831c77cfcea5457e17084)
REM AIRSS Version 0.9.1 bugfix July 2018 build 013d7b7c2542+ Fri, 06 Jul 2018 19:26:36 +0100
REM compiler GCC version 9.2.1 20190827 (Red Hat 9.2.1-1)
REM options -cpp -mtune=generic -march=x86-64 -g -O0 -fpre-include=/usr/include/finclude/math-vector-fortran.h
REM seed 1731255707 -1954250456 -1307129240 -1828117369 2074461204 1045890229 1538634543 693004549 1586672602 416513125 -553817328 -292682824 929552097 2084885896 531184130 1215552253 742427990 1433703069 1372593987 1665096513 -1724293935 1083865444 448300116 -1011350486 450111102 2144363593 665205670 114567886 -958533545 -633091675 1559960707 969191231 1215811601
REM
CELL 1.54180   50.00000   50.00000   50.00000   90.00000   90.00000   90.00000
LATT -1
SFAC C  
C      1  0.5384840000000  0.5451850000000  0.5339980000000 1.0
C      1  0.4659530000000  0.5452930000000  0.5379850000000 1.0
C      1  0.4623860000000  0.5453550000000  0.4648900000000 1.0
C      1  0.5349030000000  0.5451540000000  0.4617860000000 1.0
C      1  0.4625420000000  0.4530200000000  0.5341500000000 1.0
C      1  0.5347540000000  0.4529910000000  0.5377310000000 1.0
C      1  0.5387410000000  0.4528810000000  0.4651990000000 1.0
C      1  0.4656460000000  0.4528170000000  0.4616330000000 1.0
C      1  0.5568270000000  0.4905740000000  0.5120510000000 1.0
C      1  0.4881870000000  0.4906060000000  0.5561240000000 1.0
C      1  0.4438610000000  0.4906550000000  0.4874580000000 1.0
C      1  0.5128890000000  0.4905520000000  0.4430910000000 1.0
C      1  0.4438460000000  0.5076210000000  0.5121340000000 1.0
C      1  0.5128060000000  0.5076010000000  0.5560720000000 1.0
C      1  0.5568780000000  0.5075690000000  0.4874320000000 1.0
C      1  0.4882120000000  0.5075170000000  0.4431060000000 1.0
C      1  0.5623770000000  0.4667840000000  0.4593900000000 1.0
C      1  0.5408130000000  0.4667470000000  0.5614080000000 1.0
C      1  0.4388270000000  0.4667220000000  0.5401760000000 1.0
C      1  0.4600280000000  0.4667350000000  0.4379730000000 1.0
C      1  0.4387270000000  0.5314360000000  0.4592720000000 1.0
C      1  0.4601430000000  0.5313910000000  0.5616210000000 1.0
C      1  0.5621620000000  0.5314300000000  0.5400580000000 1.0
C      1  0.5409300000000  0.5314510000000  0.4380720000000 1.0
C      1  0.5471430000000  0.4625880000000  0.5132230000000 1.0
C      1  0.4870270000000  0.4626020000000  0.5465770000000 1.0
C      1  0.4531360000000  0.4625560000000  0.4863080000000 1.0
C      1  0.5141300000000  0.4624750000000  0.4524660000000 1.0
C      1  0.4532200000000  0.5356980000000  0.5133740000000 1.0
C      1  0.5139770000000  0.5355880000000  0.5463880000000 1.0
C      1  0.5473300000000  0.5355730000000  0.4862720000000 1.0
C      1  0.4870610000000  0.5356160000000  0.4523810000000 1.0
C      1  0.5336390000000  0.4488960000000  0.4924230000000 1.0
C      1  0.5077010000000  0.4489280000000  0.5330470000000 1.0
C      1  0.4672390000000  0.4489930000000  0.5070320000000 1.0
C      1  0.4931610000000  0.4485980000000  0.4667260000000 1.0
C      1  0.4674790000000  0.5495740000000  0.4924050000000 1.0
C      1  0.4931760000000  0.5492790000000  0.5328830000000 1.0
C      1  0.5338000000000  0.5492470000000  0.5069450000000 1.0
C      1  0.5077850000000  0.5491800000000  0.4664830000000 1.0
C      1  0.4424340000000  0.4944910000000  0.5383280000000 1.0
C      1  0.4620200000000  0.4944570000000  0.4417660000000 1.0
C      1  0.5585430000000  0.4945120000000  0.4612480000000 1.0
C      1  0.5389910000000  0.4945080000000  0.5577440000000 1.0
C      1  0.5584980000000  0.5036680000000  0.5382360000000 1.0
C      1  0.5390830000000  0.5036820000000  0.4416790000000 1.0
C      1  0.4425200000000  0.5037140000000  0.4612650000000 1.0
C      1  0.4620020000000  0.5036620000000  0.5577880000000 1.0
C      1  0.5001050000000  0.4452770000000  0.4982060000000 1.0
C      1  0.4989590000000  0.5528960000000  0.4993490000000 1.0
END
