TITL C-3201376-6384-11 -3.34412554732602e-07 125000 -53.1753372612558 0 0 9 (D3h) n - 1
REM
REM in /home/nfs/bkarasulu/CARBON/AIRSS/Generating-Clusters/LCBOP/Higher-Symm/SD-CG/FIRE-CG
REM
REM
REM
REM
REM
REM ./C.cell (b20cbc046b6831c77cfcea5457e17084)
REM AIRSS Version 0.9.1 bugfix July 2018 build 013d7b7c2542+ Fri, 06 Jul 2018 19:26:36 +0100
REM compiler GCC version 9.2.1 20190827 (Red Hat 9.2.1-1)
REM options -cpp -mtune=generic -march=x86-64 -g -O0 -fpre-include=/usr/include/finclude/math-vector-fortran.h
REM seed 2007190227 2138451452 -69808238 -2090327672 903558221 2075737358 980660401 1399037525 1187660068 -2072978144 -1320587626 -807885513 -16607568 -1916093090 1124426227 -923909653 -1206381049 1996589534 -2048166406 969683695 1335553951 -1053261218 15821790 -689902753 -1675125116 -548234129 565354135 2000931058 -344673077 -1252991516 1817645887 1332334295 -483061417
REM
CELL 1.54180   50.00000   50.00000   50.00000   90.00000   90.00000   90.00000
LATT -1
SFAC C  
C      1  0.5000000000000  0.4682670000000  0.5229350000000 1.0
C      1  0.5000000000000  0.4609490000000  0.4971710000000 1.0
C      1  0.5000000000000  0.4719030000000  0.4727320000000 1.0
C      1  0.5000000000000  0.4960050000000  0.4610510000000 1.0
C      1  0.5000000000000  0.5219750000000  0.4675950000000 1.0
C      1  0.5000000000000  0.5376630000000  0.4893020000000 1.0
C      1  0.5000000000000  0.5357280000000  0.5160140000000 1.0
C      1  0.5000000000000  0.5170760000000  0.5352330000000 1.0
C      1  0.5000000000000  0.4904330000000  0.5379660000000 1.0
END
