TITL C-3201372-1405-1508 0.155929138736412 125000 -797.277228788934 0 0 132 (C1) n - 1
REM
REM in /home/nfs/bkarasulu/CARBON/AIRSS/Generating-Clusters/LCBOP/Higher-Symm/SD-CG/FIRE-CG
REM
REM
REM
REM
REM
REM ./C.cell (b20cbc046b6831c77cfcea5457e17084)
REM AIRSS Version 0.9.1 bugfix July 2018 build 013d7b7c2542+ Fri, 06 Jul 2018 19:26:36 +0100
REM compiler GCC version 9.2.1 20190827 (Red Hat 9.2.1-1)
REM options -cpp -mtune=generic -march=x86-64 -g -O0 -fpre-include=/usr/include/finclude/math-vector-fortran.h
REM seed 1468749683 577395992 958231865 2001021820 72252747 -2143854401 -584847912 2096383195 799587570 1785997695 -691497921 -1620907392 -1085025521 353783548 -1248525640 1262872700 -2141678459 -469091754 -181306100 -862796597 1911597705 -477869537 2001732946 934554223 -518510253 927433810 2007247861 -1717297203 1915440649 1907625777 1177881289 -33789687 -1022208025
REM
CELL 1.54180   50.00000   50.00000   50.00000   90.00000   90.00000   90.00000
LATT -1
SFAC C  
C      1  0.5251540000000  0.3407120000000  0.5668250000000 1.0
C      1  0.5165010000000  0.6036390000000  0.6394080000000 1.0
C      1  0.5003990000000  0.6434340000000  0.5790700000000 1.0
C      1  0.5250970000000  0.5069310000000  0.3360100000000 1.0
C      1  0.5152850000000  0.3688860000000  0.3888470000000 1.0
C      1  0.4119420000000  0.4789800000000  0.5205670000000 1.0
C      1  0.4096850000000  0.5069980000000  0.5272270000000 1.0
C      1  0.4069990000000  0.5219120000000  0.5025000000000 1.0
C      1  0.4086370000000  0.5032070000000  0.4805890000000 1.0
C      1  0.4109550000000  0.4765740000000  0.4917550000000 1.0
C      1  0.5344560000000  0.5316790000000  0.5551760000000 1.0
C      1  0.5551650000000  0.5757260000000  0.4869160000000 1.0
C      1  0.5444090000000  0.5169120000000  0.4395110000000 1.0
C      1  0.5340530000000  0.4503650000000  0.4667080000000 1.0
C      1  0.5128020000000  0.4583910000000  0.5432610000000 1.0
C      1  0.4176890000000  0.4780240000000  0.3869200000000 1.0
C      1  0.4069700000000  0.3854660000000  0.4425140000000 1.0
C      1  0.4167610000000  0.3978780000000  0.5855390000000 1.0
C      1  0.4030820000000  0.5783470000000  0.5973270000000 1.0
C      1  0.3904620000000  0.6202440000000  0.5287420000000 1.0
C      1  0.4322800000000  0.6032000000000  0.5380820000000 1.0
C      1  0.4466020000000  0.5139910000000  0.3878720000000 1.0
C      1  0.4427410000000  0.4093800000000  0.4258350000000 1.0
C      1  0.4528170000000  0.3973190000000  0.5567230000000 1.0
C      1  0.4457140000000  0.5613680000000  0.6021870000000 1.0
C      1  0.5824790000000  0.5157670000000  0.3843910000000 1.0
C      1  0.5699300000000  0.4091390000000  0.4226120000000 1.0
C      1  0.5858870000000  0.3780360000000  0.5392860000000 1.0
C      1  0.5716660000000  0.5636070000000  0.6067490000000 1.0
C      1  0.5610590000000  0.6055820000000  0.5512170000000 1.0
C      1  0.4107590000000  0.5183570000000  0.5524420000000 1.0
C      1  0.4032470000000  0.5493030000000  0.5012330000000 1.0
C      1  0.4097760000000  0.5090860000000  0.4535770000000 1.0
C      1  0.4118780000000  0.4530560000000  0.4772140000000 1.0
C      1  0.4149800000000  0.4580630000000  0.5384040000000 1.0
C      1  0.5502340000000  0.5097190000000  0.3440380000000 1.0
C      1  0.5398530000000  0.3771410000000  0.3945380000000 1.0
C      1  0.5499900000000  0.3454840000000  0.5588270000000 1.0
C      1  0.5412560000000  0.5954260000000  0.6345110000000 1.0
C      1  0.5253180000000  0.6349940000000  0.5756750000000 1.0
C      1  0.5919970000000  0.5291130000000  0.4588540000000 1.0
C      1  0.5816200000000  0.4708790000000  0.4672160000000 1.0
C      1  0.5805530000000  0.4526060000000  0.5172080000000 1.0
C      1  0.5760740000000  0.5033100000000  0.5545570000000 1.0
C      1  0.5747080000000  0.5421810000000  0.5149440000000 1.0
C      1  0.5733120000000  0.5214190000000  0.4366500000000 1.0
C      1  0.5631630000000  0.4490460000000  0.4577080000000 1.0
C      1  0.5910630000000  0.4273190000000  0.5225720000000 1.0
C      1  0.5625200000000  0.5289160000000  0.5677200000000 1.0
C      1  0.5665940000000  0.5690500000000  0.5124530000000 1.0
C      1  0.5193680000000  0.5654540000000  0.4538540000000 1.0
C      1  0.5036230000000  0.4975430000000  0.4250740000000 1.0
C      1  0.4876140000000  0.4525370000000  0.4853920000000 1.0
C      1  0.4844590000000  0.4965450000000  0.5487750000000 1.0
C      1  0.5099820000000  0.5649350000000  0.5286940000000 1.0
C      1  0.4134590000000  0.5351040000000  0.5727900000000 1.0
C      1  0.4023780000000  0.5746610000000  0.5089090000000 1.0
C      1  0.4151800000000  0.5079910000000  0.4276650000000 1.0
C      1  0.4137120000000  0.4323240000000  0.4608470000000 1.0
C      1  0.4200920000000  0.4361200000000  0.5523120000000 1.0
C      1  0.6036200000000  0.4816810000000  0.4847870000000 1.0
C      1  0.5980020000000  0.4756470000000  0.5139900000000 1.0
C      1  0.5963440000000  0.5007540000000  0.5314930000000 1.0
C      1  0.5986060000000  0.5244880000000  0.5117990000000 1.0
C      1  0.6039190000000  0.5135540000000  0.4826510000000 1.0
C      1  0.5078700000000  0.5629150000000  0.5003410000000 1.0
C      1  0.5050860000000  0.5424420000000  0.4447520000000 1.0
C      1  0.4936000000000  0.4832910000000  0.4481180000000 1.0
C      1  0.4813130000000  0.4718470000000  0.5062290000000 1.0
C      1  0.4882460000000  0.5226230000000  0.5380890000000 1.0
C      1  0.5705100000000  0.5126900000000  0.3609020000000 1.0
C      1  0.5589620000000  0.3911560000000  0.4064780000000 1.0
C      1  0.5710850000000  0.3584170000000  0.5492690000000 1.0
C      1  0.5606700000000  0.5813370000000  0.6231550000000 1.0
C      1  0.5462410000000  0.6218540000000  0.5660210000000 1.0
C      1  0.5748460000000  0.5763170000000  0.4666050000000 1.0
C      1  0.5382600000000  0.4998640000000  0.4617950000000 1.0
C      1  0.5355330000000  0.4635280000000  0.4932020000000 1.0
C      1  0.5402090000000  0.4644490000000  0.5399230000000 1.0
C      1  0.5380430000000  0.5120220000000  0.5339650000000 1.0
C      1  0.4807020000000  0.5025940000000  0.4667500000000 1.0
C      1  0.4755560000000  0.4979490000000  0.4954020000000 1.0
C      1  0.4802400000000  0.5230400000000  0.5103200000000 1.0
C      1  0.4887630000000  0.5431790000000  0.4915030000000 1.0
C      1  0.4874370000000  0.5316350000000  0.4646120000000 1.0
C      1  0.5838610000000  0.5187320000000  0.4107250000000 1.0
C      1  0.5715240000000  0.4288190000000  0.4403160000000 1.0
C      1  0.5927280000000  0.4019440000000  0.5300610000000 1.0
C      1  0.5725170000000  0.5452680000000  0.5875960000000 1.0
C      1  0.5682260000000  0.5876850000000  0.5330160000000 1.0
C      1  0.4206670000000  0.3688400000000  0.4251930000000 1.0
C      1  0.4319110000000  0.3755950000000  0.5916910000000 1.0
C      1  0.4173580000000  0.5961870000000  0.6128840000000 1.0
C      1  0.4033960000000  0.6384800000000  0.5450210000000 1.0
C      1  0.4338660000000  0.4762120000000  0.3645900000000 1.0
C      1  0.4994850000000  0.3443910000000  0.5723940000000 1.0
C      1  0.4900620000000  0.6049030000000  0.6375600000000 1.0
C      1  0.4741750000000  0.6457990000000  0.5758180000000 1.0
C      1  0.4987350000000  0.5042430000000  0.3372700000000 1.0
C      1  0.4888490000000  0.3672330000000  0.3904090000000 1.0
C      1  0.4444440000000  0.5869140000000  0.6165500000000 1.0
C      1  0.4298990000000  0.6291160000000  0.5515670000000 1.0
C      1  0.4529620000000  0.4978770000000  0.3642060000000 1.0
C      1  0.4437890000000  0.3823700000000  0.4144340000000 1.0
C      1  0.4550580000000  0.3741000000000  0.5745010000000 1.0
C      1  0.4701310000000  0.4035460000000  0.5366690000000 1.0
C      1  0.4674780000000  0.5450750000000  0.6009490000000 1.0
C      1  0.4540020000000  0.5868610000000  0.5390810000000 1.0
C      1  0.4584470000000  0.5375630000000  0.3945540000000 1.0
C      1  0.4597780000000  0.4297110000000  0.4197540000000 1.0
C      1  0.5507980000000  0.4893330000000  0.5469920000000 1.0
C      1  0.5533520000000  0.5225180000000  0.5129760000000 1.0
C      1  0.5933910000000  0.5576630000000  0.4605930000000 1.0
C      1  0.5640740000000  0.4928550000000  0.4705830000000 1.0
C      1  0.5518100000000  0.4560540000000  0.5153710000000 1.0
C      1  0.4642180000000  0.3719450000000  0.3990380000000 1.0
C      1  0.4756630000000  0.3557200000000  0.5750220000000 1.0
C      1  0.4653740000000  0.5992420000000  0.6297030000000 1.0
C      1  0.4498110000000  0.6412590000000  0.5663670000000 1.0
C      1  0.4741940000000  0.5014160000000  0.3468980000000 1.0
C      1  0.4197870000000  0.5560760000000  0.5896040000000 1.0
C      1  0.4074910000000  0.5975210000000  0.5235390000000 1.0
C      1  0.4249770000000  0.5010340000000  0.4028040000000 1.0
C      1  0.4200590000000  0.4111590000000  0.4442970000000 1.0
C      1  0.4288330000000  0.4125930000000  0.5638100000000 1.0
C      1  0.5040530000000  0.4573050000000  0.4606050000000 1.0
C      1  0.4898100000000  0.4722350000000  0.5342290000000 1.0
C      1  0.5085190000000  0.5427450000000  0.5469260000000 1.0
C      1  0.5274450000000  0.5712140000000  0.4808080000000 1.0
C      1  0.5184640000000  0.5223920000000  0.4287690000000 1.0
C      1  0.5639530000000  0.5031390000000  0.4965060000000 1.0
C      1  0.5233890000000  0.4899240000000  0.4853210000000 1.0
END
