TITL C-3201377-4638-1348 3.69205905289762e-08 125000 -630.236688065127 0 0 103 (C1) n - 1
REM
REM in /home/nfs/bkarasulu/CARBON/AIRSS/Generating-Clusters/LCBOP/Higher-Symm/SD-CG/FIRE-CG
REM
REM
REM
REM
REM
REM ./C.cell (b20cbc046b6831c77cfcea5457e17084)
REM AIRSS Version 0.9.1 bugfix July 2018 build 013d7b7c2542+ Fri, 06 Jul 2018 19:26:36 +0100
REM compiler GCC version 9.2.1 20190827 (Red Hat 9.2.1-1)
REM options -cpp -mtune=generic -march=x86-64 -g -O0 -fpre-include=/usr/include/finclude/math-vector-fortran.h
REM seed -2113310666 -1470166375 -1598400554 -265054211 1398434214 937420741 645829173 1829963273 88008828 1936879406 2050403945 -1715098144 2094646617 -1963972710 -1176696371 -1542057457 1131722067 1132761314 -1525934665 -2134330365 -1716557541 1160722719 791828734 364837334 1716412391 960118108 -115454611 -1664473498 108555173 -1219767083 -1318054916 1561992402 -1351503989
REM
CELL 1.54180   50.00000   50.00000   50.00000   90.00000   90.00000   90.00000
LATT -1
SFAC C  
C      1  0.5178160000000  0.5718760000000  0.5459140000000 1.0
C      1  0.4306430000000  0.4805930000000  0.5430240000000 1.0
C      1  0.5537700000000  0.4461660000000  0.5484480000000 1.0
C      1  0.4523500000000  0.4715580000000  0.4776330000000 1.0
C      1  0.5532160000000  0.4634150000000  0.4815490000000 1.0
C      1  0.4990960000000  0.5631330000000  0.4792510000000 1.0
C      1  0.3875200000000  0.5339100000000  0.5021460000000 1.0
C      1  0.5210640000000  0.3861200000000  0.5049530000000 1.0
C      1  0.5798040000000  0.6068490000000  0.4980880000000 1.0
C      1  0.5394190000000  0.5868990000000  0.5554200000000 1.0
C      1  0.4090930000000  0.4932790000000  0.5555370000000 1.0
C      1  0.5494800000000  0.4212520000000  0.5606360000000 1.0
C      1  0.3988980000000  0.5329190000000  0.4780820000000 1.0
C      1  0.5188270000000  0.3947180000000  0.4798170000000 1.0
C      1  0.5725670000000  0.6051930000000  0.4724540000000 1.0
C      1  0.4183970000000  0.4954300000000  0.4522030000000 1.0
C      1  0.5444960000000  0.4267400000000  0.4520670000000 1.0
C      1  0.5296510000000  0.5863150000000  0.4486090000000 1.0
C      1  0.5641650000000  0.4867490000000  0.4952700000000 1.0
C      1  0.4746780000000  0.5572220000000  0.4938940000000 1.0
C      1  0.4632210000000  0.4485160000000  0.4919750000000 1.0
C      1  0.3774900000000  0.4747520000000  0.5243480000000 1.0
C      1  0.5782570000000  0.3986320000000  0.5290460000000 1.0
C      1  0.5269370000000  0.6235530000000  0.5264020000000 1.0
C      1  0.5290930000000  0.5664660000000  0.4283630000000 1.0
C      1  0.4265160000000  0.4916630000000  0.4253580000000 1.0
C      1  0.5433350000000  0.4388630000000  0.4263860000000 1.0
C      1  0.4247110000000  0.4755240000000  0.4716570000000 1.0
C      1  0.5612660000000  0.4377090000000  0.4727890000000 1.0
C      1  0.5093730000000  0.5876590000000  0.4692650000000 1.0
C      1  0.4953710000000  0.4453020000000  0.4284110000000 1.0
C      1  0.5492840000000  0.5200190000000  0.4291710000000 1.0
C      1  0.4549640000000  0.5308820000000  0.4277280000000 1.0
C      1  0.4502870000000  0.5040500000000  0.4162250000000 1.0
C      1  0.5210910000000  0.4540060000000  0.4172450000000 1.0
C      1  0.5283930000000  0.5391250000000  0.4208090000000 1.0
C      1  0.4851110000000  0.5137520000000  0.5590960000000 1.0
C      1  0.4920550000000  0.4762260000000  0.5585290000000 1.0
C      1  0.5190940000000  0.5005550000000  0.5580740000000 1.0
C      1  0.4725330000000  0.5234450000000  0.5358430000000 1.0
C      1  0.4911700000000  0.4572920000000  0.5374560000000 1.0
C      1  0.5351020000000  0.5086200000000  0.5363590000000 1.0
C      1  0.5092840000000  0.4900760000000  0.6160430000000 1.0
C      1  0.5264960000000  0.5124000000000  0.6148490000000 1.0
C      1  0.4814780000000  0.4942260000000  0.6180040000000 1.0
C      1  0.5520150000000  0.4888680000000  0.5223800000000 1.0
C      1  0.4798170000000  0.5485960000000  0.5222030000000 1.0
C      1  0.4666630000000  0.4547140000000  0.5206820000000 1.0
C      1  0.5927270000000  0.4065460000000  0.5062340000000 1.0
C      1  0.5084860000000  0.6290540000000  0.5058790000000 1.0
C      1  0.3824040000000  0.4573820000000  0.5027680000000 1.0
C      1  0.4318400000000  0.5020480000000  0.6015390000000 1.0
C      1  0.5278890000000  0.4403550000000  0.6038020000000 1.0
C      1  0.5485380000000  0.5573500000000  0.5971750000000 1.0
C      1  0.4765100000000  0.4310780000000  0.4741020000000 1.0
C      1  0.5719440000000  0.5063730000000  0.4758010000000 1.0
C      1  0.4534310000000  0.5513820000000  0.4758540000000 1.0
C      1  0.5261480000000  0.4704470000000  0.4757920000000 1.0
C      1  0.5161320000000  0.5405630000000  0.4777570000000 1.0
C      1  0.4721440000000  0.4918130000000  0.4736330000000 1.0
C      1  0.5474200000000  0.6077820000000  0.5378790000000 1.0
C      1  0.3868640000000  0.4974060000000  0.5383400000000 1.0
C      1  0.5535930000000  0.3994300000000  0.5428190000000 1.0
C      1  0.5585590000000  0.5230640000000  0.4566720000000 1.0
C      1  0.4417040000000  0.5379210000000  0.4533890000000 1.0
C      1  0.4954460000000  0.4289090000000  0.4528230000000 1.0
C      1  0.4795460000000  0.5053950000000  0.4518520000000 1.0
C      1  0.5207030000000  0.4844100000000  0.4534770000000 1.0
C      1  0.5427720000000  0.5423110000000  0.4698470000000 1.0
C      1  0.4791340000000  0.5420730000000  0.4177670000000 1.0
C      1  0.4737160000000  0.4601720000000  0.4176440000000 1.0
C      1  0.5478580000000  0.4957320000000  0.4144240000000 1.0
C      1  0.4556800000000  0.4988680000000  0.6131060000000 1.0
C      1  0.5193590000000  0.4638650000000  0.6132450000000 1.0
C      1  0.5393390000000  0.5349220000000  0.6084340000000 1.0
C      1  0.5320050000000  0.3874740000000  0.5293030000000 1.0
C      1  0.5715750000000  0.6070980000000  0.5235420000000 1.0
C      1  0.3829760000000  0.5221970000000  0.5257190000000 1.0
C      1  0.5033080000000  0.5278860000000  0.4117830000000 1.0
C      1  0.4733500000000  0.4876250000000  0.4093690000000 1.0
C      1  0.5235680000000  0.4816430000000  0.4082480000000 1.0
C      1  0.5382350000000  0.4228440000000  0.5863080000000 1.0
C      1  0.5504940000000  0.5772860000000  0.5793550000000 1.0
C      1  0.4135240000000  0.5010730000000  0.5820630000000 1.0
C      1  0.5078130000000  0.5515710000000  0.5304900000000 1.0
C      1  0.4526820000000  0.4793420000000  0.5266800000000 1.0
C      1  0.5410710000000  0.4631120000000  0.5308350000000 1.0
C      1  0.5059170000000  0.6110360000000  0.4844190000000 1.0
C      1  0.4041910000000  0.4628130000000  0.4858290000000 1.0
C      1  0.5799740000000  0.4223590000000  0.4867530000000 1.0
C      1  0.6188060000000  0.3989890000000  0.5030510000000 1.0
C      1  0.4931800000000  0.6516960000000  0.5067900000000 1.0
C      1  0.3663720000000  0.4356950000000  0.4983730000000 1.0
C      1  0.5085950000000  0.4728040000000  0.4974120000000 1.0
C      1  0.5103490000000  0.5199840000000  0.4963450000000 1.0
C      1  0.4897800000000  0.4971400000000  0.4972830000000 1.0
C      1  0.5222990000000  0.5285870000000  0.5213030000000 1.0
C      1  0.4681460000000  0.5017760000000  0.5183490000000 1.0
C      1  0.5144330000000  0.4589980000000  0.5213840000000 1.0
C      1  0.5196460000000  0.4146050000000  0.4600830000000 1.0
C      1  0.5539640000000  0.5994310000000  0.4542120000000 1.0
C      1  0.4178670000000  0.5229330000000  0.4601780000000 1.0
C      1  0.5000510000000  0.4992790000000  0.4058270000000 1.0
END
