TITL C-3201376-6384-1351 -4.75865091848216e-07 125000 -488.486187699805 0 0 85 (C2) n - 1
REM
REM in /home/nfs/bkarasulu/CARBON/AIRSS/Generating-Clusters/LCBOP/Higher-Symm/SD-CG/FIRE-CG
REM
REM
REM
REM
REM
REM ./C.cell (b20cbc046b6831c77cfcea5457e17084)
REM AIRSS Version 0.9.1 bugfix July 2018 build 013d7b7c2542+ Fri, 06 Jul 2018 19:26:36 +0100
REM compiler GCC version 9.2.1 20190827 (Red Hat 9.2.1-1)
REM options -cpp -mtune=generic -march=x86-64 -g -O0 -fpre-include=/usr/include/finclude/math-vector-fortran.h
REM seed -263858735 633777777 466220001 1233179656 -2022561331 1938737269 -646004107 1526842986 871671959 -520250640 551620831 1320371425 -326735877 -912000405 -1561652353 -1379615101 -1868526765 1590057406 2141613759 -1711414804 -1398971534 -2049972933 -2119952763 1944350719 -626951976 844645210 1547679258 -558398875 -1483676030 -268193124 828462691 804241794 -1700067133
REM
CELL 1.54180   50.00000   50.00000   50.00000   90.00000   90.00000   90.00000
LATT -1
SFAC C  
C      1  0.4578710000000  0.4640630000000  0.4256740000000 1.0
C      1  0.4581700000000  0.5753970000000  0.4640800000000 1.0
C      1  0.4581100000000  0.5363310000000  0.5749750000000 1.0
C      1  0.4584660000000  0.4252940000000  0.5363400000000 1.0
C      1  0.5429400000000  0.5368700000000  0.4256740000000 1.0
C      1  0.5426400000000  0.4255370000000  0.4640800000000 1.0
C      1  0.5427000000000  0.4646030000000  0.5749750000000 1.0
C      1  0.5423450000000  0.5756400000000  0.5363400000000 1.0
C      1  0.5174300000000  0.4143480000000  0.4646470000000 1.0
C      1  0.5177930000000  0.5365080000000  0.4142830000000 1.0
C      1  0.5171060000000  0.5866590000000  0.5361000000000 1.0
C      1  0.5174620000000  0.4647950000000  0.5861280000000 1.0
C      1  0.4833810000000  0.5865860000000  0.4646470000000 1.0
C      1  0.4830170000000  0.4644260000000  0.4142830000000 1.0
C      1  0.4837040000000  0.4142750000000  0.5361000000000 1.0
C      1  0.4833490000000  0.5361380000000  0.5861280000000 1.0
C      1  0.4320850000000  0.5369040000000  0.5259740000000 1.0
C      1  0.4320050000000  0.4746340000000  0.5363200000000 1.0
C      1  0.4320530000000  0.4642290000000  0.4749830000000 1.0
C      1  0.4321620000000  0.5266250000000  0.4630770000000 1.0
C      1  0.5687250000000  0.4640300000000  0.5259740000000 1.0
C      1  0.5688050000000  0.5262990000000  0.5363200000000 1.0
C      1  0.5687570000000  0.5367050000000  0.4749830000000 1.0
C      1  0.5686490000000  0.4743090000000  0.4630770000000 1.0
C      1  0.4667360000000  0.4787070000000  0.5727540000000 1.0
C      1  0.4671150000000  0.4277990000000  0.4796580000000 1.0
C      1  0.4670960000000  0.5218480000000  0.4272520000000 1.0
C      1  0.4666140000000  0.5732030000000  0.5215990000000 1.0
C      1  0.5340740000000  0.5222270000000  0.5727540000000 1.0
C      1  0.5336960000000  0.5731350000000  0.4796580000000 1.0
C      1  0.5337140000000  0.4790860000000  0.4272520000000 1.0
C      1  0.5341970000000  0.4277310000000  0.5215990000000 1.0
C      1  0.4819860000000  0.4978260000000  0.5312680000000 1.0
C      1  0.4822140000000  0.4695340000000  0.4974910000000 1.0
C      1  0.4819710000000  0.5030320000000  0.4689350000000 1.0
C      1  0.4817060000000  0.5314400000000  0.5026980000000 1.0
C      1  0.5188240000000  0.5031080000000  0.5312680000000 1.0
C      1  0.5185970000000  0.5314000000000  0.4974910000000 1.0
C      1  0.5188400000000  0.4979020000000  0.4689350000000 1.0
C      1  0.5191050000000  0.4694940000000  0.5026980000000 1.0
C      1  0.5246230000000  0.4748280000000  0.5320440000000 1.0
C      1  0.5246380000000  0.4685970000000  0.4743500000000 1.0
C      1  0.5245090000000  0.5262110000000  0.4682610000000 1.0
C      1  0.5243860000000  0.5324370000000  0.5258030000000 1.0
C      1  0.4761870000000  0.5261060000000  0.5320440000000 1.0
C      1  0.4761730000000  0.5323370000000  0.4743500000000 1.0
C      1  0.4763010000000  0.4747230000000  0.4682610000000 1.0
C      1  0.4764250000000  0.4684970000000  0.5258030000000 1.0
C      1  0.4150130000000  0.4879460000000  0.5178860000000 1.0
C      1  0.4146120000000  0.4825150000000  0.4877010000000 1.0
C      1  0.4140860000000  0.5146570000000  0.4807790000000 1.0
C      1  0.4147960000000  0.5183220000000  0.5135600000000 1.0
C      1  0.5857970000000  0.5129880000000  0.5178860000000 1.0
C      1  0.5861980000000  0.5184190000000  0.4877010000000 1.0
C      1  0.5867240000000  0.4862760000000  0.4807790000000 1.0
C      1  0.5860140000000  0.4826120000000  0.5135600000000 1.0
C      1  0.5506100000000  0.4526010000000  0.4744560000000 1.0
C      1  0.5506970000000  0.5260450000000  0.4526600000000 1.0
C      1  0.5508260000000  0.5483750000000  0.5246900000000 1.0
C      1  0.5506440000000  0.4750770000000  0.5479210000000 1.0
C      1  0.4502010000000  0.5483330000000  0.4744560000000 1.0
C      1  0.4501130000000  0.4748890000000  0.4526600000000 1.0
C      1  0.4499850000000  0.4525590000000  0.5246900000000 1.0
C      1  0.4501660000000  0.5258570000000  0.5479210000000 1.0
C      1  0.4928180000000  0.4291680000000  0.4659110000000 1.0
C      1  0.4929820000000  0.5352050000000  0.4288120000000 1.0
C      1  0.4925610000000  0.5717750000000  0.5347880000000 1.0
C      1  0.4928100000000  0.4657280000000  0.5713480000000 1.0
C      1  0.5079920000000  0.5717660000000  0.4659110000000 1.0
C      1  0.5078280000000  0.4657290000000  0.4288120000000 1.0
C      1  0.5082500000000  0.4291590000000  0.5347880000000 1.0
C      1  0.5080000000000  0.5352060000000  0.5713480000000 1.0
C      1  0.5548060000000  0.5562500000000  0.4926180000000 1.0
C      1  0.5551050000000  0.5101330000000  0.5562100000000 1.0
C      1  0.5552190000000  0.4443200000000  0.5095010000000 1.0
C      1  0.5549200000000  0.4910010000000  0.4437760000000 1.0
C      1  0.4460040000000  0.4446840000000  0.4926180000000 1.0
C      1  0.4457050000000  0.4908010000000  0.5562100000000 1.0
C      1  0.4455910000000  0.5566140000000  0.5095010000000 1.0
C      1  0.4458910000000  0.5099320000000  0.4437760000000 1.0
C      1  0.5005080000000  0.4574410000000  0.5430400000000 1.0
C      1  0.5004440000000  0.5435290000000  0.4571820000000 1.0
C      1  0.5003030000000  0.5434930000000  0.5430400000000 1.0
C      1  0.5003670000000  0.4574050000000  0.4571820000000 1.0
C      1  0.5004050000000  0.5004670000000  0.5000850000000 1.0
END
