TITL C-3201377-4638-1954 0.0415384871260712 125000 -1182.58702421621 0 0 192 (C1) n - 1
REM
REM in /home/nfs/bkarasulu/CARBON/AIRSS/Generating-Clusters/LCBOP/Higher-Symm/SD-CG/FIRE-CG
REM
REM
REM
REM
REM
REM ./C.cell (b20cbc046b6831c77cfcea5457e17084)
REM AIRSS Version 0.9.1 bugfix July 2018 build 013d7b7c2542+ Fri, 06 Jul 2018 19:26:36 +0100
REM compiler GCC version 9.2.1 20190827 (Red Hat 9.2.1-1)
REM options -cpp -mtune=generic -march=x86-64 -g -O0 -fpre-include=/usr/include/finclude/math-vector-fortran.h
REM seed -1532684036 726619748 1316279476 334322298 1640044097 -1859135653 -801883672 1017949656 -1330802278 -786337507 2123290135 -2011402173 1086266559 551581699 1613125170 -492394991 -394296464 -2013733567 1906815503 -756337561 1862818293 1492457295 1967558755 570941257 1589251272 -835221336 1195638061 -309272906 -1741047282 -1151279480 638121070 -1066430183 525930912
REM
CELL 1.54180   50.00000   50.00000   50.00000   90.00000   90.00000   90.00000
LATT -1
SFAC C  
C      1  0.5281330000000  0.4963750000000  0.5765270000000 1.0
C      1  0.5701390000000  0.4604790000000  0.4151280000000 1.0
C      1  0.4920110000000  0.5650380000000  0.6083820000000 1.0
C      1  0.5772170000000  0.4765710000000  0.5709690000000 1.0
C      1  0.5294120000000  0.5525270000000  0.5091160000000 1.0
C      1  0.4935280000000  0.5684480000000  0.4713390000000 1.0
C      1  0.5280520000000  0.5044450000000  0.4459400000000 1.0
C      1  0.5430210000000  0.6105420000000  0.4878850000000 1.0
C      1  0.5014770000000  0.4457490000000  0.4903050000000 1.0
C      1  0.5377610000000  0.5880070000000  0.4421850000000 1.0
C      1  0.4627000000000  0.4345180000000  0.5083970000000 1.0
C      1  0.4319870000000  0.4197770000000  0.4184370000000 1.0
C      1  0.5451340000000  0.4938670000000  0.5152980000000 1.0
C      1  0.6129700000000  0.5719700000000  0.5343380000000 1.0
C      1  0.5913580000000  0.5230080000000  0.4280980000000 1.0
C      1  0.4634160000000  0.4702980000000  0.4001400000000 1.0
C      1  0.4988660000000  0.5504840000000  0.5610730000000 1.0
C      1  0.4122860000000  0.4296540000000  0.4037270000000 1.0
C      1  0.5262730000000  0.4385570000000  0.6004030000000 1.0
C      1  0.4616060000000  0.4909230000000  0.5160040000000 1.0
C      1  0.4763590000000  0.6408170000000  0.4730800000000 1.0
C      1  0.4596280000000  0.5979200000000  0.5559450000000 1.0
C      1  0.5323900000000  0.3762070000000  0.4643000000000 1.0
C      1  0.4452720000000  0.4137680000000  0.5748380000000 1.0
C      1  0.4003150000000  0.5436900000000  0.3946560000000 1.0
C      1  0.5101010000000  0.5712580000000  0.5193370000000 1.0
C      1  0.5032340000000  0.6405580000000  0.4757170000000 1.0
C      1  0.4492610000000  0.5147210000000  0.5567360000000 1.0
C      1  0.4608130000000  0.4371990000000  0.5769330000000 1.0
C      1  0.4919360000000  0.5457850000000  0.5877700000000 1.0
C      1  0.5454160000000  0.5149350000000  0.5333830000000 1.0
C      1  0.4427100000000  0.6035840000000  0.4616330000000 1.0
C      1  0.5866720000000  0.4092180000000  0.4944730000000 1.0
C      1  0.6169180000000  0.5451350000000  0.5349000000000 1.0
C      1  0.5433090000000  0.3926510000000  0.5316620000000 1.0
C      1  0.5892310000000  0.4723290000000  0.5164570000000 1.0
C      1  0.4353000000000  0.3613010000000  0.4950140000000 1.0
C      1  0.6005220000000  0.4968300000000  0.5313010000000 1.0
C      1  0.5075410000000  0.4465630000000  0.3771790000000 1.0
C      1  0.4914060000000  0.5283590000000  0.4215730000000 1.0
C      1  0.4074010000000  0.4653660000000  0.5936590000000 1.0
C      1  0.4655860000000  0.5394810000000  0.4266510000000 1.0
C      1  0.5311810000000  0.6353780000000  0.4783230000000 1.0
C      1  0.3910940000000  0.4370770000000  0.3904820000000 1.0
C      1  0.5049400000000  0.4732940000000  0.4987360000000 1.0
C      1  0.5613940000000  0.5052200000000  0.3968120000000 1.0
C      1  0.4131200000000  0.4925780000000  0.5046470000000 1.0
C      1  0.5129910000000  0.4727610000000  0.3740610000000 1.0
C      1  0.5484770000000  0.6550910000000  0.4680460000000 1.0
C      1  0.5091170000000  0.4473250000000  0.5481390000000 1.0
C      1  0.5462810000000  0.6068780000000  0.5170330000000 1.0
C      1  0.4851810000000  0.5181180000000  0.5919310000000 1.0
C      1  0.5275840000000  0.4849610000000  0.4250200000000 1.0
C      1  0.4466510000000  0.3711320000000  0.4711450000000 1.0
C      1  0.4677430000000  0.5132870000000  0.3817030000000 1.0
C      1  0.4460840000000  0.3739350000000  0.5181010000000 1.0
C      1  0.5521420000000  0.4818300000000  0.4101400000000 1.0
C      1  0.4196370000000  0.4438080000000  0.5220800000000 1.0
C      1  0.4272260000000  0.4602820000000  0.6107630000000 1.0
C      1  0.4482480000000  0.5541430000000  0.4076580000000 1.0
C      1  0.5404970000000  0.4410880000000  0.4530580000000 1.0
C      1  0.5796460000000  0.4493690000000  0.5604310000000 1.0
C      1  0.5627470000000  0.5132400000000  0.6024990000000 1.0
C      1  0.4525030000000  0.4894590000000  0.3826370000000 1.0
C      1  0.5849660000000  0.5511340000000  0.4811540000000 1.0
C      1  0.5660110000000  0.5558770000000  0.5703640000000 1.0
C      1  0.5543250000000  0.6697100000000  0.4464860000000 1.0
C      1  0.4751280000000  0.3726380000000  0.5172900000000 1.0
C      1  0.5942260000000  0.5911200000000  0.5297020000000 1.0
C      1  0.4620020000000  0.5917320000000  0.4446020000000 1.0
C      1  0.4724750000000  0.4457900000000  0.6014620000000 1.0
C      1  0.4984300000000  0.6165220000000  0.5305640000000 1.0
C      1  0.5228300000000  0.4009080000000  0.5727090000000 1.0
C      1  0.4242300000000  0.4836390000000  0.4796350000000 1.0
C      1  0.5033050000000  0.5268720000000  0.5453510000000 1.0
C      1  0.3939640000000  0.5249440000000  0.3766330000000 1.0
C      1  0.5903490000000  0.4244270000000  0.4477930000000 1.0
C      1  0.4566930000000  0.5712300000000  0.3881930000000 1.0
C      1  0.5355610000000  0.6433170000000  0.5486290000000 1.0
C      1  0.5088040000000  0.5259110000000  0.4452250000000 1.0
C      1  0.4632180000000  0.5624900000000  0.5105730000000 1.0
C      1  0.4967780000000  0.4374200000000  0.4641000000000 1.0
C      1  0.5310970000000  0.6593740000000  0.4036430000000 1.0
C      1  0.5251660000000  0.5111190000000  0.5527870000000 1.0
C      1  0.4471880000000  0.5301530000000  0.4469720000000 1.0
C      1  0.4048440000000  0.5022700000000  0.3674650000000 1.0
C      1  0.4536180000000  0.4564720000000  0.6200720000000 1.0
C      1  0.5594350000000  0.5631820000000  0.5438090000000 1.0
C      1  0.4862830000000  0.3757660000000  0.4450850000000 1.0
C      1  0.4750390000000  0.3684190000000  0.4693930000000 1.0
C      1  0.4904820000000  0.4280320000000  0.5101400000000 1.0
C      1  0.4177450000000  0.5504350000000  0.5081110000000 1.0
C      1  0.5560390000000  0.4911520000000  0.5842430000000 1.0
C      1  0.4108140000000  0.5656990000000  0.4845110000000 1.0
C      1  0.4201260000000  0.5480010000000  0.4136890000000 1.0
C      1  0.4215040000000  0.5871760000000  0.4714150000000 1.0
C      1  0.5207690000000  0.3716550000000  0.4901030000000 1.0
C      1  0.5489870000000  0.4400910000000  0.4784450000000 1.0
C      1  0.5209180000000  0.5043940000000  0.6232750000000 1.0
C      1  0.5111600000000  0.5964370000000  0.4356450000000 1.0
C      1  0.5941970000000  0.4460810000000  0.5329920000000 1.0
C      1  0.3887280000000  0.4759240000000  0.5754390000000 1.0
C      1  0.5158600000000  0.5743460000000  0.6181160000000 1.0
C      1  0.4475130000000  0.4441770000000  0.5306420000000 1.0
C      1  0.5658820000000  0.4083090000000  0.5400940000000 1.0
C      1  0.5224740000000  0.3919420000000  0.4198700000000 1.0
C      1  0.4609360000000  0.4633030000000  0.6460510000000 1.0
C      1  0.4776840000000  0.4700470000000  0.4245520000000 1.0
C      1  0.4479940000000  0.4051960000000  0.4361040000000 1.0
C      1  0.5852670000000  0.4429590000000  0.4288520000000 1.0
C      1  0.5017500000000  0.5743700000000  0.5471190000000 1.0
C      1  0.5905260000000  0.4775930000000  0.4865040000000 1.0
C      1  0.4614030000000  0.4744350000000  0.4472500000000 1.0
C      1  0.5501740000000  0.5907580000000  0.4681440000000 1.0
C      1  0.4218880000000  0.5203040000000  0.6234890000000 1.0
C      1  0.5085090000000  0.5019530000000  0.5976700000000 1.0
C      1  0.4580260000000  0.5126610000000  0.5838810000000 1.0
C      1  0.5593170000000  0.4703410000000  0.5181250000000 1.0
C      1  0.4530130000000  0.4449130000000  0.4837010000000 1.0
C      1  0.4067480000000  0.4701760000000  0.5233440000000 1.0
C      1  0.4869740000000  0.5785310000000  0.4995600000000 1.0
C      1  0.4626530000000  0.4526590000000  0.5531200000000 1.0
C      1  0.5957720000000  0.5314820000000  0.4956150000000 1.0
C      1  0.4315820000000  0.3998220000000  0.5565240000000 1.0
C      1  0.5193780000000  0.4009230000000  0.5447040000000 1.0
C      1  0.4202240000000  0.4101540000000  0.4818030000000 1.0
C      1  0.5590400000000  0.5172830000000  0.6515280000000 1.0
C      1  0.5498490000000  0.4477510000000  0.5039940000000 1.0
C      1  0.4385640000000  0.5859960000000  0.5436070000000 1.0
C      1  0.5402450000000  0.4214480000000  0.5826600000000 1.0
C      1  0.5792390000000  0.4057230000000  0.4666790000000 1.0
C      1  0.4362460000000  0.3963300000000  0.4615780000000 1.0
C      1  0.5155830000000  0.6376680000000  0.4026700000000 1.0
C      1  0.4860240000000  0.6080390000000  0.5057530000000 1.0
C      1  0.4274290000000  0.4883110000000  0.3705370000000 1.0
C      1  0.5731080000000  0.5285840000000  0.4074480000000 1.0
C      1  0.5481310000000  0.5119690000000  0.6271750000000 1.0
C      1  0.4374480000000  0.5684330000000  0.5216000000000 1.0
C      1  0.4177140000000  0.4157320000000  0.5105570000000 1.0
C      1  0.3938350000000  0.4758070000000  0.5477970000000 1.0
C      1  0.5733340000000  0.4926020000000  0.4683290000000 1.0
C      1  0.5614140000000  0.5539860000000  0.4074980000000 1.0
C      1  0.3875000000000  0.5283550000000  0.6624230000000 1.0
C      1  0.4931710000000  0.5162650000000  0.3947710000000 1.0
C      1  0.5970980000000  0.4937190000000  0.5594190000000 1.0
C      1  0.5282460000000  0.4900290000000  0.4926340000000 1.0
C      1  0.5142650000000  0.4442130000000  0.4438170000000 1.0
C      1  0.5471740000000  0.6721000000000  0.4208240000000 1.0
C      1  0.3653160000000  0.4866080000000  0.5848060000000 1.0
C      1  0.5442910000000  0.6626790000000  0.5637280000000 1.0
C      1  0.5267150000000  0.6224140000000  0.5323410000000 1.0
C      1  0.5141080000000  0.3745070000000  0.4420730000000 1.0
C      1  0.4994440000000  0.4243520000000  0.3900110000000 1.0
C      1  0.4946530000000  0.5265780000000  0.5177680000000 1.0
C      1  0.5115920000000  0.4985400000000  0.3823190000000 1.0
C      1  0.5123640000000  0.5334080000000  0.4957740000000 1.0
C      1  0.4210620000000  0.5348780000000  0.4394120000000 1.0
C      1  0.4875850000000  0.5990650000000  0.5514260000000 1.0
C      1  0.4866670000000  0.4794200000000  0.5205770000000 1.0
C      1  0.6061620000000  0.5230120000000  0.5204270000000 1.0
C      1  0.5515450000000  0.5742460000000  0.4217340000000 1.0
C      1  0.4213310000000  0.5205970000000  0.5132680000000 1.0
C      1  0.4385690000000  0.5136090000000  0.6040170000000 1.0
C      1  0.4915040000000  0.3696300000000  0.4934570000000 1.0
C      1  0.4977880000000  0.4050770000000  0.4104980000000 1.0
C      1  0.5063480000000  0.4658810000000  0.4275130000000 1.0
C      1  0.4746560000000  0.3965550000000  0.4280700000000 1.0
C      1  0.4876310000000  0.4651120000000  0.5455180000000 1.0
C      1  0.5858470000000  0.4194370000000  0.5214080000000 1.0
C      1  0.5434610000000  0.4961770000000  0.4686920000000 1.0
C      1  0.4682660000000  0.5742750000000  0.6184220000000 1.0
C      1  0.5707420000000  0.5724270000000  0.4740270000000 1.0
C      1  0.5692410000000  0.5379910000000  0.5901910000000 1.0
C      1  0.4683400000000  0.5352490000000  0.5153820000000 1.0
C      1  0.5881410000000  0.5074280000000  0.4494440000000 1.0
C      1  0.5004320000000  0.4444330000000  0.6058960000000 1.0
C      1  0.5657170000000  0.5888220000000  0.5307830000000 1.0
C      1  0.4488990000000  0.5157040000000  0.5264600000000 1.0
C      1  0.5043730000000  0.5415270000000  0.4695160000000 1.0
C      1  0.5079610000000  0.6155710000000  0.4154190000000 1.0
C      1  0.5568730000000  0.3906990000000  0.4555250000000 1.0
C      1  0.4521100000000  0.6287390000000  0.4711670000000 1.0
C      1  0.4296760000000  0.3950840000000  0.5287670000000 1.0
C      1  0.5490200000000  0.5428050000000  0.5267720000000 1.0
C      1  0.4046540000000  0.5246770000000  0.6431420000000 1.0
C      1  0.5629300000000  0.4258190000000  0.5647720000000 1.0
C      1  0.5388090000000  0.3740740000000  0.5115170000000 1.0
C      1  0.4684240000000  0.4718670000000  0.6694960000000 1.0
C      1  0.4451210000000  0.4676580000000  0.4689980000000 1.0
C      1  0.5059170000000  0.4230080000000  0.5334390000000 1.0
C      1  0.5499650000000  0.3969510000000  0.4268880000000 1.0
C      1  0.4889590000000  0.5850320000000  0.4489800000000 1.0
END
