TITL C-3201372-1405-484 -2.49770992081111e-07 125000 -662.006687207379 0 0 106 (C1) n - 1
REM
REM in /home/nfs/bkarasulu/CARBON/AIRSS/Generating-Clusters/LCBOP/Higher-Symm/SD-CG/FIRE-CG
REM
REM
REM
REM
REM
REM ./C.cell (b20cbc046b6831c77cfcea5457e17084)
REM AIRSS Version 0.9.1 bugfix July 2018 build 013d7b7c2542+ Fri, 06 Jul 2018 19:26:36 +0100
REM compiler GCC version 9.2.1 20190827 (Red Hat 9.2.1-1)
REM options -cpp -mtune=generic -march=x86-64 -g -O0 -fpre-include=/usr/include/finclude/math-vector-fortran.h
REM seed 1020139469 493435779 -453179808 -365801037 -1880717971 -1312252392 -1223213230 1854190329 589063398 1447451750 -135140292 247189452 -1813467571 -371998285 431124055 1261533006 -1472415754 -1259396190 686971403 -1976626763 336527111 -1669250478 -894650954 1536740124 -184055446 2019711366 1278881663 -270052808 -25326673 -345467907 -1043567958 -505911123 -360040757
REM
CELL 1.54180   50.00000   50.00000   50.00000   90.00000   90.00000   90.00000
LATT -1
SFAC C  
C      1  0.5177180000000  0.4804840000000  0.5957170000000 1.0
C      1  0.4703450000000  0.4916070000000  0.5961170000000 1.0
C      1  0.5038420000000  0.5273050000000  0.5945300000000 1.0
C      1  0.4275500000000  0.4984480000000  0.4323320000000 1.0
C      1  0.5282260000000  0.5569760000000  0.4336790000000 1.0
C      1  0.5305270000000  0.4477450000000  0.4314570000000 1.0
C      1  0.5262790000000  0.6034560000000  0.4889900000000 1.0
C      1  0.5764640000000  0.4282340000000  0.4879560000000 1.0
C      1  0.3936490000000  0.4714490000000  0.4909660000000 1.0
C      1  0.3989770000000  0.5275800000000  0.5544950000000 1.0
C      1  0.5752620000000  0.5720920000000  0.5522950000000 1.0
C      1  0.5242390000000  0.3975540000000  0.5433730000000 1.0
C      1  0.4740300000000  0.4681380000000  0.4822020000000 1.0
C      1  0.4835950000000  0.5352980000000  0.4810320000000 1.0
C      1  0.5556920000000  0.4902750000000  0.4839920000000 1.0
C      1  0.5051410000000  0.5633720000000  0.4188730000000 1.0
C      1  0.5506740000000  0.4629460000000  0.4188720000000 1.0
C      1  0.4319730000000  0.4722850000000  0.4214840000000 1.0
C      1  0.5401380000000  0.4264680000000  0.4489320000000 1.0
C      1  0.4066460000000  0.5042680000000  0.4511440000000 1.0
C      1  0.5449870000000  0.5750600000000  0.4480860000000 1.0
C      1  0.5151790000000  0.5081690000000  0.4483020000000 1.0
C      1  0.4999970000000  0.4882730000000  0.4316490000000 1.0
C      1  0.4729820000000  0.4952600000000  0.4402180000000 1.0
C      1  0.5903000000000  0.5240850000000  0.4333400000000 1.0
C      1  0.4809060000000  0.4137760000000  0.4332920000000 1.0
C      1  0.4321100000000  0.5583310000000  0.4309780000000 1.0
C      1  0.4517470000000  0.5226090000000  0.5164210000000 1.0
C      1  0.5448840000000  0.5325720000000  0.5110840000000 1.0
C      1  0.5076010000000  0.4619420000000  0.5165610000000 1.0
C      1  0.5504130000000  0.5052310000000  0.5077290000000 1.0
C      1  0.4808670000000  0.4664220000000  0.5097080000000 1.0
C      1  0.4758270000000  0.5346850000000  0.5081810000000 1.0
C      1  0.4456720000000  0.4823700000000  0.5918000000000 1.0
C      1  0.5110530000000  0.5526090000000  0.5898950000000 1.0
C      1  0.5357490000000  0.4616020000000  0.5902140000000 1.0
C      1  0.4993350000000  0.4000420000000  0.4475550000000 1.0
C      1  0.4081900000000  0.5521320000000  0.4417370000000 1.0
C      1  0.5865460000000  0.5502910000000  0.4369440000000 1.0
C      1  0.4524830000000  0.5135330000000  0.4335570000000 1.0
C      1  0.5308730000000  0.5292940000000  0.4390740000000 1.0
C      1  0.5033190000000  0.4590910000000  0.4315080000000 1.0
C      1  0.4443440000000  0.4517070000000  0.5376260000000 1.0
C      1  0.4855240000000  0.5702680000000  0.5382450000000 1.0
C      1  0.5721380000000  0.4781910000000  0.5408310000000 1.0
C      1  0.4798160000000  0.5962470000000  0.4916830000000 1.0
C      1  0.6068870000000  0.4626600000000  0.4998170000000 1.0
C      1  0.4221420000000  0.4337150000000  0.4926890000000 1.0
C      1  0.5762750000000  0.5632890000000  0.4820490000000 1.0
C      1  0.5162600000000  0.4228610000000  0.4884720000000 1.0
C      1  0.4091190000000  0.5358360000000  0.4873370000000 1.0
C      1  0.4760540000000  0.4432170000000  0.4368030000000 1.0
C      1  0.4581740000000  0.5443670000000  0.4358880000000 1.0
C      1  0.5812110000000  0.4989410000000  0.4416230000000 1.0
C      1  0.4520830000000  0.4540340000000  0.4209490000000 1.0
C      1  0.4798590000000  0.5542650000000  0.4173020000000 1.0
C      1  0.5697240000000  0.4810090000000  0.4234260000000 1.0
C      1  0.5479940000000  0.4096410000000  0.5444970000000 1.0
C      1  0.3951770000000  0.5013480000000  0.5504790000000 1.0
C      1  0.5537400000000  0.5876580000000  0.5485710000000 1.0
C      1  0.5802240000000  0.4926100000000  0.4693740000000 1.0
C      1  0.4654730000000  0.4460220000000  0.4665190000000 1.0
C      1  0.4696070000000  0.5532240000000  0.4637600000000 1.0
C      1  0.4541580000000  0.4992490000000  0.5314980000000 1.0
C      1  0.5209900000000  0.5394320000000  0.5240680000000 1.0
C      1  0.5225530000000  0.4768870000000  0.5350300000000 1.0
C      1  0.5936190000000  0.5229420000000  0.5571330000000 1.0
C      1  0.4733530000000  0.4083010000000  0.5470600000000 1.0
C      1  0.4360550000000  0.5645570000000  0.5574860000000 1.0
C      1  0.4231420000000  0.4756320000000  0.5790030000000 1.0
C      1  0.5181070000000  0.5752720000000  0.5774740000000 1.0
C      1  0.5516020000000  0.4449530000000  0.5765880000000 1.0
C      1  0.4937760000000  0.5458910000000  0.5263600000000 1.0
C      1  0.5477080000000  0.4888540000000  0.5309550000000 1.0
C      1  0.4614910000000  0.4723970000000  0.5288960000000 1.0
C      1  0.4606310000000  0.5725480000000  0.5507610000000 1.0
C      1  0.5894980000000  0.4968800000000  0.5525220000000 1.0
C      1  0.4544850000000  0.4270010000000  0.5455690000000 1.0
C      1  0.5635060000000  0.5512250000000  0.5020690000000 1.0
C      1  0.5226820000000  0.4492230000000  0.4962900000000 1.0
C      1  0.4273350000000  0.5315880000000  0.5062660000000 1.0
C      1  0.5349780000000  0.5953980000000  0.4648930000000 1.0
C      1  0.5649030000000  0.4261610000000  0.4634490000000 1.0
C      1  0.3949300000000  0.4847600000000  0.4677550000000 1.0
C      1  0.4684770000000  0.5799220000000  0.4734630000000 1.0
C      1  0.6032620000000  0.4830600000000  0.4826130000000 1.0
C      1  0.4434080000000  0.4314780000000  0.4764280000000 1.0
C      1  0.5758300000000  0.4500800000000  0.5348590000000 1.0
C      1  0.4165950000000  0.4585900000000  0.5341840000000 1.0
C      1  0.5051850000000  0.5908280000000  0.5335730000000 1.0
C      1  0.5398640000000  0.4668110000000  0.4820650000000 1.0
C      1  0.4769250000000  0.4922650000000  0.4688530000000 1.0
C      1  0.4977350000000  0.5125470000000  0.4721480000000 1.0
C      1  0.5041940000000  0.6003190000000  0.5062100000000 1.0
C      1  0.5876550000000  0.4438670000000  0.5091280000000 1.0
C      1  0.4074840000000  0.4532960000000  0.5073970000000 1.0
C      1  0.4976830000000  0.3976710000000  0.5453130000000 1.0
C      1  0.4142460000000  0.5491630000000  0.5584500000000 1.0
C      1  0.5883410000000  0.5491400000000  0.5564590000000 1.0
C      1  0.5714120000000  0.5660000000000  0.4544690000000 1.0
C      1  0.5196120000000  0.4120600000000  0.4626970000000 1.0
C      1  0.4037980000000  0.5313470000000  0.4601340000000 1.0
C      1  0.5260520000000  0.5887530000000  0.5534850000000 1.0
C      1  0.5609840000000  0.4331250000000  0.5524980000000 1.0
C      1  0.4079040000000  0.4766320000000  0.5548690000000 1.0
C      1  0.4972860000000  0.4998940000000  0.5956260000000 1.0
END
