TITL C-3201373-1215-1411 0.0912501839446554 125000 -1171.15878806527 0 0 193 (C1) n - 1
REM
REM in /home/nfs/bkarasulu/CARBON/AIRSS/Generating-Clusters/LCBOP/Higher-Symm/SD-CG/FIRE-CG
REM
REM
REM
REM
REM
REM ./C.cell (b20cbc046b6831c77cfcea5457e17084)
REM AIRSS Version 0.9.1 bugfix July 2018 build 013d7b7c2542+ Fri, 06 Jul 2018 19:26:36 +0100
REM compiler GCC version 9.2.1 20190827 (Red Hat 9.2.1-1)
REM options -cpp -mtune=generic -march=x86-64 -g -O0 -fpre-include=/usr/include/finclude/math-vector-fortran.h
REM seed 1627553274 -191486869 -187611710 153276000 -530473849 -1829117681 -486262376 1704720777 1824350103 1056712196 47031005 -2027703556 1389483632 -890032256 -1265433785 5317284 -1491751896 -1594349722 -40984852 -173307823 1852135979 1202949051 -1563235765 1380126707 1208213743 217818802 -1043547231 -2102534330 -978541729 -1704102696 -1039968043 -2120158620 -119291490
REM
CELL 1.54180   50.00000   50.00000   50.00000   90.00000   90.00000   90.00000
LATT -1
SFAC C  
C      1  0.4969110000000  0.3957530000000  0.4484460000000 1.0
C      1  0.5452230000000  0.3943160000000  0.4723360000000 1.0
C      1  0.5486250000000  0.3933950000000  0.5272780000000 1.0
C      1  0.5036530000000  0.3846710000000  0.5564570000000 1.0
C      1  0.4554050000000  0.3877400000000  0.5315880000000 1.0
C      1  0.4523090000000  0.3852230000000  0.4776870000000 1.0
C      1  0.5050370000000  0.6040670000000  0.4439470000000 1.0
C      1  0.4584240000000  0.6116030000000  0.4714810000000 1.0
C      1  0.4579140000000  0.6145490000000  0.5254170000000 1.0
C      1  0.5031060000000  0.6054040000000  0.5533530000000 1.0
C      1  0.5501890000000  0.6090750000000  0.5265590000000 1.0
C      1  0.5507430000000  0.6027640000000  0.4727690000000 1.0
C      1  0.5592900000000  0.5298550000000  0.4887030000000 1.0
C      1  0.5268670000000  0.5152110000000  0.5424900000000 1.0
C      1  0.4786730000000  0.5324900000000  0.5500740000000 1.0
C      1  0.4444990000000  0.5297600000000  0.5035350000000 1.0
C      1  0.4515990000000  0.5415840000000  0.4512590000000 1.0
C      1  0.5156160000000  0.5308850000000  0.4432110000000 1.0
C      1  0.4366190000000  0.4734680000000  0.5005340000000 1.0
C      1  0.4668890000000  0.4606380000000  0.5448330000000 1.0
C      1  0.5276180000000  0.4867620000000  0.5487210000000 1.0
C      1  0.5587050000000  0.4629030000000  0.5116380000000 1.0
C      1  0.5414250000000  0.4643270000000  0.4506420000000 1.0
C      1  0.4715280000000  0.4657920000000  0.4478470000000 1.0
C      1  0.5655150000000  0.5862980000000  0.5345460000000 1.0
C      1  0.5007540000000  0.5806850000000  0.5690260000000 1.0
C      1  0.4406860000000  0.5929180000000  0.5332010000000 1.0
C      1  0.4403030000000  0.5898590000000  0.4652100000000 1.0
C      1  0.5040270000000  0.5807190000000  0.4269820000000 1.0
C      1  0.5654660000000  0.5784130000000  0.4662280000000 1.0
C      1  0.4415580000000  0.4124770000000  0.5397000000000 1.0
C      1  0.5033390000000  0.4069310000000  0.5746240000000 1.0
C      1  0.5624670000000  0.4168040000000  0.5379680000000 1.0
C      1  0.5595070000000  0.4163090000000  0.4609400000000 1.0
C      1  0.4957790000000  0.4208080000000  0.4329600000000 1.0
C      1  0.4350920000000  0.4069950000000  0.4710000000000 1.0
C      1  0.5995220000000  0.4647120000000  0.4876040000000 1.0
C      1  0.5578490000000  0.4674720000000  0.5815800000000 1.0
C      1  0.4636460000000  0.4648920000000  0.5915030000000 1.0
C      1  0.3840510000000  0.4698080000000  0.5017150000000 1.0
C      1  0.4362490000000  0.4571800000000  0.4198730000000 1.0
C      1  0.5638600000000  0.4730590000000  0.4018630000000 1.0
C      1  0.3911910000000  0.5345860000000  0.5018540000000 1.0
C      1  0.4390120000000  0.5356750000000  0.5751980000000 1.0
C      1  0.5397610000000  0.5329960000000  0.5856470000000 1.0
C      1  0.6004600000000  0.5335050000000  0.5121050000000 1.0
C      1  0.5584660000000  0.5371510000000  0.4190030000000 1.0
C      1  0.4624700000000  0.5281310000000  0.4067940000000 1.0
C      1  0.6138330000000  0.5299900000000  0.4870850000000 1.0
C      1  0.5680310000000  0.5312190000000  0.5839000000000 1.0
C      1  0.4542330000000  0.5322290000000  0.5992460000000 1.0
C      1  0.3764290000000  0.5277080000000  0.5249820000000 1.0
C      1  0.4341480000000  0.5232490000000  0.4042800000000 1.0
C      1  0.5452040000000  0.5328290000000  0.3943360000000 1.0
C      1  0.3735360000000  0.4787490000000  0.4769740000000 1.0
C      1  0.4355180000000  0.4686250000000  0.5868500000000 1.0
C      1  0.5416500000000  0.4704870000000  0.6047120000000 1.0
C      1  0.6123020000000  0.4679120000000  0.5129850000000 1.0
C      1  0.5902070000000  0.4829370000000  0.4048830000000 1.0
C      1  0.4560060000000  0.4604510000000  0.3991270000000 1.0
C      1  0.6153370000000  0.5093580000000  0.4697830000000 1.0
C      1  0.5846490000000  0.5100020000000  0.5829250000000 1.0
C      1  0.4687260000000  0.5121010000000  0.6099050000000 1.0
C      1  0.3679490000000  0.5039660000000  0.5344940000000 1.0
C      1  0.4170320000000  0.5030760000000  0.4100690000000 1.0
C      1  0.5406380000000  0.5110820000000  0.3791740000000 1.0
C      1  0.3722870000000  0.5036910000000  0.4667990000000 1.0
C      1  0.4198750000000  0.4885570000000  0.5775220000000 1.0
C      1  0.5301520000000  0.4927020000000  0.6148630000000 1.0
C      1  0.6142980000000  0.4884020000000  0.5303960000000 1.0
C      1  0.5987580000000  0.5072580000000  0.4126870000000 1.0
C      1  0.4727130000000  0.4805330000000  0.3919600000000 1.0
C      1  0.5241080000000  0.4378550000000  0.4884090000000 1.0
C      1  0.5239430000000  0.4339230000000  0.5175690000000 1.0
C      1  0.4999850000000  0.4292270000000  0.5313960000000 1.0
C      1  0.4761950000000  0.4295590000000  0.5147400000000 1.0
C      1  0.4737770000000  0.4330850000000  0.4872160000000 1.0
C      1  0.4989920000000  0.4399490000000  0.4753020000000 1.0
C      1  0.4749360000000  0.5650770000000  0.4859680000000 1.0
C      1  0.4769610000000  0.5668050000000  0.5142390000000 1.0
C      1  0.5035810000000  0.5640120000000  0.5255920000000 1.0
C      1  0.5282690000000  0.5645110000000  0.5114860000000 1.0
C      1  0.5246700000000  0.5619180000000  0.4830750000000 1.0
C      1  0.4987680000000  0.5633200000000  0.4708820000000 1.0
C      1  0.5517620000000  0.6144780000000  0.4987030000000 1.0
C      1  0.5279740000000  0.6144460000000  0.5431050000000 1.0
C      1  0.4801060000000  0.6180420000000  0.5425530000000 1.0
C      1  0.4579210000000  0.6217310000000  0.4980090000000 1.0
C      1  0.4810970000000  0.6147810000000  0.4547240000000 1.0
C      1  0.5300600000000  0.6106540000000  0.4551910000000 1.0
C      1  0.4521640000000  0.3780530000000  0.5050110000000 1.0
C      1  0.4780690000000  0.3781330000000  0.5459680000000 1.0
C      1  0.5281690000000  0.3808790000000  0.5426690000000 1.0
C      1  0.5500920000000  0.3876940000000  0.4994410000000 1.0
C      1  0.5220250000000  0.3870210000000  0.4582150000000 1.0
C      1  0.4742990000000  0.3828050000000  0.4599030000000 1.0
C      1  0.5507680000000  0.4432970000000  0.4710600000000 1.0
C      1  0.5492260000000  0.4435360000000  0.5330160000000 1.0
C      1  0.4962300000000  0.4308790000000  0.5612680000000 1.0
C      1  0.4547820000000  0.4369340000000  0.5319010000000 1.0
C      1  0.4497010000000  0.4312140000000  0.4688790000000 1.0
C      1  0.4933140000000  0.4457120000000  0.4480490000000 1.0
C      1  0.4516220000000  0.5639850000000  0.4692500000000 1.0
C      1  0.4542500000000  0.5680450000000  0.5334020000000 1.0
C      1  0.5022850000000  0.5537240000000  0.5541510000000 1.0
C      1  0.5562340000000  0.5628250000000  0.5217920000000 1.0
C      1  0.5500540000000  0.5518090000000  0.4685060000000 1.0
C      1  0.4968330000000  0.5544830000000  0.4406050000000 1.0
C      1  0.5133510000000  0.4772640000000  0.5244880000000 1.0
C      1  0.4847470000000  0.4804770000000  0.5330690000000 1.0
C      1  0.4586110000000  0.4875190000000  0.4901830000000 1.0
C      1  0.4618540000000  0.4893150000000  0.4617400000000 1.0
C      1  0.5230730000000  0.4852730000000  0.4579100000000 1.0
C      1  0.5372460000000  0.4809000000000  0.5052450000000 1.0
C      1  0.4765320000000  0.5083450000000  0.5333900000000 1.0
C      1  0.5196430000000  0.5201540000000  0.5129540000000 1.0
C      1  0.5426030000000  0.5085570000000  0.4986310000000 1.0
C      1  0.5093780000000  0.5102160000000  0.4633790000000 1.0
C      1  0.4485660000000  0.5133460000000  0.4539650000000 1.0
C      1  0.4691340000000  0.5125260000000  0.5039290000000 1.0
C      1  0.4115810000000  0.4648260000000  0.5030310000000 1.0
C      1  0.4472760000000  0.4484490000000  0.4452110000000 1.0
C      1  0.5512290000000  0.4623600000000  0.4243910000000 1.0
C      1  0.5730460000000  0.4547570000000  0.4885660000000 1.0
C      1  0.5445260000000  0.4640710000000  0.5567440000000 1.0
C      1  0.4774870000000  0.4515400000000  0.5704580000000 1.0
C      1  0.5737330000000  0.5429810000000  0.5102510000000 1.0
C      1  0.5429750000000  0.5393900000000  0.4423650000000 1.0
C      1  0.4704580000000  0.5443350000000  0.4294220000000 1.0
C      1  0.4189490000000  0.5372640000000  0.5036730000000 1.0
C      1  0.4534580000000  0.5468960000000  0.5533150000000 1.0
C      1  0.5248400000000  0.5357870000000  0.5617450000000 1.0
C      1  0.5241040000000  0.4123450000000  0.6519820000000 1.0
C      1  0.3698640000000  0.4251850000000  0.5728610000000 1.0
C      1  0.3550230000000  0.4103090000000  0.4692710000000 1.0
C      1  0.5162700000000  0.4270820000000  0.3555390000000 1.0
C      1  0.6202640000000  0.4180910000000  0.4083280000000 1.0
C      1  0.6324820000000  0.4247100000000  0.5763120000000 1.0
C      1  0.4932980000000  0.5734700000000  0.6488800000000 1.0
C      1  0.6271460000000  0.5777250000000  0.5851130000000 1.0
C      1  0.6411880000000  0.5804460000000  0.4382410000000 1.0
C      1  0.5110130000000  0.5789560000000  0.3466750000000 1.0
C      1  0.3609970000000  0.5944170000000  0.4563230000000 1.0
C      1  0.3608350000000  0.5957680000000  0.5345550000000 1.0
C      1  0.5867220000000  0.4150830000000  0.5515990000000 1.0
C      1  0.5097500000000  0.4052770000000  0.6015190000000 1.0
C      1  0.4171270000000  0.4123000000000  0.5529550000000 1.0
C      1  0.4076390000000  0.4049390000000  0.4679180000000 1.0
C      1  0.4997650000000  0.4205840000000  0.4053810000000 1.0
C      1  0.5803930000000  0.4133070000000  0.4427820000000 1.0
C      1  0.4135830000000  0.5959410000000  0.5381930000000 1.0
C      1  0.4973310000000  0.5813510000000  0.5967270000000 1.0
C      1  0.5866650000000  0.5872450000000  0.5524140000000 1.0
C      1  0.5919900000000  0.5793710000000  0.4577100000000 1.0
C      1  0.5080350000000  0.5821330000000  0.3994270000000 1.0
C      1  0.4138530000000  0.5938880000000  0.4578110000000 1.0
C      1  0.4161100000000  0.4772210000000  0.4181640000000 1.0
C      1  0.5480990000000  0.4853390000000  0.3818670000000 1.0
C      1  0.6083260000000  0.4833590000000  0.4682810000000 1.0
C      1  0.5814670000000  0.4832270000000  0.5816120000000 1.0
C      1  0.4745880000000  0.4859000000000  0.6069970000000 1.0
C      1  0.3708710000000  0.4788790000000  0.5250500000000 1.0
C      1  0.5856570000000  0.5296930000000  0.4196920000000 1.0
C      1  0.4777060000000  0.5068450000000  0.3958130000000 1.0
C      1  0.3796900000000  0.5275100000000  0.4769890000000 1.0
C      1  0.4200800000000  0.5148640000000  0.5714150000000 1.0
C      1  0.5284590000000  0.5185370000000  0.6072800000000 1.0
C      1  0.6085230000000  0.5147210000000  0.5316380000000 1.0
C      1  0.5315340000000  0.4174780000000  0.6764380000000 1.0
C      1  0.3470160000000  0.4343660000000  0.5814220000000 1.0
C      1  0.3295570000000  0.4154280000000  0.4714890000000 1.0
C      1  0.5251410000000  0.4327610000000  0.3316920000000 1.0
C      1  0.6392270000000  0.4228920000000  0.3910960000000 1.0
C      1  0.6546330000000  0.4319070000000  0.5880230000000 1.0
C      1  0.4911080000000  0.5671240000000  0.6740700000000 1.0
C      1  0.6464280000000  0.5706470000000  0.6011660000000 1.0
C      1  0.6653560000000  0.5789520000000  0.4285820000000 1.0
C      1  0.5130080000000  0.5755840000000  0.3209020000000 1.0
C      1  0.3350210000000  0.5927550000000  0.4577610000000 1.0
C      1  0.3351860000000  0.5935700000000  0.5304500000000 1.0
C      1  0.6072170000000  0.5839830000000  0.5687990000000 1.0
C      1  0.4953830000000  0.5789230000000  0.6230270000000 1.0
C      1  0.3871120000000  0.5967980000000  0.5378770000000 1.0
C      1  0.3874840000000  0.5951470000000  0.4556520000000 1.0
C      1  0.5092520000000  0.5817380000000  0.3729740000000 1.0
C      1  0.6165890000000  0.5812420000000  0.4480750000000 1.0
C      1  0.3933060000000  0.4171150000000  0.5634890000000 1.0
C      1  0.5166770000000  0.4076910000000  0.6269680000000 1.0
C      1  0.6097890000000  0.4183170000000  0.5642040000000 1.0
C      1  0.6006230000000  0.4143120000000  0.4257190000000 1.0
C      1  0.5076270000000  0.4224090000000  0.3801540000000 1.0
C      1  0.3811960000000  0.4064220000000  0.4677210000000 1.0
C      1  0.4980620000000  0.5169960000000  0.4916430000000 1.0
END
