TITL C-3201373-1215-158 -3031.55101247537 125000 -1208.36959268306 0 0 198 (C1) n - 1
REM
REM in /home/nfs/bkarasulu/CARBON/AIRSS/Generating-Clusters/LCBOP/Higher-Symm/SD-CG/FIRE-CG
REM
REM
REM
REM
REM
REM ./C.cell (b20cbc046b6831c77cfcea5457e17084)
REM AIRSS Version 0.9.1 bugfix July 2018 build 013d7b7c2542+ Fri, 06 Jul 2018 19:26:36 +0100
REM compiler GCC version 9.2.1 20190827 (Red Hat 9.2.1-1)
REM options -cpp -mtune=generic -march=x86-64 -g -O0 -fpre-include=/usr/include/finclude/math-vector-fortran.h
REM seed -541764917 -1257575220 -1984981369 -443426950 -241027176 345445614 1665648533 925713468 -1552951343 1215712613 1739226311 -710821774 747264664 -1017960714 1259492234 -1418143397 -1760919065 -606427279 299601306 1515699449 -1128087881 1044779910 -774838773 -288222183 102187486 874762271 1176366394 -468933314 -2086821360 1262225696 951193245 -1363516061 1522098691
REM
CELL 1.54180   50.00000   50.00000   50.00000   90.00000   90.00000   90.00000
LATT -1
SFAC C  
C      1  0.5412720000000  0.4906420000000  0.4558360000000 1.0
C      1  0.5372910000000  0.5009590000000  0.5493320000000 1.0
C      1  0.4190600000000  0.4823370000000  0.4982950000000 1.0
C      1  0.4173720000000  0.4533270000000  0.4963190000000 1.0
C      1  0.5387940000000  0.4620550000000  0.4517710000000 1.0
C      1  0.5368420000000  0.4730630000000  0.5546330000000 1.0
C      1  0.5886900000000  0.4290390000000  0.5726750000000 1.0
C      1  0.3904070000000  0.4373610000000  0.5445810000000 1.0
C      1  0.5140450000000  0.4301760000000  0.3908380000000 1.0
C      1  0.4417640000000  0.4609430000000  0.5542920000000 1.0
C      1  0.4930150000000  0.4734130000000  0.4332100000000 1.0
C      1  0.5775900000000  0.4675950000000  0.5292840000000 1.0
C      1  0.5869450000000  0.4827300000000  0.4732180000000 1.0
C      1  0.4881590000000  0.4639570000000  0.5940490000000 1.0
C      1  0.4423500000000  0.4903680000000  0.4502060000000 1.0
C      1  0.4210160000000  0.5478420000000  0.4096640000000 1.0
C      1  0.6190790000000  0.5451820000000  0.4675530000000 1.0
C      1  0.4448530000000  0.5310040000000  0.6079310000000 1.0
C      1  0.4938410000000  0.5399520000000  0.5976360000000 1.0
C      1  0.4332980000000  0.5516440000000  0.4564510000000 1.0
C      1  0.5741830000000  0.5439400000000  0.4520270000000 1.0
C      1  0.5651940000000  0.5062840000000  0.5103120000000 1.0
C      1  0.4802770000000  0.4864870000000  0.5530590000000 1.0
C      1  0.4948630000000  0.5085730000000  0.4620590000000 1.0
C      1  0.5804680000000  0.5760210000000  0.5450130000000 1.0
C      1  0.3990170000000  0.5614440000000  0.5395470000000 1.0
C      1  0.4917150000000  0.5939620000000  0.3771420000000 1.0
C      1  0.4894700000000  0.6130140000000  0.4727330000000 1.0
C      1  0.5010400000000  0.6093210000000  0.4988060000000 1.0
C      1  0.4804180000000  0.6063240000000  0.5196670000000 1.0
C      1  0.4960350000000  0.4676470000000  0.5378650000000 1.0
C      1  0.4644850000000  0.4595220000000  0.5035610000000 1.0
C      1  0.5121610000000  0.4549700000000  0.4880830000000 1.0
C      1  0.4300390000000  0.5042320000000  0.5494430000000 1.0
C      1  0.5138030000000  0.5054390000000  0.4078700000000 1.0
C      1  0.5920010000000  0.5039670000000  0.5553040000000 1.0
C      1  0.4039490000000  0.5047520000000  0.3907980000000 1.0
C      1  0.6491610000000  0.5050860000000  0.4676870000000 1.0
C      1  0.4633080000000  0.4980890000000  0.6393110000000 1.0
C      1  0.4107310000000  0.4144720000000  0.5448300000000 1.0
C      1  0.5018320000000  0.4136190000000  0.4119390000000 1.0
C      1  0.5738410000000  0.4144520000000  0.5517570000000 1.0
C      1  0.5227090000000  0.4262490000000  0.5369000000000 1.0
C      1  0.4493530000000  0.4131640000000  0.5085200000000 1.0
C      1  0.5128630000000  0.4168770000000  0.4616010000000 1.0
C      1  0.5896070000000  0.5839070000000  0.4726750000000 1.0
C      1  0.4577370000000  0.5710110000000  0.5831940000000 1.0
C      1  0.4374870000000  0.5891450000000  0.4264430000000 1.0
C      1  0.6030510000000  0.4576120000000  0.5400590000000 1.0
C      1  0.4191310000000  0.4597750000000  0.5707160000000 1.0
C      1  0.4892680000000  0.4652410000000  0.4062260000000 1.0
C      1  0.4880050000000  0.4910080000000  0.6463890000000 1.0
C      1  0.4059010000000  0.5241930000000  0.4110720000000 1.0
C      1  0.6289650000000  0.5209840000000  0.4551190000000 1.0
C      1  0.5774470000000  0.5283510000000  0.5625040000000 1.0
C      1  0.4360240000000  0.5304000000000  0.5486230000000 1.0
C      1  0.5085200000000  0.5254270000000  0.3903100000000 1.0
C      1  0.4582860000000  0.5378090000000  0.3757950000000 1.0
C      1  0.6237270000000  0.5347420000000  0.5188620000000 1.0
C      1  0.3977460000000  0.5252560000000  0.5923510000000 1.0
C      1  0.3972160000000  0.4644640000000  0.5536420000000 1.0
C      1  0.5142020000000  0.4586560000000  0.3941160000000 1.0
C      1  0.5969570000000  0.4562160000000  0.5679060000000 1.0
C      1  0.4639540000000  0.4056890000000  0.4518080000000 1.0
C      1  0.5566050000000  0.4076110000000  0.5006100000000 1.0
C      1  0.4648540000000  0.4000210000000  0.5557040000000 1.0
C      1  0.5005770000000  0.6155900000000  0.4457360000000 1.0
C      1  0.5282750000000  0.6056740000000  0.5127320000000 1.0
C      1  0.4520520000000  0.6027970000000  0.5176920000000 1.0
C      1  0.5137500000000  0.4320910000000  0.6205440000000 1.0
C      1  0.3989130000000  0.4693210000000  0.4484140000000 1.0
C      1  0.6105510000000  0.4565000000000  0.4399970000000 1.0
C      1  0.4427350000000  0.5905780000000  0.5422400000000 1.0
C      1  0.4798570000000  0.6110090000000  0.4256970000000 1.0
C      1  0.5560900000000  0.5999450000000  0.5040520000000 1.0
C      1  0.5370520000000  0.5059650000000  0.5130490000000 1.0
C      1  0.4478900000000  0.4856640000000  0.5026770000000 1.0
C      1  0.5214260000000  0.5041070000000  0.4801900000000 1.0
C      1  0.4425100000000  0.5557410000000  0.3917360000000 1.0
C      1  0.6174170000000  0.5520020000000  0.4965990000000 1.0
C      1  0.4206430000000  0.5422900000000  0.5953330000000 1.0
C      1  0.5100280000000  0.4782570000000  0.6348810000000 1.0
C      1  0.3994440000000  0.5151670000000  0.4372850000000 1.0
C      1  0.6127500000000  0.5047940000000  0.4373790000000 1.0
C      1  0.4592790000000  0.5094550000000  0.3796840000000 1.0
C      1  0.6288620000000  0.5064510000000  0.5184650000000 1.0
C      1  0.4004330000000  0.4992370000000  0.6040470000000 1.0
C      1  0.5024020000000  0.5004230000000  0.4340110000000 1.0
C      1  0.5808110000000  0.4955280000000  0.5304880000000 1.0
C      1  0.4516550000000  0.4868270000000  0.5503370000000 1.0
C      1  0.5569950000000  0.4900010000000  0.4084020000000 1.0
C      1  0.5644930000000  0.4943230000000  0.5906790000000 1.0
C      1  0.3898930000000  0.5117240000000  0.5280110000000 1.0
C      1  0.5912920000000  0.5517530000000  0.5546540000000 1.0
C      1  0.3852890000000  0.5363260000000  0.5430880000000 1.0
C      1  0.4906960000000  0.5736780000000  0.3593420000000 1.0
C      1  0.4199120000000  0.4841600000000  0.3837520000000 1.0
C      1  0.6490510000000  0.4832580000000  0.4840000000000 1.0
C      1  0.4449610000000  0.5039550000000  0.6189990000000 1.0
C      1  0.4430330000000  0.5504720000000  0.5035950000000 1.0
C      1  0.5468440000000  0.5509700000000  0.4142720000000 1.0
C      1  0.5297290000000  0.5627870000000  0.5709380000000 1.0
C      1  0.5656120000000  0.5335670000000  0.4764010000000 1.0
C      1  0.4953380000000  0.5176990000000  0.5801570000000 1.0
C      1  0.4583150000000  0.5387460000000  0.4526170000000 1.0
C      1  0.5543480000000  0.3989990000000  0.4721270000000 1.0
C      1  0.4930970000000  0.4001820000000  0.5662000000000 1.0
C      1  0.4389060000000  0.3974170000000  0.4669890000000 1.0
C      1  0.3990280000000  0.5023410000000  0.5023990000000 1.0
C      1  0.5534370000000  0.5050290000000  0.4334480000000 1.0
C      1  0.5525470000000  0.5148930000000  0.5708280000000 1.0
C      1  0.4954540000000  0.5278620000000  0.5530200000000 1.0
C      1  0.4800330000000  0.5543080000000  0.4443450000000 1.0
C      1  0.5488310000000  0.5479550000000  0.4943800000000 1.0
C      1  0.5200950000000  0.4540970000000  0.5432330000000 1.0
C      1  0.4424110000000  0.4396370000000  0.5007280000000 1.0
C      1  0.5219020000000  0.4431380000000  0.4642310000000 1.0
C      1  0.5558830000000  0.4918290000000  0.6168600000000 1.0
C      1  0.3581580000000  0.5380000000000  0.4633480000000 1.0
C      1  0.5830350000000  0.4941770000000  0.3979870000000 1.0
C      1  0.5242300000000  0.5644860000000  0.4182600000000 1.0
C      1  0.5345620000000  0.5585570000000  0.5447270000000 1.0
C      1  0.4672600000000  0.5450980000000  0.5130660000000 1.0
C      1  0.4236130000000  0.5649070000000  0.4335020000000 1.0
C      1  0.5964890000000  0.5608820000000  0.4558620000000 1.0
C      1  0.4672130000000  0.5492960000000  0.6008080000000 1.0
C      1  0.4764800000000  0.5507810000000  0.3583070000000 1.0
C      1  0.6173280000000  0.5460960000000  0.5441650000000 1.0
C      1  0.3798740000000  0.5311120000000  0.5710470000000 1.0
C      1  0.6336430000000  0.4797370000000  0.5077730000000 1.0
C      1  0.4246540000000  0.4843940000000  0.6104380000000 1.0
C      1  0.4481340000000  0.4836230000000  0.3857680000000 1.0
C      1  0.3782020000000  0.5263270000000  0.4514660000000 1.0
C      1  0.6045630000000  0.5058190000000  0.4102120000000 1.0
C      1  0.5360890000000  0.4881890000000  0.6342780000000 1.0
C      1  0.4637990000000  0.4433120000000  0.5538740000000 1.0
C      1  0.4785770000000  0.4629860000000  0.4555390000000 1.0
C      1  0.5614830000000  0.4595530000000  0.5072410000000 1.0
C      1  0.6193280000000  0.4551190000000  0.5164110000000 1.0
C      1  0.4270650000000  0.4571680000000  0.5979450000000 1.0
C      1  0.4618560000000  0.4620850000000  0.3991000000000 1.0
C      1  0.4261880000000  0.5542260000000  0.4832030000000 1.0
C      1  0.5601040000000  0.5329150000000  0.4308560000000 1.0
C      1  0.5155560000000  0.5578310000000  0.5934460000000 1.0
C      1  0.4758580000000  0.5980850000000  0.3998890000000 1.0
C      1  0.5791300000000  0.5863000000000  0.5187150000000 1.0
C      1  0.4201450000000  0.5753690000000  0.5530160000000 1.0
C      1  0.4908560000000  0.5988980000000  0.5463080000000 1.0
C      1  0.4599990000000  0.6101210000000  0.4691250000000 1.0
C      1  0.5513630000000  0.6118750000000  0.4550530000000 1.0
C      1  0.5194230000000  0.6032260000000  0.5415720000000 1.0
C      1  0.4430840000000  0.6077040000000  0.4915820000000 1.0
C      1  0.5282240000000  0.6176720000000  0.4431730000000 1.0
C      1  0.4529540000000  0.4448590000000  0.4214730000000 1.0
C      1  0.6006780000000  0.4387440000000  0.4997150000000 1.0
C      1  0.4453640000000  0.4337490000000  0.5942350000000 1.0
C      1  0.5492750000000  0.4013850000000  0.5627490000000 1.0
C      1  0.4094700000000  0.3970830000000  0.5187470000000 1.0
C      1  0.5225320000000  0.3958700000000  0.4244860000000 1.0
C      1  0.5950230000000  0.4166190000000  0.5962960000000 1.0
C      1  0.3647750000000  0.4321530000000  0.5360860000000 1.0
C      1  0.5244880000000  0.4185150000000  0.3683560000000 1.0
C      1  0.5150840000000  0.3863210000000  0.5106220000000 1.0
C      1  0.4808900000000  0.3781740000000  0.5164150000000 1.0
C      1  0.4911250000000  0.3804450000000  0.4830080000000 1.0
C      1  0.5796860000000  0.4164520000000  0.5170080000000 1.0
C      1  0.4366080000000  0.4115390000000  0.5680840000000 1.0
C      1  0.4693520000000  0.4194120000000  0.4259670000000 1.0
C      1  0.4281510000000  0.5655240000000  0.5795300000000 1.0
C      1  0.4511610000000  0.5824860000000  0.4006140000000 1.0
C      1  0.5994780000000  0.5758380000000  0.4997560000000 1.0
C      1  0.5340640000000  0.4606150000000  0.5040630000000 1.0
C      1  0.4764650000000  0.4499630000000  0.5289760000000 1.0
C      1  0.4850360000000  0.4603400000000  0.4827980000000 1.0
C      1  0.5208030000000  0.4078840000000  0.5598050000000 1.0
C      1  0.4284680000000  0.3974290000000  0.4956050000000 1.0
C      1  0.5337020000000  0.4000030000000  0.4510440000000 1.0
C      1  0.4644730000000  0.3975000000000  0.5269630000000 1.0
C      1  0.4886060000000  0.4021990000000  0.4665160000000 1.0
C      1  0.5310250000000  0.4087000000000  0.5145760000000 1.0
C      1  0.4892810000000  0.4897740000000  0.5803620000000 1.0
C      1  0.4639410000000  0.5110980000000  0.4586770000000 1.0
C      1  0.5756270000000  0.5077090000000  0.4842430000000 1.0
C      1  0.5383240000000  0.5539020000000  0.5184730000000 1.0
C      1  0.4858450000000  0.5368460000000  0.5299860000000 1.0
C      1  0.5017070000000  0.5632900000000  0.4322160000000 1.0
C      1  0.4710970000000  0.4431590000000  0.5829100000000 1.0
C      1  0.4516720000000  0.4627300000000  0.4454580000000 1.0
C      1  0.5814750000000  0.4573350000000  0.4863690000000 1.0
C      1  0.5657130000000  0.6000340000000  0.4757850000000 1.0
C      1  0.4673540000000  0.5876150000000  0.5608400000000 1.0
C      1  0.4543600000000  0.6067100000000  0.4413160000000 1.0
C      1  0.4137820000000  0.4925890000000  0.4466670000000 1.0
C      1  0.6033340000000  0.4809170000000  0.4502510000000 1.0
C      1  0.5041330000000  0.4573510000000  0.6164920000000 1.0
C      1  0.4026250000000  0.4923120000000  0.5456730000000 1.0
C      1  0.5310220000000  0.4824650000000  0.3981460000000 1.0
C      1  0.5882980000000  0.4829000000000  0.5768870000000 1.0
END
