TITL C-3201379-3821-131 6.27458901726288e-06 125000 -263.874912147285 0 0 45 (C3h) n - 1
REM
REM in /home/nfs/bkarasulu/CARBON/AIRSS/Generating-Clusters/LCBOP/Higher-Symm/SD-CG/FIRE-CG
REM
REM
REM
REM
REM
REM ./C.cell (b20cbc046b6831c77cfcea5457e17084)
REM AIRSS Version 0.9.1 bugfix July 2018 build 013d7b7c2542+ Fri, 06 Jul 2018 19:26:36 +0100
REM compiler GCC version 9.2.1 20190827 (Red Hat 9.2.1-1)
REM options -cpp -mtune=generic -march=x86-64 -g -O0 -fpre-include=/usr/include/finclude/math-vector-fortran.h
REM seed 1473347230 499539930 614883933 -1634454737 275795009 -401693992 -1902472205 995225342 2137375907 -771522854 2101134177 106565205 164135634 1845946238 -2105622470 -503168813 -816306462 500381402 -1757454018 2093818517 -451604729 759499909 889858633 -1545020722 -38200880 419633361 1125096705 197220831 1386556327 -1510946603 -1323354292 -2015962478 -658058793
REM
CELL 1.54180   50.00000   50.00000   50.00000   90.00000   90.00000   90.00000
LATT -1
SFAC C  
C      1  0.5089250000000  0.5402210000000  0.4362570000000 1.0
C      1  0.4403350000000  0.5402210000000  0.5241430000000 1.0
C      1  0.5507420000000  0.5402200000000  0.5396010000000 1.0
C      1  0.5089240000000  0.4631330000000  0.4362560000000 1.0
C      1  0.4403340000000  0.4631330000000  0.5241430000000 1.0
C      1  0.5507410000000  0.4631320000000  0.5396000000000 1.0
C      1  0.5052100000000  0.5149300000000  0.5229360000000 1.0
C      1  0.5172590000000  0.5149300000000  0.4840200000000 1.0
C      1  0.4775320000000  0.5149300000000  0.4930440000000 1.0
C      1  0.5052100000000  0.4884230000000  0.5229360000000 1.0
C      1  0.5172590000000  0.4884230000000  0.4840200000000 1.0
C      1  0.4775310000000  0.4884230000000  0.4930440000000 1.0
C      1  0.5572210000000  0.5151270000000  0.5469610000000 1.0
C      1  0.5120580000000  0.5151280000000  0.4269650000000 1.0
C      1  0.4307200000000  0.5151280000000  0.5260750000000 1.0
C      1  0.5572210000000  0.4882250000000  0.5469600000000 1.0
C      1  0.5120580000000  0.4882260000000  0.4269650000000 1.0
C      1  0.4307200000000  0.4882260000000  0.5260750000000 1.0
C      1  0.4673030000000  0.4770470000000  0.4690100000000 1.0
C      1  0.4895100000000  0.4770470000000  0.5438120000000 1.0
C      1  0.5431870000000  0.4770460000000  0.4871780000000 1.0
C      1  0.4673030000000  0.5263070000000  0.4690100000000 1.0
C      1  0.4895110000000  0.5263060000000  0.5438120000000 1.0
C      1  0.5431870000000  0.5263060000000  0.4871790000000 1.0
C      1  0.5356410000000  0.4455870000000  0.5228360000000 1.0
C      1  0.5019560000000  0.4455870000000  0.4577160000000 1.0
C      1  0.4624020000000  0.4455870000000  0.5194480000000 1.0
C      1  0.5356410000000  0.5577660000000  0.5228360000000 1.0
C      1  0.5019570000000  0.5577660000000  0.4577160000000 1.0
C      1  0.4624030000000  0.5577660000000  0.5194480000000 1.0
C      1  0.5102800000000  0.5673770000000  0.5323990000000 1.0
C      1  0.5229190000000  0.5673770000000  0.4748990000000 1.0
C      1  0.4668030000000  0.5673770000000  0.4927030000000 1.0
C      1  0.5102790000000  0.4359760000000  0.5323980000000 1.0
C      1  0.5229180000000  0.4359760000000  0.4748980000000 1.0
C      1  0.4668020000000  0.4359760000000  0.4927030000000 1.0
C      1  0.5391250000000  0.5537570000000  0.4943110000000 1.0
C      1  0.4755120000000  0.5537570000000  0.4689620000000 1.0
C      1  0.4853650000000  0.5537570000000  0.5367270000000 1.0
C      1  0.5391240000000  0.4495960000000  0.4943110000000 1.0
C      1  0.4755110000000  0.4495960000000  0.4689620000000 1.0
C      1  0.4853640000000  0.4495960000000  0.5367270000000 1.0
C      1  0.4805720000000  0.5016760000000  0.5578410000000 1.0
C      1  0.4596220000000  0.5016770000000  0.4542540000000 1.0
C      1  0.5598060000000  0.5016760000000  0.4879040000000 1.0
END
