TITL C-3201376-6384-733 -19072.9897321751 125000 -919.611912151962 0 0 152 (S4) n - 1
REM
REM in /home/nfs/bkarasulu/CARBON/AIRSS/Generating-Clusters/LCBOP/Higher-Symm/SD-CG/FIRE-CG
REM
REM
REM
REM
REM
REM ./C.cell (b20cbc046b6831c77cfcea5457e17084)
REM AIRSS Version 0.9.1 bugfix July 2018 build 013d7b7c2542+ Fri, 06 Jul 2018 19:26:36 +0100
REM compiler GCC version 9.2.1 20190827 (Red Hat 9.2.1-1)
REM options -cpp -mtune=generic -march=x86-64 -g -O0 -fpre-include=/usr/include/finclude/math-vector-fortran.h
REM seed 945666592 -771211777 -1696901256 -1785084888 -2023126684 1217630790 -1050526581 -769166700 1099936646 250815256 1403057729 -1862233592 -294827200 1557142207 805818632 393609985 -305240006 1739775242 -2131054481 1172524633 1865445668 -363220616 339805224 18229731 1384176166 1493951502 1435420100 -400042570 1714085349 1316716642 -1571588452 823205352 1683701088
REM
CELL 1.54180   50.00000   50.00000   50.00000   90.00000   90.00000   90.00000
LATT -1
SFAC C  
C      1  0.4969610000000  0.4442780000000  0.5793190000000 1.0
C      1  0.4206880000000  0.5557330000000  0.4969520000000 1.0
C      1  0.5030390000000  0.4442590000000  0.4206910000000 1.0
C      1  0.5793170000000  0.5557320000000  0.5030310000000 1.0
C      1  0.4922920000000  0.4030030000000  0.4463140000000 1.0
C      1  0.5537000000000  0.5969880000000  0.4922790000000 1.0
C      1  0.5077080000000  0.4030170000000  0.5537070000000 1.0
C      1  0.4463060000000  0.5969910000000  0.5076960000000 1.0
C      1  0.4907920000000  0.5229990000000  0.3909930000000 1.0
C      1  0.6090020000000  0.4769900000000  0.4907880000000 1.0
C      1  0.5092100000000  0.5230190000000  0.6089990000000 1.0
C      1  0.3909970000000  0.4769940000000  0.5092120000000 1.0
C      1  0.5852020000000  0.5603850000000  0.5312430000000 1.0
C      1  0.4687470000000  0.4396300000000  0.5852050000000 1.0
C      1  0.4148030000000  0.5603830000000  0.4687400000000 1.0
C      1  0.5312500000000  0.4396040000000  0.4148070000000 1.0
C      1  0.4363450000000  0.4218200000000  0.5134400000000 1.0
C      1  0.4865710000000  0.5781760000000  0.4363340000000 1.0
C      1  0.5636550000000  0.4218150000000  0.4865760000000 1.0
C      1  0.5134330000000  0.5781870000000  0.5636450000000 1.0
C      1  0.5754490000000  0.4559470000000  0.4401690000000 1.0
C      1  0.5598380000000  0.5440500000000  0.5754390000000 1.0
C      1  0.4245540000000  0.4559720000000  0.5598420000000 1.0
C      1  0.4401650000000  0.5440350000000  0.4245460000000 1.0
C      1  0.5680820000000  0.5060700000000  0.4306660000000 1.0
C      1  0.5693340000000  0.4939770000000  0.5680930000000 1.0
C      1  0.4318910000000  0.5059840000000  0.5693340000000 1.0
C      1  0.4306650000000  0.4939890000000  0.4318970000000 1.0
C      1  0.3589390000000  0.5066010000000  0.4548060000000 1.0
C      1  0.5451980000000  0.4933800000000  0.3589350000000 1.0
C      1  0.6410700000000  0.5065690000000  0.5452620000000 1.0
C      1  0.4547440000000  0.4934450000000  0.6410680000000 1.0
C      1  0.5862410000000  0.4846510000000  0.4438310000000 1.0
C      1  0.5561650000000  0.5153470000000  0.5862390000000 1.0
C      1  0.4137620000000  0.4846720000000  0.5561640000000 1.0
C      1  0.4438340000000  0.5153290000000  0.4137550000000 1.0
C      1  0.5483350000000  0.4868360000000  0.4139880000000 1.0
C      1  0.5860130000000  0.5131520000000  0.5483290000000 1.0
C      1  0.4516680000000  0.4868660000000  0.5860110000000 1.0
C      1  0.4139880000000  0.5131450000000  0.4516650000000 1.0
C      1  0.5547210000000  0.4135210000000  0.5410910000000 1.0
C      1  0.4589160000000  0.5864860000000  0.5547090000000 1.0
C      1  0.4452790000000  0.4135120000000  0.4589260000000 1.0
C      1  0.5410840000000  0.5864780000000  0.4452670000000 1.0
C      1  0.5240110000000  0.4026280000000  0.5077920000000 1.0
C      1  0.4922200000000  0.5973750000000  0.5239980000000 1.0
C      1  0.4759890000000  0.4026270000000  0.4922290000000 1.0
C      1  0.5077850000000  0.5973700000000  0.4759760000000 1.0
C      1  0.4195080000000  0.5432620000000  0.4455110000000 1.0
C      1  0.5544820000000  0.4567240000000  0.4195090000000 1.0
C      1  0.5804950000000  0.5432730000000  0.5544760000000 1.0
C      1  0.4455170000000  0.4567470000000  0.5804970000000 1.0
C      1  0.5194940000000  0.4106210000000  0.4593900000000 1.0
C      1  0.5406220000000  0.5893750000000  0.5194820000000 1.0
C      1  0.4805050000000  0.4106320000000  0.5406280000000 1.0
C      1  0.4593840000000  0.5893730000000  0.4804940000000 1.0
C      1  0.5557670000000  0.4885090000000  0.5154200000000 1.0
C      1  0.4845810000000  0.5114990000000  0.5557620000000 1.0
C      1  0.4442350000000  0.4885070000000  0.4845780000000 1.0
C      1  0.5154230000000  0.5114850000000  0.4442310000000 1.0
C      1  0.5228310000000  0.5537770000000  0.4684720000000 1.0
C      1  0.5315200000000  0.4462220000000  0.5228330000000 1.0
C      1  0.4771730000000  0.5537850000000  0.5315110000000 1.0
C      1  0.4684800000000  0.4462170000000  0.4771750000000 1.0
C      1  0.5255580000000  0.5342790000000  0.5499900000000 1.0
C      1  0.4500050000000  0.4657310000000  0.5255560000000 1.0
C      1  0.4744460000000  0.5342680000000  0.4499970000000 1.0
C      1  0.5499970000000  0.4657230000000  0.4744460000000 1.0
C      1  0.5304530000000  0.4754490000000  0.5242710000000 1.0
C      1  0.4757310000000  0.5245580000000  0.5304480000000 1.0
C      1  0.4695470000000  0.4754440000000  0.4757300000000 1.0
C      1  0.5242720000000  0.5245500000000  0.4695410000000 1.0
C      1  0.4368190000000  0.5654680000000  0.5478440000000 1.0
C      1  0.4521470000000  0.4345300000000  0.4368210000000 1.0
C      1  0.5631860000000  0.5654580000000  0.4521370000000 1.0
C      1  0.5478530000000  0.4345420000000  0.5631890000000 1.0
C      1  0.4172170000000  0.4509980000000  0.4699610000000 1.0
C      1  0.5300450000000  0.5489920000000  0.4172090000000 1.0
C      1  0.5827830000000  0.4510030000000  0.5300480000000 1.0
C      1  0.4699560000000  0.5490050000000  0.5827740000000 1.0
C      1  0.5712880000000  0.5739920000000  0.4817570000000 1.0
C      1  0.5182330000000  0.4260140000000  0.5712920000000 1.0
C      1  0.4287160000000  0.5739980000000  0.5182220000000 1.0
C      1  0.4817680000000  0.4259950000000  0.4287220000000 1.0
C      1  0.4821360000000  0.5960460000000  0.4612950000000 1.0
C      1  0.5386910000000  0.4039480000000  0.4821420000000 1.0
C      1  0.5178700000000  0.5960530000000  0.5386790000000 1.0
C      1  0.4613080000000  0.4039540000000  0.5178780000000 1.0
C      1  0.4326320000000  0.4606960000000  0.4423570000000 1.0
C      1  0.5576710000000  0.5392180000000  0.4326200000000 1.0
C      1  0.5673700000000  0.4607310000000  0.5576560000000 1.0
C      1  0.4423680000000  0.5393390000000  0.5673600000000 1.0
C      1  0.5487300000000  0.4928030000000  0.3851820000000 1.0
C      1  0.6148150000000  0.5071810000000  0.5487350000000 1.0
C      1  0.4512640000000  0.4928380000000  0.6148130000000 1.0
C      1  0.3851850000000  0.5071800000000  0.4512680000000 1.0
C      1  0.5179910000000  0.5741250000000  0.4293920000000 1.0
C      1  0.5705980000000  0.4258690000000  0.5179950000000 1.0
C      1  0.4820130000000  0.5741350000000  0.5705900000000 1.0
C      1  0.4294010000000  0.4258680000000  0.4820180000000 1.0
C      1  0.3337070000000  0.5074860000000  0.4613020000000 1.0
C      1  0.5387130000000  0.4924930000000  0.3337030000000 1.0
C      1  0.6663290000000  0.5074000000000  0.5388620000000 1.0
C      1  0.4611560000000  0.4926080000000  0.6663250000000 1.0
C      1  0.4865200000000  0.4783860000000  0.5017120000000 1.0
C      1  0.4982890000000  0.5216130000000  0.4865150000000 1.0
C      1  0.5134800000000  0.4783850000000  0.4982880000000 1.0
C      1  0.5017130000000  0.5216170000000  0.5134750000000 1.0
C      1  0.5337250000000  0.5556510000000  0.5669760000000 1.0
C      1  0.4330160000000  0.4443630000000  0.5337280000000 1.0
C      1  0.4662800000000  0.5556370000000  0.4330080000000 1.0
C      1  0.5669830000000  0.4443510000000  0.4662840000000 1.0
C      1  0.6042680000000  0.4867720000000  0.4659830000000 1.0
C      1  0.5340250000000  0.5132300000000  0.6042610000000 1.0
C      1  0.3957300000000  0.4867880000000  0.5340150000000 1.0
C      1  0.4659820000000  0.5132100000000  0.3957280000000 1.0
C      1  0.4863120000000  0.5353410000000  0.6016260000000 1.0
C      1  0.3983690000000  0.4646670000000  0.4863140000000 1.0
C      1  0.5136880000000  0.5353200000000  0.3983640000000 1.0
C      1  0.6016310000000  0.4646690000000  0.5136900000000 1.0
C      1  0.5005530000000  0.4705220000000  0.5699350000000 1.0
C      1  0.4300670000000  0.5294880000000  0.5005460000000 1.0
C      1  0.4994490000000  0.4705050000000  0.4300670000000 1.0
C      1  0.5699370000000  0.5294850000000  0.4994430000000 1.0
C      1  0.5121920000000  0.5702940000000  0.4909980000000 1.0
C      1  0.5089920000000  0.4297070000000  0.5121960000000 1.0
C      1  0.4878130000000  0.5702960000000  0.5089820000000 1.0
C      1  0.4910080000000  0.4297040000000  0.4878170000000 1.0
C      1  0.5218690000000  0.4893780000000  0.4277180000000 1.0
C      1  0.5722850000000  0.5106140000000  0.5218660000000 1.0
C      1  0.4781320000000  0.4893990000000  0.5722820000000 1.0
C      1  0.4277200000000  0.5106120000000  0.4781280000000 1.0
C      1  0.4762390000000  0.5379990000000  0.4770350000000 1.0
C      1  0.5229590000000  0.4619960000000  0.4762390000000 1.0
C      1  0.5237650000000  0.5380030000000  0.5229510000000 1.0
C      1  0.4770430000000  0.4620030000000  0.5237650000000 1.0
C      1  0.4863160000000  0.5108060000000  0.4431830000000 1.0
C      1  0.5568140000000  0.4891860000000  0.4863140000000 1.0
C      1  0.5136870000000  0.5108190000000  0.5568090000000 1.0
C      1  0.4431870000000  0.4891910000000  0.5136840000000 1.0
C      1  0.5353190000000  0.6032460000000  0.4690500000000 1.0
C      1  0.5309370000000  0.3967550000000  0.5353270000000 1.0
C      1  0.4646860000000  0.6032530000000  0.5309260000000 1.0
C      1  0.4690630000000  0.3967460000000  0.4646950000000 1.0
C      1  0.4682460000000  0.5624000000000  0.4879740000000 1.0
C      1  0.5120160000000  0.4375960000000  0.4682480000000 1.0
C      1  0.5317590000000  0.5624010000000  0.5120070000000 1.0
C      1  0.4879840000000  0.4376050000000  0.5317630000000 1.0
C      1  0.4800070000000  0.4832900000000  0.4481220000000 1.0
C      1  0.5518790000000  0.5167020000000  0.4800030000000 1.0
C      1  0.5199940000000  0.4833020000000  0.5518770000000 1.0
C      1  0.4481250000000  0.5167070000000  0.5199890000000 1.0
END
