TITL C-3201372-1405-408 0.0899898283437014 125000 -567.696506605006 0 0 95 (C1) n - 1
REM
REM in /home/nfs/bkarasulu/CARBON/AIRSS/Generating-Clusters/LCBOP/Higher-Symm/SD-CG/FIRE-CG
REM
REM
REM
REM
REM
REM ./C.cell (b20cbc046b6831c77cfcea5457e17084)
REM AIRSS Version 0.9.1 bugfix July 2018 build 013d7b7c2542+ Fri, 06 Jul 2018 19:26:36 +0100
REM compiler GCC version 9.2.1 20190827 (Red Hat 9.2.1-1)
REM options -cpp -mtune=generic -march=x86-64 -g -O0 -fpre-include=/usr/include/finclude/math-vector-fortran.h
REM seed -537057323 2003247387 -1216043072 2060655797 901671559 -977192646 -421341661 -746443999 1014519052 360644283 -1769151588 320242682 557448103 -1193536926 -773887956 -936273391 -768272377 1969634563 1612985640 -83125713 -1854956421 -708458245 1333851118 -926220877 -1478028172 1850149767 129542301 -1310713010 1451933536 -311595587 1710442970 1745260595 -1905390640
REM
CELL 1.54180   50.00000   50.00000   50.00000   90.00000   90.00000   90.00000
LATT -1
SFAC C  
C      1  0.5640260000000  0.5638440000000  0.4896160000000 1.0
C      1  0.4349220000000  0.4318380000000  0.4984730000000 1.0
C      1  0.5291610000000  0.4342930000000  0.5682270000000 1.0
C      1  0.4654950000000  0.5669430000000  0.4346640000000 1.0
C      1  0.4285130000000  0.5226650000000  0.5014090000000 1.0
C      1  0.5651110000000  0.4666410000000  0.4990970000000 1.0
C      1  0.5579910000000  0.5099800000000  0.5128130000000 1.0
C      1  0.4351550000000  0.4777520000000  0.4846280000000 1.0
C      1  0.5089920000000  0.4951670000000  0.5562640000000 1.0
C      1  0.4913210000000  0.5066070000000  0.4472760000000 1.0
C      1  0.4823380000000  0.4882270000000  0.5166010000000 1.0
C      1  0.5248900000000  0.5198710000000  0.4787680000000 1.0
C      1  0.6030490000000  0.4724090000000  0.5574370000000 1.0
C      1  0.3989070000000  0.5181510000000  0.4390080000000 1.0
C      1  0.5081550000000  0.4210110000000  0.4395780000000 1.0
C      1  0.4972040000000  0.5761870000000  0.5555100000000 1.0
C      1  0.4901690000000  0.4482230000000  0.5428630000000 1.0
C      1  0.5076250000000  0.5569230000000  0.4545940000000 1.0
C      1  0.4740490000000  0.5206350000000  0.4877090000000 1.0
C      1  0.5310580000000  0.4940010000000  0.5156910000000 1.0
C      1  0.5792130000000  0.4768610000000  0.5450390000000 1.0
C      1  0.4217600000000  0.5158940000000  0.4536320000000 1.0
C      1  0.4705910000000  0.5782290000000  0.4832830000000 1.0
C      1  0.5291600000000  0.4216350000000  0.5203920000000 1.0
C      1  0.4717420000000  0.5345430000000  0.5291610000000 1.0
C      1  0.5137510000000  0.4573180000000  0.4882330000000 1.0
C      1  0.5020160000000  0.4625090000000  0.4228350000000 1.0
C      1  0.5037590000000  0.5406260000000  0.5814360000000 1.0
C      1  0.4545850000000  0.5763960000000  0.5347610000000 1.0
C      1  0.5462970000000  0.4261630000000  0.4699020000000 1.0
C      1  0.5571110000000  0.5340400000000  0.5315160000000 1.0
C      1  0.4450030000000  0.4601130000000  0.4606960000000 1.0
C      1  0.5327270000000  0.4858320000000  0.5436770000000 1.0
C      1  0.4685830000000  0.5160730000000  0.4614850000000 1.0
C      1  0.4553780000000  0.5280740000000  0.5074640000000 1.0
C      1  0.5364250000000  0.4701440000000  0.4976620000000 1.0
C      1  0.5417910000000  0.4573880000000  0.5787340000000 1.0
C      1  0.4581990000000  0.5416790000000  0.4239480000000 1.0
C      1  0.4910520000000  0.4185290000000  0.4623810000000 1.0
C      1  0.5091830000000  0.5653000000000  0.5316750000000 1.0
C      1  0.4224770000000  0.5044630000000  0.4800840000000 1.0
C      1  0.5770210000000  0.4860290000000  0.5175940000000 1.0
C      1  0.4592240000000  0.5808410000000  0.5079820000000 1.0
C      1  0.5418850000000  0.4190390000000  0.4961940000000 1.0
C      1  0.5536950000000  0.5188140000000  0.4841320000000 1.0
C      1  0.4609080000000  0.4804310000000  0.5016680000000 1.0
C      1  0.5479770000000  0.5799790000000  0.4727160000000 1.0
C      1  0.4510470000000  0.4254300000000  0.5206430000000 1.0
C      1  0.5338910000000  0.4360060000000  0.4456150000000 1.0
C      1  0.4692730000000  0.5679520000000  0.5579690000000 1.0
C      1  0.4845580000000  0.4805940000000  0.4356800000000 1.0
C      1  0.5184990000000  0.5214630000000  0.5662600000000 1.0
C      1  0.5711540000000  0.5395760000000  0.4769690000000 1.0
C      1  0.4198150000000  0.4566300000000  0.5003990000000 1.0
C      1  0.4570060000000  0.5116800000000  0.3860820000000 1.0
C      1  0.5493510000000  0.4912590000000  0.6122660000000 1.0
C      1  0.4746080000000  0.5391630000000  0.5792640000000 1.0
C      1  0.5307410000000  0.4633370000000  0.4308360000000 1.0
C      1  0.4892890000000  0.4779590000000  0.5420990000000 1.0
C      1  0.5111850000000  0.5275260000000  0.4553630000000 1.0
C      1  0.4420070000000  0.4188040000000  0.6190420000000 1.0
C      1  0.5370560000000  0.6060820000000  0.3778020000000 1.0
C      1  0.4800840000000  0.4932110000000  0.6003380000000 1.0
C      1  0.5244760000000  0.5090690000000  0.4077400000000 1.0
C      1  0.5635420000000  0.5122940000000  0.6032810000000 1.0
C      1  0.4436100000000  0.4890050000000  0.3915550000000 1.0
C      1  0.4484260000000  0.4219040000000  0.5939660000000 1.0
C      1  0.5356540000000  0.5969990000000  0.4021980000000 1.0
C      1  0.4556840000000  0.4259740000000  0.5688150000000 1.0
C      1  0.5337930000000  0.5873030000000  0.4267810000000 1.0
C      1  0.5642620000000  0.5274520000000  0.5810070000000 1.0
C      1  0.4424680000000  0.4729320000000  0.4130500000000 1.0
C      1  0.4979810000000  0.4366430000000  0.4828350000000 1.0
C      1  0.4992900000000  0.5396690000000  0.5235520000000 1.0
C      1  0.5340820000000  0.5754530000000  0.5247560000000 1.0
C      1  0.4634190000000  0.4135570000000  0.4610490000000 1.0
C      1  0.5388440000000  0.4888230000000  0.4198640000000 1.0
C      1  0.4659810000000  0.5146130000000  0.5905890000000 1.0
C      1  0.5298310000000  0.5749470000000  0.4515300000000 1.0
C      1  0.4656760000000  0.4330760000000  0.5436320000000 1.0
C      1  0.5028270000000  0.4786600000000  0.6039060000000 1.0
C      1  0.5016020000000  0.5231440000000  0.4021630000000 1.0
C      1  0.5465850000000  0.5294120000000  0.5587840000000 1.0
C      1  0.4569410000000  0.4707900000000  0.4372390000000 1.0
C      1  0.4730340000000  0.5284990000000  0.4023640000000 1.0
C      1  0.5309030000000  0.4729430000000  0.6008450000000 1.0
C      1  0.4815480000000  0.5693610000000  0.4581780000000 1.0
C      1  0.5153590000000  0.4330230000000  0.5431550000000 1.0
C      1  0.4448510000000  0.4322590000000  0.4708390000000 1.0
C      1  0.5562640000000  0.5599580000000  0.5173950000000 1.0
C      1  0.5116920000000  0.5681750000000  0.5790240000000 1.0
C      1  0.4955940000000  0.4350650000000  0.4176890000000 1.0
C      1  0.5536740000000  0.4731080000000  0.5575470000000 1.0
C      1  0.4473360000000  0.5246480000000  0.4447260000000 1.0
C      1  0.5076720000000  0.5113440000000  0.5032310000000 1.0
END
