TITL C-3201376-6384-1447 2.39127728650538e-08 125000 -789.191208741149 0 0 131 (C1) n - 1
REM
REM in /home/nfs/bkarasulu/CARBON/AIRSS/Generating-Clusters/LCBOP/Higher-Symm/SD-CG/FIRE-CG
REM
REM
REM
REM
REM
REM ./C.cell (b20cbc046b6831c77cfcea5457e17084)
REM AIRSS Version 0.9.1 bugfix July 2018 build 013d7b7c2542+ Fri, 06 Jul 2018 19:26:36 +0100
REM compiler GCC version 9.2.1 20190827 (Red Hat 9.2.1-1)
REM options -cpp -mtune=generic -march=x86-64 -g -O0 -fpre-include=/usr/include/finclude/math-vector-fortran.h
REM seed -800321463 -1513518526 1303831839 479876993 712764695 1369385622 -177177293 745746015 1061800019 1742354874 -870059616 -1933585891 -767500721 -713183598 1219698828 -2034189188 -1499232536 1300805568 301421584 -1525469679 388318487 -1650906470 -2056351350 -1835639171 1851460651 2001585727 2083733823 1503155226 1694155803 529692217 695363411 519767855 1359656275
REM
CELL 1.54180   50.00000   50.00000   50.00000   90.00000   90.00000   90.00000
LATT -1
SFAC C  
C      1  0.5696000000000  0.4510490000000  0.5643570000000 1.0
C      1  0.4716510000000  0.4309730000000  0.5577530000000 1.0
C      1  0.4133700000000  0.5084750000000  0.5462630000000 1.0
C      1  0.4783420000000  0.5737470000000  0.5447840000000 1.0
C      1  0.5784750000000  0.5501810000000  0.5412540000000 1.0
C      1  0.4680890000000  0.4543320000000  0.4706170000000 1.0
C      1  0.4539670000000  0.5191950000000  0.4728600000000 1.0
C      1  0.5025600000000  0.5478910000000  0.4679240000000 1.0
C      1  0.5481610000000  0.5058460000000  0.4663170000000 1.0
C      1  0.5188160000000  0.4535140000000  0.4488340000000 1.0
C      1  0.4981550000000  0.5880030000000  0.5284530000000 1.0
C      1  0.5888390000000  0.5271280000000  0.5252830000000 1.0
C      1  0.5503310000000  0.4318200000000  0.5701010000000 1.0
C      1  0.4454900000000  0.4335420000000  0.5404070000000 1.0
C      1  0.4132560000000  0.5325790000000  0.5292050000000 1.0
C      1  0.4427340000000  0.5115960000000  0.4994260000000 1.0
C      1  0.4916410000000  0.5545340000000  0.4949670000000 1.0
C      1  0.5518960000000  0.5186620000000  0.4924950000000 1.0
C      1  0.5445850000000  0.4450380000000  0.4989530000000 1.0
C      1  0.4736410000000  0.4449320000000  0.4986410000000 1.0
C      1  0.4918820000000  0.4340370000000  0.6034670000000 1.0
C      1  0.4342910000000  0.4837570000000  0.5829290000000 1.0
C      1  0.4493920000000  0.5624190000000  0.5819350000000 1.0
C      1  0.5495560000000  0.5619600000000  0.5817670000000 1.0
C      1  0.5709870000000  0.4925140000000  0.5884840000000 1.0
C      1  0.5249670000000  0.5660880000000  0.4624860000000 1.0
C      1  0.5723700000000  0.4906530000000  0.4595640000000 1.0
C      1  0.5134110000000  0.4262810000000  0.4419530000000 1.0
C      1  0.4391950000000  0.4534300000000  0.4651270000000 1.0
C      1  0.4435040000000  0.5449390000000  0.4638120000000 1.0
C      1  0.4226540000000  0.4827390000000  0.5572380000000 1.0
C      1  0.4496010000000  0.5696230000000  0.5541630000000 1.0
C      1  0.5563640000000  0.5652850000000  0.5541950000000 1.0
C      1  0.5785600000000  0.4792500000000  0.5641940000000 1.0
C      1  0.4932950000000  0.4219100000000  0.5773800000000 1.0
C      1  0.5184010000000  0.4508060000000  0.4029720000000 1.0
C      1  0.4563950000000  0.4696550000000  0.4200900000000 1.0
C      1  0.4564570000000  0.5321060000000  0.4214020000000 1.0
C      1  0.5178780000000  0.5527070000000  0.4193420000000 1.0
C      1  0.5549830000000  0.5008410000000  0.4161120000000 1.0
C      1  0.4356090000000  0.4724220000000  0.4425480000000 1.0
C      1  0.4568460000000  0.5545340000000  0.4406570000000 1.0
C      1  0.5393400000000  0.5576780000000  0.4395100000000 1.0
C      1  0.5674880000000  0.4803630000000  0.4333760000000 1.0
C      1  0.5033910000000  0.4286560000000  0.4150940000000 1.0
C      1  0.5138810000000  0.5311780000000  0.6073340000000 1.0
C      1  0.5237230000000  0.5035910000000  0.6113720000000 1.0
C      1  0.5004910000000  0.4858890000000  0.6137410000000 1.0
C      1  0.4767170000000  0.5022890000000  0.6093680000000 1.0
C      1  0.4845500000000  0.5303200000000  0.6067100000000 1.0
C      1  0.5156470000000  0.4480640000000  0.5438110000000 1.0
C      1  0.4771280000000  0.4762850000000  0.5372710000000 1.0
C      1  0.4738680000000  0.5238240000000  0.5431880000000 1.0
C      1  0.5170180000000  0.5437200000000  0.5403600000000 1.0
C      1  0.5498950000000  0.5047570000000  0.5364470000000 1.0
C      1  0.4976260000000  0.5850950000000  0.4960960000000 1.0
C      1  0.5827600000000  0.5240050000000  0.4923870000000 1.0
C      1  0.5482030000000  0.4290350000000  0.4741380000000 1.0
C      1  0.4487950000000  0.4294320000000  0.5093740000000 1.0
C      1  0.4156740000000  0.5256640000000  0.4976170000000 1.0
C      1  0.4219480000000  0.4983730000000  0.4448650000000 1.0
C      1  0.4764120000000  0.5757840000000  0.4420910000000 1.0
C      1  0.5651130000000  0.5447430000000  0.4414570000000 1.0
C      1  0.5628050000000  0.4525340000000  0.4300380000000 1.0
C      1  0.4771780000000  0.4224500000000  0.4067630000000 1.0
C      1  0.4655400000000  0.5497920000000  0.5995460000000 1.0
C      1  0.5317140000000  0.5512630000000  0.5988910000000 1.0
C      1  0.5504170000000  0.4970780000000  0.6052540000000 1.0
C      1  0.4982260000000  0.4578910000000  0.6144330000000 1.0
C      1  0.4522360000000  0.4918920000000  0.6008780000000 1.0
C      1  0.5711230000000  0.5846940000000  0.5064100000000 1.0
C      1  0.6068110000000  0.4573410000000  0.5146820000000 1.0
C      1  0.4945590000000  0.3818990000000  0.4884600000000 1.0
C      1  0.3900850000000  0.4723250000000  0.5071690000000 1.0
C      1  0.4380830000000  0.5976690000000  0.5031480000000 1.0
C      1  0.5840340000000  0.5448530000000  0.4643790000000 1.0
C      1  0.5677130000000  0.4347710000000  0.4529040000000 1.0
C      1  0.4703670000000  0.3974470000000  0.3966940000000 1.0
C      1  0.4044400000000  0.5080450000000  0.4665330000000 1.0
C      1  0.4799790000000  0.5938980000000  0.4650180000000 1.0
C      1  0.5799800000000  0.4985440000000  0.5380920000000 1.0
C      1  0.5217040000000  0.4265570000000  0.5652450000000 1.0
C      1  0.4254540000000  0.4579310000000  0.5408860000000 1.0
C      1  0.4287800000000  0.5590240000000  0.5348690000000 1.0
C      1  0.5311410000000  0.5713070000000  0.5365990000000 1.0
C      1  0.5098910000000  0.4766670000000  0.4588630000000 1.0
C      1  0.4820900000000  0.4780600000000  0.4639390000000 1.0
C      1  0.4765090000000  0.5060900000000  0.4643900000000 1.0
C      1  0.5007730000000  0.5210420000000  0.4610210000000 1.0
C      1  0.5218450000000  0.5020470000000  0.4590760000000 1.0
C      1  0.4725580000000  0.6197220000000  0.4641410000000 1.0
C      1  0.6054660000000  0.5613990000000  0.4639850000000 1.0
C      1  0.5923280000000  0.4224570000000  0.4545170000000 1.0
C      1  0.4642290000000  0.3738220000000  0.3875630000000 1.0
C      1  0.3776860000000  0.5072390000000  0.4646770000000 1.0
C      1  0.4243460000000  0.5528390000000  0.4844370000000 1.0
C      1  0.5264340000000  0.5843830000000  0.4854070000000 1.0
C      1  0.5910600000000  0.4948500000000  0.4830310000000 1.0
C      1  0.5243920000000  0.4133220000000  0.4650540000000 1.0
C      1  0.4276620000000  0.4423360000000  0.4914800000000 1.0
C      1  0.5297370000000  0.5187260000000  0.5502910000000 1.0
C      1  0.5248010000000  0.4729170000000  0.5576390000000 1.0
C      1  0.4866390000000  0.4525100000000  0.5465850000000 1.0
C      1  0.4853280000000  0.4993860000000  0.5501020000000 1.0
C      1  0.4893790000000  0.5469420000000  0.5500680000000 1.0
C      1  0.4185780000000  0.4648660000000  0.5107060000000 1.0
C      1  0.4386080000000  0.5682260000000  0.5063230000000 1.0
C      1  0.5439890000000  0.5724100000000  0.5071340000000 1.0
C      1  0.5862670000000  0.4777020000000  0.5091260000000 1.0
C      1  0.5052630000000  0.4066850000000  0.4851650000000 1.0
C      1  0.5683250000000  0.5259800000000  0.4200250000000 1.0
C      1  0.5466680000000  0.4469300000000  0.4070790000000 1.0
C      1  0.4583350000000  0.4432080000000  0.4094120000000 1.0
C      1  0.4319210000000  0.5168740000000  0.4248270000000 1.0
C      1  0.4969640000000  0.5726570000000  0.4220380000000 1.0
C      1  0.5265070000000  0.5015830000000  0.4079040000000 1.0
C      1  0.5077170000000  0.4780640000000  0.4047550000000 1.0
C      1  0.4789860000000  0.4873160000000  0.4112840000000 1.0
C      1  0.4800900000000  0.5173910000000  0.4125800000000 1.0
C      1  0.5091610000000  0.5260900000000  0.4109450000000 1.0
C      1  0.5440880000000  0.4950630000000  0.5101100000000 1.0
C      1  0.5214310000000  0.4401030000000  0.5155660000000 1.0
C      1  0.4669920000000  0.4725630000000  0.5122720000000 1.0
C      1  0.4604460000000  0.5266520000000  0.5185690000000 1.0
C      1  0.5120440000000  0.5389020000000  0.5108300000000 1.0
C      1  0.5572200000000  0.4695950000000  0.5044480000000 1.0
C      1  0.4988640000000  0.4292260000000  0.5015780000000 1.0
C      1  0.4417210000000  0.4839140000000  0.5057260000000 1.0
C      1  0.4648990000000  0.5522770000000  0.5059680000000 1.0
C      1  0.5388910000000  0.5426560000000  0.5002410000000 1.0
C      1  0.5122070000000  0.4982360000000  0.5590940000000 1.0
END
