TITL C-3201376-6384-2145 -0.000365265204839642 125000 -1141.61176360422 0 0 186 (C1) n - 1
REM
REM in /home/nfs/bkarasulu/CARBON/AIRSS/Generating-Clusters/LCBOP/Higher-Symm/SD-CG/FIRE-CG
REM
REM
REM
REM
REM
REM ./C.cell (b20cbc046b6831c77cfcea5457e17084)
REM AIRSS Version 0.9.1 bugfix July 2018 build 013d7b7c2542+ Fri, 06 Jul 2018 19:26:36 +0100
REM compiler GCC version 9.2.1 20190827 (Red Hat 9.2.1-1)
REM options -cpp -mtune=generic -march=x86-64 -g -O0 -fpre-include=/usr/include/finclude/math-vector-fortran.h
REM seed 351840808 192687687 -1543436435 -1199702150 590592945 -420552487 -1396264986 -1788591389 108840340 1569703541 -1076483922 681338624 832744176 -2049835359 1465123372 1941854596 259156782 2114016217 1952228543 217323038 -1978621703 -1592194621 126597420 -2069980614 2024838274 494616632 368851140 989003702 1406375342 -1661083425 359519840 -472805416 -908552115
REM
CELL 1.54180   50.00000   50.00000   50.00000   90.00000   90.00000   90.00000
LATT -1
SFAC C  
C      1  0.5277150000000  0.4507100000000  0.4039240000000 1.0
C      1  0.4719970000000  0.4518150000000  0.4042520000000 1.0
C      1  0.4448670000000  0.5005780000000  0.4029770000000 1.0
C      1  0.4736980000000  0.5484570000000  0.4022240000000 1.0
C      1  0.5295960000000  0.5473240000000  0.4021050000000 1.0
C      1  0.5566410000000  0.4983290000000  0.4025130000000 1.0
C      1  0.5269540000000  0.5487320000000  0.5986880000000 1.0
C      1  0.4710950000000  0.5472040000000  0.5988450000000 1.0
C      1  0.4445200000000  0.4980380000000  0.5984270000000 1.0
C      1  0.4740060000000  0.4503810000000  0.5966120000000 1.0
C      1  0.5298300000000  0.4518750000000  0.5963260000000 1.0
C      1  0.5564490000000  0.5009260000000  0.5980030000000 1.0
C      1  0.4888690000000  0.5696050000000  0.4141640000000 1.0
C      1  0.5553750000000  0.5447480000000  0.4143000000000 1.0
C      1  0.5671750000000  0.4748740000000  0.4150380000000 1.0
C      1  0.5126680000000  0.4306490000000  0.4171090000000 1.0
C      1  0.4466060000000  0.4546490000000  0.4166310000000 1.0
C      1  0.4340610000000  0.5244640000000  0.4145000000000 1.0
C      1  0.4892280000000  0.4296990000000  0.5836870000000 1.0
C      1  0.5554580000000  0.4550430000000  0.5837950000000 1.0
C      1  0.5667920000000  0.5249670000000  0.5863950000000 1.0
C      1  0.5115600000000  0.5700070000000  0.5871710000000 1.0
C      1  0.4450760000000  0.5447330000000  0.5871460000000 1.0
C      1  0.4337710000000  0.4744710000000  0.5861700000000 1.0
C      1  0.4712070000000  0.4137250000000  0.5083700000000 1.0
C      1  0.4037250000000  0.4788150000000  0.5167930000000 1.0
C      1  0.4332040000000  0.5724940000000  0.5170230000000 1.0
C      1  0.5289850000000  0.5939570000000  0.5169440000000 1.0
C      1  0.5954820000000  0.5218870000000  0.5164210000000 1.0
C      1  0.5605730000000  0.4325060000000  0.5079890000000 1.0
C      1  0.4709680000000  0.5931060000000  0.4844200000000 1.0
C      1  0.4044030000000  0.5218380000000  0.4845860000000 1.0
C      1  0.4305680000000  0.4269050000000  0.4841190000000 1.0
C      1  0.5293720000000  0.4026430000000  0.4834980000000 1.0
C      1  0.5972470000000  0.4783730000000  0.4833050000000 1.0
C      1  0.5661020000000  0.5718260000000  0.4843500000000 1.0
C      1  0.5153650000000  0.5240110000000  0.3940700000000 1.0
C      1  0.5293800000000  0.4990060000000  0.3942860000000 1.0
C      1  0.5147170000000  0.4744020000000  0.3948470000000 1.0
C      1  0.4860700000000  0.4748150000000  0.3950630000000 1.0
C      1  0.4720700000000  0.4997980000000  0.3946400000000 1.0
C      1  0.4867080000000  0.5244170000000  0.3942150000000 1.0
C      1  0.5154380000000  0.4748070000000  0.6052810000000 1.0
C      1  0.5291490000000  0.4999360000000  0.6060190000000 1.0
C      1  0.5142500000000  0.5244580000000  0.6064290000000 1.0
C      1  0.4856090000000  0.5238790000000  0.6064810000000 1.0
C      1  0.4719080000000  0.4987310000000  0.6061270000000 1.0
C      1  0.4868060000000  0.4742400000000  0.6053490000000 1.0
C      1  0.4243090000000  0.5934890000000  0.4752980000000 1.0
C      1  0.5428510000000  0.6122910000000  0.4753490000000 1.0
C      1  0.6193000000000  0.5195490000000  0.4755990000000 1.0
C      1  0.5771900000000  0.4029110000000  0.4751990000000 1.0
C      1  0.4536690000000  0.3848860000000  0.4752400000000 1.0
C      1  0.3804210000000  0.4818100000000  0.4755600000000 1.0
C      1  0.4249040000000  0.4063350000000  0.5260320000000 1.0
C      1  0.5439470000000  0.3889800000000  0.5258220000000 1.0
C      1  0.6186010000000  0.4813090000000  0.5252890000000 1.0
C      1  0.5758140000000  0.5939120000000  0.5253190000000 1.0
C      1  0.4568460000000  0.6129120000000  0.5254300000000 1.0
C      1  0.3806320000000  0.5195180000000  0.5257600000000 1.0
C      1  0.5013170000000  0.4713740000000  0.4727930000000 1.0
C      1  0.4764440000000  0.4843300000000  0.4721550000000 1.0
C      1  0.4750250000000  0.5122780000000  0.4709280000000 1.0
C      1  0.4984990000000  0.5274650000000  0.4703240000000 1.0
C      1  0.5234120000000  0.5146480000000  0.4703950000000 1.0
C      1  0.5249670000000  0.4865790000000  0.4717630000000 1.0
C      1  0.5009820000000  0.5289720000000  0.5310670000000 1.0
C      1  0.4759810000000  0.5164080000000  0.5312260000000 1.0
C      1  0.4742680000000  0.4885900000000  0.5315960000000 1.0
C      1  0.4977600000000  0.4736180000000  0.5318850000000 1.0
C      1  0.5226330000000  0.4861550000000  0.5316300000000 1.0
C      1  0.5244410000000  0.5138830000000  0.5311560000000 1.0
C      1  0.5467930000000  0.5297710000000  0.4688000000000 1.0
C      1  0.5499470000000  0.4738190000000  0.4726440000000 1.0
C      1  0.5022790000000  0.4434280000000  0.4745320000000 1.0
C      1  0.4527010000000  0.4697840000000  0.4715680000000 1.0
C      1  0.4504930000000  0.5253660000000  0.4691600000000 1.0
C      1  0.4973740000000  0.5552760000000  0.4687140000000 1.0
C      1  0.5459880000000  0.4713220000000  0.5314040000000 1.0
C      1  0.5492860000000  0.5263660000000  0.5320470000000 1.0
C      1  0.5022840000000  0.5566100000000  0.5326890000000 1.0
C      1  0.4523700000000  0.5309020000000  0.5326730000000 1.0
C      1  0.4496900000000  0.4755880000000  0.5321750000000 1.0
C      1  0.4966440000000  0.4460020000000  0.5314690000000 1.0
C      1  0.5887360000000  0.4398520000000  0.5544940000000 1.0
C      1  0.4920080000000  0.3930760000000  0.5546520000000 1.0
C      1  0.4023500000000  0.4530230000000  0.5589940000000 1.0
C      1  0.4101640000000  0.5600860000000  0.5599750000000 1.0
C      1  0.5069200000000  0.6077880000000  0.5598430000000 1.0
C      1  0.5970380000000  0.5474810000000  0.5587950000000 1.0
C      1  0.5894390000000  0.5605590000000  0.4420350000000 1.0
C      1  0.4926650000000  0.6071460000000  0.4416980000000 1.0
C      1  0.4034160000000  0.5469830000000  0.4417020000000 1.0
C      1  0.4116770000000  0.4384680000000  0.4427640000000 1.0
C      1  0.5098650000000  0.3924620000000  0.4436040000000 1.0
C      1  0.5983000000000  0.4534160000000  0.4428810000000 1.0
C      1  0.5204410000000  0.5708070000000  0.4669160000000 1.0
C      1  0.5717740000000  0.5175460000000  0.4677240000000 1.0
C      1  0.5518940000000  0.4451530000000  0.4785520000000 1.0
C      1  0.4781680000000  0.4275510000000  0.4790010000000 1.0
C      1  0.4279490000000  0.4821510000000  0.4684740000000 1.0
C      1  0.4487190000000  0.5531130000000  0.4670610000000 1.0
C      1  0.5191030000000  0.4300060000000  0.5311510000000 1.0
C      1  0.5712310000000  0.4828300000000  0.5324180000000 1.0
C      1  0.5512060000000  0.5540400000000  0.5340620000000 1.0
C      1  0.4790050000000  0.5718500000000  0.5346410000000 1.0
C      1  0.4274340000000  0.5184180000000  0.5344720000000 1.0
C      1  0.4477690000000  0.4480070000000  0.5328670000000 1.0
C      1  0.5891320000000  0.4418190000000  0.5095600000000 1.0
C      1  0.4934570000000  0.3932830000000  0.5099430000000 1.0
C      1  0.4037280000000  0.4517960000000  0.5127730000000 1.0
C      1  0.4102220000000  0.5586490000000  0.5128470000000 1.0
C      1  0.5054790000000  0.6068340000000  0.5128180000000 1.0
C      1  0.5951380000000  0.5487700000000  0.5126620000000 1.0
C      1  0.5893470000000  0.5584400000000  0.4883100000000 1.0
C      1  0.4942990000000  0.6062940000000  0.4883730000000 1.0
C      1  0.4049190000000  0.5486510000000  0.4884310000000 1.0
C      1  0.4083590000000  0.4416670000000  0.4882130000000 1.0
C      1  0.5057270000000  0.3896670000000  0.4868540000000 1.0
C      1  0.5978300000000  0.4512210000000  0.4865220000000 1.0
C      1  0.5347580000000  0.4136950000000  0.5695630000000 1.0
C      1  0.4431510000000  0.4266080000000  0.5708430000000 1.0
C      1  0.4075710000000  0.5127180000000  0.5731550000000 1.0
C      1  0.4648060000000  0.5863230000000  0.5733490000000 1.0
C      1  0.5572710000000  0.5735870000000  0.5728840000000 1.0
C      1  0.5925320000000  0.4868790000000  0.5713710000000 1.0
C      1  0.5352120000000  0.5859220000000  0.4283000000000 1.0
C      1  0.4431340000000  0.5729800000000  0.4281910000000 1.0
C      1  0.4084090000000  0.4864610000000  0.4289120000000 1.0
C      1  0.4665020000000  0.4134610000000  0.4328380000000 1.0
C      1  0.5580430000000  0.4275050000000  0.4330710000000 1.0
C      1  0.5922450000000  0.5127650000000  0.4292600000000 1.0
C      1  0.4799890000000  0.3985410000000  0.4600840000000 1.0
C      1  0.4028900000000  0.4652290000000  0.4610980000000 1.0
C      1  0.4215690000000  0.5658000000000  0.4606580000000 1.0
C      1  0.5177540000000  0.6007240000000  0.4606220000000 1.0
C      1  0.5966530000000  0.5352770000000  0.4609300000000 1.0
C      1  0.5779560000000  0.4322510000000  0.4597670000000 1.0
C      1  0.4819540000000  0.6014910000000  0.5406370000000 1.0
C      1  0.4032110000000  0.5356150000000  0.5407270000000 1.0
C      1  0.4209120000000  0.4341970000000  0.5399200000000 1.0
C      1  0.5184290000000  0.3998050000000  0.5400180000000 1.0
C      1  0.5960980000000  0.4658250000000  0.5399110000000 1.0
C      1  0.5785090000000  0.5665350000000  0.5403310000000 1.0
C      1  0.4848070000000  0.4281810000000  0.4144500000000 1.0
C      1  0.4302930000000  0.4776360000000  0.4131260000000 1.0
C      1  0.4463420000000  0.5498450000000  0.4117460000000 1.0
C      1  0.5169960000000  0.5716680000000  0.4115940000000 1.0
C      1  0.5712670000000  0.5214160000000  0.4121330000000 1.0
C      1  0.5547560000000  0.4497770000000  0.4135590000000 1.0
C      1  0.4834040000000  0.5717930000000  0.5896620000000 1.0
C      1  0.4294500000000  0.5212250000000  0.5895640000000 1.0
C      1  0.4464970000000  0.4490440000000  0.5877060000000 1.0
C      1  0.5173380000000  0.4276650000000  0.5866380000000 1.0
C      1  0.5712980000000  0.4781740000000  0.5877690000000 1.0
C      1  0.5542700000000  0.5503230000000  0.5891010000000 1.0
C      1  0.5460220000000  0.4418920000000  0.5319820000000 1.0
C      1  0.4715520000000  0.4308490000000  0.5326390000000 1.0
C      1  0.4240200000000  0.4890900000000  0.5361490000000 1.0
C      1  0.4518530000000  0.5600790000000  0.5365940000000 1.0
C      1  0.5274630000000  0.5715530000000  0.5364320000000 1.0
C      1  0.5748000000000  0.5120020000000  0.5354010000000 1.0
C      1  0.5474350000000  0.5590240000000  0.4649140000000 1.0
C      1  0.4724390000000  0.5705620000000  0.4649240000000 1.0
C      1  0.4248050000000  0.5114220000000  0.4654670000000 1.0
C      1  0.4522300000000  0.4406720000000  0.4682230000000 1.0
C      1  0.5272940000000  0.4288380000000  0.4686790000000 1.0
C      1  0.5751220000000  0.4881560000000  0.4658620000000 1.0
C      1  0.4138130000000  0.5177160000000  0.4367780000000 1.0
C      1  0.4726860000000  0.5835780000000  0.4364200000000 1.0
C      1  0.5590710000000  0.5656750000000  0.4365990000000 1.0
C      1  0.5866090000000  0.4820530000000  0.4374160000000 1.0
C      1  0.5283890000000  0.4178140000000  0.4396640000000 1.0
C      1  0.4428740000000  0.4341000000000  0.4391120000000 1.0
C      1  0.4130240000000  0.4819870000000  0.5645190000000 1.0
C      1  0.4725130000000  0.4162520000000  0.5607930000000 1.0
C      1  0.5588820000000  0.4345790000000  0.5602170000000 1.0
C      1  0.5866650000000  0.5183010000000  0.5637840000000 1.0
C      1  0.5274520000000  0.5843530000000  0.5649620000000 1.0
C      1  0.4406970000000  0.5660270000000  0.5651760000000 1.0
C      1  0.5556500000000  0.4023180000000  0.5000340000000 1.0
C      1  0.5551260000000  0.5959430000000  0.5004390000000 1.0
C      1  0.4446110000000  0.5960140000000  0.5004690000000 1.0
C      1  0.3887170000000  0.5005310000000  0.5006500000000 1.0
C      1  0.6110430000000  0.5003040000000  0.5002710000000 1.0
C      1  0.4425860000000  0.4031800000000  0.5002630000000 1.0
END
