TITL C-3201377-4638-1639 -92.0381650732383 125000 -1199.34971688893 0 0 195 (C1) n - 1
REM
REM in /home/nfs/bkarasulu/CARBON/AIRSS/Generating-Clusters/LCBOP/Higher-Symm/SD-CG/FIRE-CG
REM
REM
REM
REM
REM
REM ./C.cell (b20cbc046b6831c77cfcea5457e17084)
REM AIRSS Version 0.9.1 bugfix July 2018 build 013d7b7c2542+ Fri, 06 Jul 2018 19:26:36 +0100
REM compiler GCC version 9.2.1 20190827 (Red Hat 9.2.1-1)
REM options -cpp -mtune=generic -march=x86-64 -g -O0 -fpre-include=/usr/include/finclude/math-vector-fortran.h
REM seed 1465895769 -2019754056 -1531659145 -1643259729 -1540279107 1678787326 1873051890 618617241 1979259012 1757917980 2101943862 -876823699 2043814863 1017127059 350604619 -2146598386 -1105495996 -2015333049 1456490009 1520190112 -1099659432 800862629 -345565253 1611106805 1615781339 110803743 499390076 -744346537 -1542581353 -2077515212 -1608568460 2052267998 1485675303
REM
CELL 1.54180   50.00000   50.00000   50.00000   90.00000   90.00000   90.00000
LATT -1
SFAC C  
C      1  0.4899750000000  0.4625450000000  0.3926580000000 1.0
C      1  0.4906530000000  0.6192020000000  0.5227620000000 1.0
C      1  0.4911640000000  0.4248110000000  0.5884780000000 1.0
C      1  0.5527360000000  0.5395650000000  0.5110390000000 1.0
C      1  0.5513810000000  0.4640900000000  0.5286750000000 1.0
C      1  0.5539790000000  0.4926350000000  0.4568300000000 1.0
C      1  0.3866200000000  0.5209580000000  0.5355970000000 1.0
C      1  0.3882490000000  0.4594970000000  0.5021360000000 1.0
C      1  0.3906320000000  0.5180840000000  0.4679000000000 1.0
C      1  0.6148460000000  0.5450900000000  0.4259840000000 1.0
C      1  0.6121430000000  0.5424230000000  0.5738320000000 1.0
C      1  0.6144290000000  0.4136860000000  0.4979460000000 1.0
C      1  0.5059910000000  0.4285680000000  0.4757410000000 1.0
C      1  0.5082540000000  0.5558820000000  0.4559710000000 1.0
C      1  0.5035280000000  0.5153980000000  0.5653790000000 1.0
C      1  0.3760760000000  0.5465400000000  0.5317740000000 1.0
C      1  0.3755660000000  0.4500610000000  0.5251900000000 1.0
C      1  0.3779690000000  0.5036190000000  0.4475870000000 1.0
C      1  0.5067170000000  0.3818780000000  0.4371500000000 1.0
C      1  0.5070800000000  0.6132080000000  0.4308930000000 1.0
C      1  0.5015530000000  0.5091870000000  0.6275860000000 1.0
C      1  0.4785910000000  0.4448170000000  0.6053130000000 1.0
C      1  0.4783270000000  0.4370550000000  0.4001370000000 1.0
C      1  0.4792510000000  0.6224620000000  0.4963340000000 1.0
C      1  0.4801320000000  0.5593430000000  0.5812820000000 1.0
C      1  0.4824650000000  0.3898930000000  0.5036420000000 1.0
C      1  0.4843120000000  0.5511450000000  0.4058280000000 1.0
C      1  0.5383410000000  0.5699490000000  0.5618310000000 1.0
C      1  0.5423610000000  0.4047030000000  0.5265160000000 1.0
C      1  0.5419090000000  0.5253050000000  0.4070280000000 1.0
C      1  0.6090290000000  0.4546060000000  0.4736730000000 1.0
C      1  0.6111320000000  0.5460900000000  0.4736320000000 1.0
C      1  0.6075420000000  0.4992600000000  0.5531550000000 1.0
C      1  0.4317800000000  0.4288150000000  0.5178960000000 1.0
C      1  0.4343940000000  0.5196170000000  0.4338400000000 1.0
C      1  0.4316540000000  0.5481450000000  0.5568130000000 1.0
C      1  0.3957810000000  0.4306810000000  0.5633170000000 1.0
C      1  0.3974140000000  0.4807780000000  0.4108910000000 1.0
C      1  0.3986780000000  0.5881340000000  0.5304970000000 1.0
C      1  0.5155910000000  0.4485760000000  0.4353630000000 1.0
C      1  0.5148780000000  0.5853370000000  0.4911200000000 1.0
C      1  0.5130160000000  0.4705910000000  0.5767380000000 1.0
C      1  0.5527800000000  0.5915280000000  0.4276190000000 1.0
C      1  0.5478150000000  0.5244080000000  0.6123490000000 1.0
C      1  0.5530160000000  0.3889890000000  0.4576450000000 1.0
C      1  0.5714540000000  0.5370050000000  0.6076030000000 1.0
C      1  0.5763760000000  0.3872220000000  0.4715770000000 1.0
C      1  0.5760230000000  0.5808320000000  0.4181880000000 1.0
C      1  0.5283970000000  0.3985130000000  0.4464910000000 1.0
C      1  0.5282300000000  0.5967450000000  0.4415360000000 1.0
C      1  0.5237380000000  0.5093640000000  0.6091620000000 1.0
C      1  0.5540740000000  0.4749080000000  0.4352060000000 1.0
C      1  0.5536350000000  0.5674490000000  0.5084570000000 1.0
C      1  0.5521220000000  0.4564480000000  0.5556010000000 1.0
C      1  0.5403620000000  0.4261550000000  0.3825080000000 1.0
C      1  0.5421770000000  0.6393690000000  0.4954970000000 1.0
C      1  0.5391910000000  0.4388630000000  0.6254780000000 1.0
C      1  0.5578930000000  0.3814340000000  0.5279880000000 1.0
C      1  0.5560540000000  0.5369260000000  0.3857940000000 1.0
C      1  0.5583090000000  0.5867520000000  0.5717850000000 1.0
C      1  0.4813300000000  0.5504940000000  0.4643690000000 1.0
C      1  0.4766220000000  0.5085450000000  0.5581620000000 1.0
C      1  0.4788480000000  0.4390950000000  0.4749740000000 1.0
C      1  0.3718460000000  0.5618270000000  0.5562990000000 1.0
C      1  0.3715390000000  0.4211270000000  0.5258530000000 1.0
C      1  0.3743710000000  0.5183820000000  0.4226150000000 1.0
C      1  0.6127200000000  0.4763560000000  0.5379490000000 1.0
C      1  0.6147700000000  0.4793630000000  0.4619870000000 1.0
C      1  0.6155790000000  0.5424640000000  0.5009190000000 1.0
C      1  0.6159040000000  0.5271630000000  0.5495920000000 1.0
C      1  0.6168500000000  0.4425570000000  0.4992360000000 1.0
C      1  0.6184880000000  0.5298300000000  0.4503670000000 1.0
C      1  0.4437590000000  0.4444280000000  0.5396780000000 1.0
C      1  0.4461480000000  0.4927760000000  0.4365840000000 1.0
C      1  0.4480970000000  0.5567540000000  0.5352200000000 1.0
C      1  0.4204930000000  0.5243070000000  0.4088020000000 1.0
C      1  0.4173870000000  0.5683280000000  0.5716300000000 1.0
C      1  0.4173660000000  0.4053000000000  0.5268100000000 1.0
C      1  0.3899360000000  0.5655590000000  0.5142460000000 1.0
C      1  0.3870080000000  0.4559430000000  0.5515710000000 1.0
C      1  0.3889890000000  0.4778910000000  0.4386830000000 1.0
C      1  0.5270500000000  0.5024190000000  0.4652890000000 1.0
C      1  0.5259300000000  0.5275770000000  0.5148600000000 1.0
C      1  0.5246660000000  0.4642010000000  0.5157830000000 1.0
C      1  0.5757350000000  0.6049550000000  0.5784320000000 1.0
C      1  0.5701070000000  0.3588740000000  0.5326030000000 1.0
C      1  0.5664930000000  0.5451760000000  0.3633780000000 1.0
C      1  0.5695660000000  0.5377940000000  0.4511590000000 1.0
C      1  0.5662450000000  0.5239560000000  0.5542490000000 1.0
C      1  0.5679610000000  0.4373120000000  0.4924410000000 1.0
C      1  0.4967860000000  0.4687440000000  0.4456600000000 1.0
C      1  0.4931820000000  0.5733120000000  0.5067510000000 1.0
C      1  0.4945420000000  0.4646830000000  0.5549500000000 1.0
C      1  0.4952040000000  0.6366970000000  0.4770380000000 1.0
C      1  0.4927890000000  0.4559170000000  0.6278400000000 1.0
C      1  0.4937520000000  0.4130890000000  0.3956410000000 1.0
C      1  0.5398300000000  0.5909570000000  0.5031800000000 1.0
C      1  0.5372480000000  0.4560150000000  0.5791740000000 1.0
C      1  0.5392050000000  0.4558030000000  0.4215880000000 1.0
C      1  0.4826850000000  0.4603250000000  0.4939140000000 1.0
C      1  0.4851160000000  0.5224980000000  0.4711450000000 1.0
C      1  0.4810940000000  0.5014280000000  0.5303530000000 1.0
C      1  0.5429970000000  0.5413490000000  0.5587250000000 1.0
C      1  0.5452860000000  0.4221970000000  0.5034810000000 1.0
C      1  0.5461210000000  0.5354330000000  0.4339060000000 1.0
C      1  0.6030610000000  0.5354200000000  0.5248690000000 1.0
C      1  0.6025660000000  0.4577660000000  0.5195970000000 1.0
C      1  0.6046690000000  0.5044470000000  0.4545940000000 1.0
C      1  0.4267120000000  0.5843790000000  0.6220410000000 1.0
C      1  0.4290720000000  0.3539080000000  0.5165830000000 1.0
C      1  0.4322420000000  0.5584560000000  0.3692120000000 1.0
C      1  0.4851230000000  0.5291770000000  0.4209920000000 1.0
C      1  0.4901370000000  0.5643680000000  0.5553750000000 1.0
C      1  0.4829100000000  0.4140630000000  0.5151340000000 1.0
C      1  0.4545900000000  0.5599570000000  0.4625720000000 1.0
C      1  0.4515960000000  0.5043460000000  0.5707300000000 1.0
C      1  0.4518460000000  0.4331810000000  0.4683260000000 1.0
C      1  0.5817620000000  0.5026080000000  0.5665240000000 1.0
C      1  0.5838280000000  0.4407470000000  0.4681090000000 1.0
C      1  0.5856480000000  0.5576200000000  0.4652100000000 1.0
C      1  0.4846590000000  0.5119480000000  0.4437780000000 1.0
C      1  0.4806590000000  0.5264690000000  0.5169340000000 1.0
C      1  0.4817300000000  0.4427700000000  0.5182590000000 1.0
C      1  0.5223750000000  0.4390300000000  0.4980410000000 1.0
C      1  0.5245560000000  0.5313880000000  0.4529000000000 1.0
C      1  0.5211070000000  0.5273640000000  0.5455230000000 1.0
C      1  0.5027450000000  0.4796930000000  0.5298820000000 1.0
C      1  0.5052410000000  0.4801880000000  0.4728240000000 1.0
C      1  0.5013840000000  0.5241410000000  0.4969470000000 1.0
C      1  0.4480810000000  0.4291630000000  0.4403900000000 1.0
C      1  0.4513690000000  0.5868750000000  0.4717110000000 1.0
C      1  0.4500160000000  0.4827510000000  0.5890280000000 1.0
C      1  0.5239900000000  0.4092850000000  0.5484580000000 1.0
C      1  0.5237030000000  0.5040120000000  0.3997870000000 1.0
C      1  0.5129540000000  0.5817750000000  0.5534630000000 1.0
C      1  0.4848410000000  0.3731490000000  0.4829250000000 1.0
C      1  0.4860010000000  0.5773470000000  0.4010240000000 1.0
C      1  0.4788740000000  0.5499090000000  0.6062800000000 1.0
C      1  0.5185340000000  0.4249050000000  0.4511370000000 1.0
C      1  0.5183400000000  0.5806380000000  0.4630530000000 1.0
C      1  0.5153890000000  0.4981940000000  0.5843080000000 1.0
C      1  0.5062120000000  0.4844190000000  0.3926280000000 1.0
C      1  0.5062280000000  0.6069110000000  0.5414250000000 1.0
C      1  0.5070910000000  0.4135390000000  0.5694040000000 1.0
C      1  0.4091570000000  0.5391810000000  0.4714950000000 1.0
C      1  0.4045550000000  0.5069110000000  0.5523320000000 1.0
C      1  0.4066930000000  0.4518360000000  0.4820930000000 1.0
C      1  0.5509350000000  0.4519700000000  0.6038290000000 1.0
C      1  0.5530340000000  0.4375820000000  0.4045940000000 1.0
C      1  0.5545480000000  0.6143000000000  0.4959710000000 1.0
C      1  0.5841430000000  0.5853070000000  0.4687980000000 1.0
C      1  0.5801080000000  0.4891130000000  0.5908680000000 1.0
C      1  0.5828650000000  0.4290920000000  0.4426930000000 1.0
C      1  0.4015700000000  0.5586420000000  0.4900070000000 1.0
C      1  0.3968850000000  0.4808570000000  0.5589270000000 1.0
C      1  0.3993440000000  0.4588540000000  0.4560740000000 1.0
C      1  0.4932750000000  0.6017830000000  0.4092160000000 1.0
C      1  0.4851990000000  0.5320730000000  0.6253260000000 1.0
C      1  0.4926680000000  0.3686120000000  0.4576760000000 1.0
C      1  0.5765590000000  0.5099310000000  0.4575560000000 1.0
C      1  0.5747420000000  0.5300800000000  0.5266570000000 1.0
C      1  0.5743960000000  0.4566740000000  0.5136710000000 1.0
C      1  0.4941390000000  0.3909830000000  0.4134140000000 1.0
C      1  0.4950570000000  0.6309440000000  0.4493410000000 1.0
C      1  0.4918620000000  0.4834920000000  0.6346450000000 1.0
C      1  0.4303260000000  0.4435150000000  0.3979460000000 1.0
C      1  0.4318080000000  0.6171930000000  0.5036770000000 1.0
C      1  0.4305400000000  0.4397770000000  0.6000970000000 1.0
C      1  0.3962560000000  0.5096340000000  0.4053770000000 1.0
C      1  0.3948570000000  0.5796920000000  0.5583720000000 1.0
C      1  0.3936690000000  0.4106760000000  0.5418000000000 1.0
C      1  0.5944050000000  0.5438830000000  0.5946180000000 1.0
C      1  0.5982360000000  0.3950770000000  0.4859470000000 1.0
C      1  0.5980460000000  0.5647110000000  0.4166850000000 1.0
C      1  0.5774880000000  0.6081760000000  0.4809680000000 1.0
C      1  0.5733330000000  0.4685740000000  0.6064940000000 1.0
C      1  0.5759760000000  0.4271280000000  0.4169120000000 1.0
C      1  0.4287850000000  0.5196280000000  0.5614440000000 1.0
C      1  0.4307460000000  0.4371180000000  0.4891570000000 1.0
C      1  0.4333280000000  0.5402330000000  0.4554780000000 1.0
C      1  0.5150340000000  0.4411680000000  0.6369040000000 1.0
C      1  0.5160380000000  0.4155990000000  0.3784600000000 1.0
C      1  0.5186000000000  0.6490350000000  0.4870960000000 1.0
C      1  0.4122820000000  0.6098360000000  0.5201120000000 1.0
C      1  0.4098460000000  0.4292730000000  0.5871280000000 1.0
C      1  0.4102000000000  0.4608410000000  0.3965860000000 1.0
C      1  0.4253010000000  0.3793340000000  0.5208990000000 1.0
C      1  0.4290130000000  0.5423710000000  0.3894700000000 1.0
C      1  0.4240270000000  0.5758170000000  0.5975690000000 1.0
C      1  0.4545340000000  0.6093920000000  0.4891350000000 1.0
C      1  0.4531270000000  0.4562940000000  0.5988670000000 1.0
C      1  0.4526050000000  0.4353080000000  0.4129150000000 1.0
C      1  0.4739030000000  0.4859430000000  0.4391670000000 1.0
C      1  0.4773740000000  0.5553810000000  0.5281100000000 1.0
C      1  0.4713380000000  0.4505290000000  0.5439290000000 1.0
END
