TITL C-3201379-3821-2234 2603.78664327635 125000 -1179.39562442775 0 0 192 (C1) n - 1
REM
REM in /home/nfs/bkarasulu/CARBON/AIRSS/Generating-Clusters/LCBOP/Higher-Symm/SD-CG/FIRE-CG
REM
REM
REM
REM
REM
REM ./C.cell (b20cbc046b6831c77cfcea5457e17084)
REM AIRSS Version 0.9.1 bugfix July 2018 build 013d7b7c2542+ Fri, 06 Jul 2018 19:26:36 +0100
REM compiler GCC version 9.2.1 20190827 (Red Hat 9.2.1-1)
REM options -cpp -mtune=generic -march=x86-64 -g -O0 -fpre-include=/usr/include/finclude/math-vector-fortran.h
REM seed -1035669947 -279795983 -87557395 1573601861 -1477479560 151963825 235586392 -970505985 513200159 -145899709 1832374130 -625312170 -1642882387 1087665082 2046397354 1668636661 160933421 -1887346530 -433731704 -1438088340 1880785737 2062274804 -1438998316 -1756470747 -1938203932 -1537548959 1035762339 1054902172 -1153951879 2091199048 919099775 1016457006 -1311875127
REM
CELL 1.54180   50.00000   50.00000   50.00000   90.00000   90.00000   90.00000
LATT -1
SFAC C  
C      1  0.4352140000000  0.4352350000000  0.5667350000000 1.0
C      1  0.5682740000000  0.4356550000000  0.5770620000000 1.0
C      1  0.6614050000000  0.4935620000000  0.5243890000000 1.0
C      1  0.3667900000000  0.5037570000000  0.4802750000000 1.0
C      1  0.5172940000000  0.5004930000000  0.6251290000000 1.0
C      1  0.4910050000000  0.4947840000000  0.6157490000000 1.0
C      1  0.5801300000000  0.4720610000000  0.4265160000000 1.0
C      1  0.4173250000000  0.4785360000000  0.4197890000000 1.0
C      1  0.5159850000000  0.5786840000000  0.5723350000000 1.0
C      1  0.4878790000000  0.5754880000000  0.5712710000000 1.0
C      1  0.5289810000000  0.5162240000000  0.4471240000000 1.0
C      1  0.4651910000000  0.5194140000000  0.4510640000000 1.0
C      1  0.5644960000000  0.4620370000000  0.6207470000000 1.0
C      1  0.4353870000000  0.4645080000000  0.6099740000000 1.0
C      1  0.5588080000000  0.5637850000000  0.5881680000000 1.0
C      1  0.4459120000000  0.5646490000000  0.5925350000000 1.0
C      1  0.4427430000000  0.6007100000000  0.5033780000000 1.0
C      1  0.5514100000000  0.6001230000000  0.4975830000000 1.0
C      1  0.4798950000000  0.5269010000000  0.5104100000000 1.0
C      1  0.5157730000000  0.5247830000000  0.5069200000000 1.0
C      1  0.5268810000000  0.4392510000000  0.6024540000000 1.0
C      1  0.4695370000000  0.4326310000000  0.6010700000000 1.0
C      1  0.4243970000000  0.4258640000000  0.4220800000000 1.0
C      1  0.5749870000000  0.4181980000000  0.4374970000000 1.0
C      1  0.5832850000000  0.4922100000000  0.4472050000000 1.0
C      1  0.4126710000000  0.4982300000000  0.4417950000000 1.0
C      1  0.4725750000000  0.4325630000000  0.5163840000000 1.0
C      1  0.5353030000000  0.4293720000000  0.5220210000000 1.0
C      1  0.4462950000000  0.5746280000000  0.5450890000000 1.0
C      1  0.5542150000000  0.5776390000000  0.5418070000000 1.0
C      1  0.5126560000000  0.5726300000000  0.4827650000000 1.0
C      1  0.4876330000000  0.5802050000000  0.4917400000000 1.0
C      1  0.5095220000000  0.4550410000000  0.4565440000000 1.0
C      1  0.4907060000000  0.4564530000000  0.4374540000000 1.0
C      1  0.5183360000000  0.4513590000000  0.5195950000000 1.0
C      1  0.4897690000000  0.4535390000000  0.5231740000000 1.0
C      1  0.5465730000000  0.5444750000000  0.3948170000000 1.0
C      1  0.4424150000000  0.5469130000000  0.3986490000000 1.0
C      1  0.5479020000000  0.4108600000000  0.3614870000000 1.0
C      1  0.4556640000000  0.4139650000000  0.3582240000000 1.0
C      1  0.6242240000000  0.5179290000000  0.4425530000000 1.0
C      1  0.3723170000000  0.5173090000000  0.4577610000000 1.0
C      1  0.5096670000000  0.4471220000000  0.5806980000000 1.0
C      1  0.4871260000000  0.4302010000000  0.5781850000000 1.0
C      1  0.5566050000000  0.4777470000000  0.3754720000000 1.0
C      1  0.4481950000000  0.4792530000000  0.3753210000000 1.0
C      1  0.3615880000000  0.5627170000000  0.4999320000000 1.0
C      1  0.6336990000000  0.5527440000000  0.4927210000000 1.0
C      1  0.5479410000000  0.5672560000000  0.4130660000000 1.0
C      1  0.4435710000000  0.5686410000000  0.4179530000000 1.0
C      1  0.4722450000000  0.4852940000000  0.6355330000000 1.0
C      1  0.5305730000000  0.4865270000000  0.6459940000000 1.0
C      1  0.5285030000000  0.5878550000000  0.5488730000000 1.0
C      1  0.4744080000000  0.5795500000000  0.5463130000000 1.0
C      1  0.2878920000000  0.5718910000000  0.5270750000000 1.0
C      1  0.7093800000000  0.5605660000000  0.5142210000000 1.0
C      1  0.5397750000000  0.4479750000000  0.4284140000000 1.0
C      1  0.4450840000000  0.4592990000000  0.4493590000000 1.0
C      1  0.4713570000000  0.5895290000000  0.4689560000000 1.0
C      1  0.5258530000000  0.5868420000000  0.4623530000000 1.0
C      1  0.5108120000000  0.5374940000000  0.4489050000000 1.0
C      1  0.4845120000000  0.5393340000000  0.4518410000000 1.0
C      1  0.4076210000000  0.4812880000000  0.6622650000000 1.0
C      1  0.5834250000000  0.4702290000000  0.6833110000000 1.0
C      1  0.4248670000000  0.5237230000000  0.6466220000000 1.0
C      1  0.5904790000000  0.5107790000000  0.6577110000000 1.0
C      1  0.5297620000000  0.4738910000000  0.5013440000000 1.0
C      1  0.4791880000000  0.4789060000000  0.5150960000000 1.0
C      1  0.5112310000000  0.5913000000000  0.4387310000000 1.0
C      1  0.4827470000000  0.5918310000000  0.4423860000000 1.0
C      1  0.4756830000000  0.4251020000000  0.3730770000000 1.0
C      1  0.5281540000000  0.4245880000000  0.3742400000000 1.0
C      1  0.5317520000000  0.5687370000000  0.5944000000000 1.0
C      1  0.4737350000000  0.5674390000000  0.5952620000000 1.0
C      1  0.4792430000000  0.5434910000000  0.3680850000000 1.0
C      1  0.5061660000000  0.5445730000000  0.3670660000000 1.0
C      1  0.5546090000000  0.4453690000000  0.6004470000000 1.0
C      1  0.4439010000000  0.4434210000000  0.5935590000000 1.0
C      1  0.5221470000000  0.5329480000000  0.3871770000000 1.0
C      1  0.4650220000000  0.5327090000000  0.3901030000000 1.0
C      1  0.4443720000000  0.4820420000000  0.6303010000000 1.0
C      1  0.5575250000000  0.4782020000000  0.6428490000000 1.0
C      1  0.5609660000000  0.5523580000000  0.4988490000000 1.0
C      1  0.4334930000000  0.5527530000000  0.5033540000000 1.0
C      1  0.3945000000000  0.5204060000000  0.4408270000000 1.0
C      1  0.5970540000000  0.5163800000000  0.4392690000000 1.0
C      1  0.4217410000000  0.4504040000000  0.5468450000000 1.0
C      1  0.5804460000000  0.4517920000000  0.5571890000000 1.0
C      1  0.4733090000000  0.4742290000000  0.3626400000000 1.0
C      1  0.5324140000000  0.4729860000000  0.3605970000000 1.0
C      1  0.6844340000000  0.5584570000000  0.5069500000000 1.0
C      1  0.3122220000000  0.5690470000000  0.5181510000000 1.0
C      1  0.5362050000000  0.4750560000000  0.4177350000000 1.0
C      1  0.4676950000000  0.4721320000000  0.4369400000000 1.0
C      1  0.4960760000000  0.3899950000000  0.5532390000000 1.0
C      1  0.5216780000000  0.3827350000000  0.5558080000000 1.0
C      1  0.4474150000000  0.5166040000000  0.4729030000000 1.0
C      1  0.5463920000000  0.5145100000000  0.4696580000000 1.0
C      1  0.4694750000000  0.3910300000000  0.4792770000000 1.0
C      1  0.5465960000000  0.3876750000000  0.4872000000000 1.0
C      1  0.4848280000000  0.4773210000000  0.6599440000000 1.0
C      1  0.5116670000000  0.4770070000000  0.6650590000000 1.0
C      1  0.5937520000000  0.3950520000000  0.4953640000000 1.0
C      1  0.4213780000000  0.3952020000000  0.4810240000000 1.0
C      1  0.5692500000000  0.5675020000000  0.5633690000000 1.0
C      1  0.4331520000000  0.5679520000000  0.5689350000000 1.0
C      1  0.4128920000000  0.5585760000000  0.4840850000000 1.0
C      1  0.5817060000000  0.5567460000000  0.4792680000000 1.0
C      1  0.5528410000000  0.4033840000000  0.4301760000000 1.0
C      1  0.4426050000000  0.4062830000000  0.4196810000000 1.0
C      1  0.6017100000000  0.5338580000000  0.6531900000000 1.0
C      1  0.4236920000000  0.5494540000000  0.6505900000000 1.0
C      1  0.5284630000000  0.6156190000000  0.5077800000000 1.0
C      1  0.4666010000000  0.6160870000000  0.5129190000000 1.0
C      1  0.5213370000000  0.3819030000000  0.4811340000000 1.0
C      1  0.4949690000000  0.3835610000000  0.4781040000000 1.0
C      1  0.5117950000000  0.4296770000000  0.6247980000000 1.0
C      1  0.4843460000000  0.4282860000000  0.6249460000000 1.0
C      1  0.4324290000000  0.4526300000000  0.4978730000000 1.0
C      1  0.5737000000000  0.4533500000000  0.5080670000000 1.0
C      1  0.4042490000000  0.5431770000000  0.4271310000000 1.0
C      1  0.5831480000000  0.5366500000000  0.4248670000000 1.0
C      1  0.5169210000000  0.5624530000000  0.6174600000000 1.0
C      1  0.4898250000000  0.5619710000000  0.6177240000000 1.0
C      1  0.5083630000000  0.4751440000000  0.5753700000000 1.0
C      1  0.4877570000000  0.4904640000000  0.5879960000000 1.0
C      1  0.5884680000000  0.4547530000000  0.7036640000000 1.0
C      1  0.3912530000000  0.4672320000000  0.6768820000000 1.0
C      1  0.3920420000000  0.4738720000000  0.5150060000000 1.0
C      1  0.6123810000000  0.4753260000000  0.5286550000000 1.0
C      1  0.3859250000000  0.5578550000000  0.4906390000000 1.0
C      1  0.6084730000000  0.5519110000000  0.4846650000000 1.0
C      1  0.5464380000000  0.3895960000000  0.5630830000000 1.0
C      1  0.4780210000000  0.4099320000000  0.5605760000000 1.0
C      1  0.6590590000000  0.5558140000000  0.4997580000000 1.0
C      1  0.3369510000000  0.5661080000000  0.5090750000000 1.0
C      1  0.4275910000000  0.4962650000000  0.4677640000000 1.0
C      1  0.5654480000000  0.4925530000000  0.4708430000000 1.0
C      1  0.4795890000000  0.5128660000000  0.4059830000000 1.0
C      1  0.5087050000000  0.5131960000000  0.4037620000000 1.0
C      1  0.4347010000000  0.4689300000000  0.4745140000000 1.0
C      1  0.5591870000000  0.4729420000000  0.4921500000000 1.0
C      1  0.4254400000000  0.4958070000000  0.6463790000000 1.0
C      1  0.5772970000000  0.4864360000000  0.6614140000000 1.0
C      1  0.4835310000000  0.6370530000000  0.5023440000000 1.0
C      1  0.5108130000000  0.6360200000000  0.4978880000000 1.0
C      1  0.5711080000000  0.5303200000000  0.3992110000000 1.0
C      1  0.4154190000000  0.5375870000000  0.4007440000000 1.0
C      1  0.5697580000000  0.4462840000000  0.4354910000000 1.0
C      1  0.4247760000000  0.4524470000000  0.4303190000000 1.0
C      1  0.4285160000000  0.4830820000000  0.3936980000000 1.0
C      1  0.5618490000000  0.4785000000000  0.4034370000000 1.0
C      1  0.4462370000000  0.4051690000000  0.4863960000000 1.0
C      1  0.5678040000000  0.4033130000000  0.4970950000000 1.0
C      1  0.4235920000000  0.5754630000000  0.4635090000000 1.0
C      1  0.5718450000000  0.5738400000000  0.4583950000000 1.0
C      1  0.4872170000000  0.4119070000000  0.3960280000000 1.0
C      1  0.5155340000000  0.4155010000000  0.3985380000000 1.0
C      1  0.5298550000000  0.4882430000000  0.5646270000000 1.0
C      1  0.4661140000000  0.5007790000000  0.5750540000000 1.0
C      1  0.5241360000000  0.4997280000000  0.4240560000000 1.0
C      1  0.4686660000000  0.5003280000000  0.4298830000000 1.0
C      1  0.5241560000000  0.4993760000000  0.5164760000000 1.0
C      1  0.4750930000000  0.5038460000000  0.5269000000000 1.0
C      1  0.3749840000000  0.4885950000000  0.5006980000000 1.0
C      1  0.6365670000000  0.4858370000000  0.5261070000000 1.0
C      1  0.5527210000000  0.5931800000000  0.4688750000000 1.0
C      1  0.4435720000000  0.5937360000000  0.4746500000000 1.0
C      1  0.5889260000000  0.4604790000000  0.5314030000000 1.0
C      1  0.4153920000000  0.4590580000000  0.5203740000000 1.0
C      1  0.4215450000000  0.5655410000000  0.4370200000000 1.0
C      1  0.5697570000000  0.5622090000000  0.4324940000000 1.0
C      1  0.5264850000000  0.5852740000000  0.4158700000000 1.0
C      1  0.4649180000000  0.5861170000000  0.4215090000000 1.0
C      1  0.5402770000000  0.5330710000000  0.4920330000000 1.0
C      1  0.4540700000000  0.5333020000000  0.4962550000000 1.0
C      1  0.5311010000000  0.4204070000000  0.4214890000000 1.0
C      1  0.4683150000000  0.4012660000000  0.4137760000000 1.0
C      1  0.5142570000000  0.6009040000000  0.5283010000000 1.0
C      1  0.4858230000000  0.5927910000000  0.5211490000000 1.0
C      1  0.4498720000000  0.4122020000000  0.5569920000000 1.0
C      1  0.5637180000000  0.4084550000000  0.5707460000000 1.0
C      1  0.5165820000000  0.4928930000000  0.3477800000000 1.0
C      1  0.4892530000000  0.4934300000000  0.3488280000000 1.0
C      1  0.4496050000000  0.4296490000000  0.5003500000000 1.0
C      1  0.5606950000000  0.4276340000000  0.5095560000000 1.0
C      1  0.5102410000000  0.4717750000000  0.4785260000000 1.0
C      1  0.4848960000000  0.4811850000000  0.4871020000000 1.0
C      1  0.4878540000000  0.4497310000000  0.3661070000000 1.0
C      1  0.5170720000000  0.4490220000000  0.3650030000000 1.0
C      1  0.5581350000000  0.5765530000000  0.5141450000000 1.0
C      1  0.4367190000000  0.5766030000000  0.5191420000000 1.0
END
