TITL C-3201373-1215-58 662953.762098199 125000 -686.105432011545 0 0 113 (C1) n - 1
REM
REM in /home/nfs/bkarasulu/CARBON/AIRSS/Generating-Clusters/LCBOP/Higher-Symm/SD-CG/FIRE-CG
REM
REM
REM
REM
REM
REM ./C.cell (b20cbc046b6831c77cfcea5457e17084)
REM AIRSS Version 0.9.1 bugfix July 2018 build 013d7b7c2542+ Fri, 06 Jul 2018 19:26:36 +0100
REM compiler GCC version 9.2.1 20190827 (Red Hat 9.2.1-1)
REM options -cpp -mtune=generic -march=x86-64 -g -O0 -fpre-include=/usr/include/finclude/math-vector-fortran.h
REM seed 2078822470 -146658179 -1064589978 -38975357 -767950592 -1388170732 787063429 -900124859 -987259949 1382490206 106053037 -1308197250 1233523197 -66697667 611691607 2123686787 -1372865630 1486333004 -1572057524 551768228 -1243831454 -1072367301 -1414645691 -501394341 822291433 1809066248 1732637316 -558135273 -1700417923 1436088304 502285255 1565917305 2049579188
REM
CELL 1.54180   50.00000   50.00000   50.00000   90.00000   90.00000   90.00000
LATT -1
SFAC C  
C      1  0.5324120000000  0.5863580000000  0.5030020000000 1.0
C      1  0.5512030000000  0.4346430000000  0.5251210000000 1.0
C      1  0.4917410000000  0.5768270000000  0.4468670000000 1.0
C      1  0.6294890000000  0.5075080000000  0.4693400000000 1.0
C      1  0.4632490000000  0.5660710000000  0.5497450000000 1.0
C      1  0.5911450000000  0.4773000000000  0.5229030000000 1.0
C      1  0.4380420000000  0.5983840000000  0.5236000000000 1.0
C      1  0.5692260000000  0.5623080000000  0.5173630000000 1.0
C      1  0.5787590000000  0.5546400000000  0.4623930000000 1.0
C      1  0.5833890000000  0.5534840000000  0.4915440000000 1.0
C      1  0.3864150000000  0.5275410000000  0.4854370000000 1.0
C      1  0.4650070000000  0.4006690000000  0.5090290000000 1.0
C      1  0.4384870000000  0.4924240000000  0.4170010000000 1.0
C      1  0.5088120000000  0.4949890000000  0.4100760000000 1.0
C      1  0.4450030000000  0.5537150000000  0.5047080000000 1.0
C      1  0.4472390000000  0.4581970000000  0.4656000000000 1.0
C      1  0.4951150000000  0.4698240000000  0.5117700000000 1.0
C      1  0.5730910000000  0.4753950000000  0.5431770000000 1.0
C      1  0.5514510000000  0.5212000000000  0.5330840000000 1.0
C      1  0.5087600000000  0.4337080000000  0.5460710000000 1.0
C      1  0.4375300000000  0.4438340000000  0.5415920000000 1.0
C      1  0.4504290000000  0.4746820000000  0.4882240000000 1.0
C      1  0.5637650000000  0.4734750000000  0.4448340000000 1.0
C      1  0.4457640000000  0.5716900000000  0.5273680000000 1.0
C      1  0.5007960000000  0.4069150000000  0.5397140000000 1.0
C      1  0.4710940000000  0.5713150000000  0.4652080000000 1.0
C      1  0.4847420000000  0.4018970000000  0.4881950000000 1.0
C      1  0.4108420000000  0.5707360000000  0.6019230000000 1.0
C      1  0.5098820000000  0.3898930000000  0.4967240000000 1.0
C      1  0.5649600000000  0.4951140000000  0.4875660000000 1.0
C      1  0.5506010000000  0.5094880000000  0.5066910000000 1.0
C      1  0.5725350000000  0.5397410000000  0.5362540000000 1.0
C      1  0.4518600000000  0.4971270000000  0.5316720000000 1.0
C      1  0.5485750000000  0.4676800000000  0.6261920000000 1.0
C      1  0.4435370000000  0.6236680000000  0.5174420000000 1.0
C      1  0.4125140000000  0.5260240000000  0.4774010000000 1.0
C      1  0.4320310000000  0.5635530000000  0.5885600000000 1.0
C      1  0.4590850000000  0.4334510000000  0.4570170000000 1.0
C      1  0.5362760000000  0.5384640000000  0.4260270000000 1.0
C      1  0.5912800000000  0.4888350000000  0.4967210000000 1.0
C      1  0.4336750000000  0.5278950000000  0.4965780000000 1.0
C      1  0.3960390000000  0.4290540000000  0.5106130000000 1.0
C      1  0.5172170000000  0.5413300000000  0.4898320000000 1.0
C      1  0.5357950000000  0.5802550000000  0.5502070000000 1.0
C      1  0.4979900000000  0.5371040000000  0.5319830000000 1.0
C      1  0.5997530000000  0.5323270000000  0.5308250000000 1.0
C      1  0.3967820000000  0.4086860000000  0.4400160000000 1.0
C      1  0.6247010000000  0.5465970000000  0.4402960000000 1.0
C      1  0.5559050000000  0.4303140000000  0.4637200000000 1.0
C      1  0.4577180000000  0.4253970000000  0.5526740000000 1.0
C      1  0.4577020000000  0.5111380000000  0.4074630000000 1.0
C      1  0.4813410000000  0.5110430000000  0.4903720000000 1.0
C      1  0.3834640000000  0.4134960000000  0.4626020000000 1.0
C      1  0.5293310000000  0.4745370000000  0.6078460000000 1.0
C      1  0.4689620000000  0.5580350000000  0.4897810000000 1.0
C      1  0.4915940000000  0.5599950000000  0.5479450000000 1.0
C      1  0.5173990000000  0.4538330000000  0.5925690000000 1.0
C      1  0.5188530000000  0.5520250000000  0.5872120000000 1.0
C      1  0.5141910000000  0.5678480000000  0.5640670000000 1.0
C      1  0.5316060000000  0.4351080000000  0.4774810000000 1.0
C      1  0.5081120000000  0.4355580000000  0.4606460000000 1.0
C      1  0.5501470000000  0.4907520000000  0.4628680000000 1.0
C      1  0.4463520000000  0.4712400000000  0.5454900000000 1.0
C      1  0.6043750000000  0.5339210000000  0.5020830000000 1.0
C      1  0.5564120000000  0.5464320000000  0.4456420000000 1.0
C      1  0.4936760000000  0.5672940000000  0.4202260000000 1.0
C      1  0.5033690000000  0.4957590000000  0.5044080000000 1.0
C      1  0.4690690000000  0.4686750000000  0.5652180000000 1.0
C      1  0.4702200000000  0.5585350000000  0.4078660000000 1.0
C      1  0.5325750000000  0.4420410000000  0.5049720000000 1.0
C      1  0.4892550000000  0.5396320000000  0.5011070000000 1.0
C      1  0.4455610000000  0.4190570000000  0.4371110000000 1.0
C      1  0.4142150000000  0.4362260000000  0.5285870000000 1.0
C      1  0.5245550000000  0.5682710000000  0.4831460000000 1.0
C      1  0.5484710000000  0.5801120000000  0.5247350000000 1.0
C      1  0.5244680000000  0.5175480000000  0.5432510000000 1.0
C      1  0.4315480000000  0.5424370000000  0.4339650000000 1.0
C      1  0.4214340000000  0.4102730000000  0.4298940000000 1.0
C      1  0.5213060000000  0.5283130000000  0.5996330000000 1.0
C      1  0.5093790000000  0.4482370000000  0.4352900000000 1.0
C      1  0.4558460000000  0.6456660000000  0.5106550000000 1.0
C      1  0.4839360000000  0.5039950000000  0.4003510000000 1.0
C      1  0.4696880000000  0.4612460000000  0.5046620000000 1.0
C      1  0.5164430000000  0.5804950000000  0.4594380000000 1.0
C      1  0.6023790000000  0.5597530000000  0.4473060000000 1.0
C      1  0.6359250000000  0.5237450000000  0.4489210000000 1.0
C      1  0.4835780000000  0.4228000000000  0.4683490000000 1.0
C      1  0.4508580000000  0.5525910000000  0.5714900000000 1.0
C      1  0.4586840000000  0.5257610000000  0.5713730000000 1.0
C      1  0.4738930000000  0.4414240000000  0.5720800000000 1.0
C      1  0.5208360000000  0.3946630000000  0.5229590000000 1.0
C      1  0.5251510000000  0.5119620000000  0.4267880000000 1.0
C      1  0.5194580000000  0.5575300000000  0.4133120000000 1.0
C      1  0.5107030000000  0.4498230000000  0.5218170000000 1.0
C      1  0.4719080000000  0.4063130000000  0.5361140000000 1.0
C      1  0.5188830000000  0.4897810000000  0.5520900000000 1.0
C      1  0.4516610000000  0.5385860000000  0.4141090000000 1.0
C      1  0.4192280000000  0.5224010000000  0.4500200000000 1.0
C      1  0.5688900000000  0.4471420000000  0.4471710000000 1.0
C      1  0.4893350000000  0.4887470000000  0.5596830000000 1.0
C      1  0.5473560000000  0.4061810000000  0.5285660000000 1.0
C      1  0.5229460000000  0.5020130000000  0.6047550000000 1.0
C      1  0.5234860000000  0.5018390000000  0.4540670000000 1.0
C      1  0.6105170000000  0.5088050000000  0.4898000000000 1.0
C      1  0.4522180000000  0.5034700000000  0.5001270000000 1.0
C      1  0.3843940000000  0.4211980000000  0.4880500000000 1.0
C      1  0.4207370000000  0.4970470000000  0.4371610000000 1.0
C      1  0.5026980000000  0.4401250000000  0.5730950000000 1.0
C      1  0.5253300000000  0.5143020000000  0.4974020000000 1.0
C      1  0.4941020000000  0.5069650000000  0.4620780000000 1.0
C      1  0.4707850000000  0.5103510000000  0.5507840000000 1.0
C      1  0.5105390000000  0.4672050000000  0.4163570000000 1.0
C      1  0.5469610000000  0.4669760000000  0.5456950000000 1.0
END
