TITL C-3201372-1405-606 -1.36582268876146e-06 125000 -1153.85444825601 0 0 189 (C1) n - 1
REM
REM in /home/nfs/bkarasulu/CARBON/AIRSS/Generating-Clusters/LCBOP/Higher-Symm/SD-CG/FIRE-CG
REM
REM
REM
REM
REM
REM ./C.cell (b20cbc046b6831c77cfcea5457e17084)
REM AIRSS Version 0.9.1 bugfix July 2018 build 013d7b7c2542+ Fri, 06 Jul 2018 19:26:36 +0100
REM compiler GCC version 9.2.1 20190827 (Red Hat 9.2.1-1)
REM options -cpp -mtune=generic -march=x86-64 -g -O0 -fpre-include=/usr/include/finclude/math-vector-fortran.h
REM seed 1533514307 -2107250257 1665094347 -582753975 -641952183 -1208115263 452990536 -2002318128 1151323474 -1282518174 1333391950 690041494 -739001426 2123743711 320083494 -1859429994 1590260506 -86832949 -1264275141 -1400406020 401520789 -1315707877 -486390760 1314513318 -791481261 -2046623159 -278399676 -2038389800 657357563 -1147695785 -625510043 -1348456487 -59145945
REM
CELL 1.54180   50.00000   50.00000   50.00000   90.00000   90.00000   90.00000
LATT -1
SFAC C  
C      1  0.4111470000000  0.4692890000000  0.4919770000000 1.0
C      1  0.6053020000000  0.5123780000000  0.5102170000000 1.0
C      1  0.6001470000000  0.5278340000000  0.4871740000000 1.0
C      1  0.4215180000000  0.4762750000000  0.5179800000000 1.0
C      1  0.4429630000000  0.4577180000000  0.4135990000000 1.0
C      1  0.5580960000000  0.4584380000000  0.5888900000000 1.0
C      1  0.5545780000000  0.5394240000000  0.4162810000000 1.0
C      1  0.4399530000000  0.5419770000000  0.5889640000000 1.0
C      1  0.4676190000000  0.5755200000000  0.5102130000000 1.0
C      1  0.5341150000000  0.5702270000000  0.4865700000000 1.0
C      1  0.5293720000000  0.4272230000000  0.5109010000000 1.0
C      1  0.4668240000000  0.4278650000000  0.4853800000000 1.0
C      1  0.5743690000000  0.4035010000000  0.5417180000000 1.0
C      1  0.4258730000000  0.4120570000000  0.4657130000000 1.0
C      1  0.4230350000000  0.5982350000000  0.5419380000000 1.0
C      1  0.5745080000000  0.5846250000000  0.4664150000000 1.0
C      1  0.5225390000000  0.4445940000000  0.4646750000000 1.0
C      1  0.4675430000000  0.4456860000000  0.5330360000000 1.0
C      1  0.4778070000000  0.5568030000000  0.4651230000000 1.0
C      1  0.5221270000000  0.5536020000000  0.5328850000000 1.0
C      1  0.4482070000000  0.4763870000000  0.4616290000000 1.0
C      1  0.5596290000000  0.4758260000000  0.5411520000000 1.0
C      1  0.5563090000000  0.5194400000000  0.4649810000000 1.0
C      1  0.4381330000000  0.5272230000000  0.5418480000000 1.0
C      1  0.4308310000000  0.4592800000000  0.4749700000000 1.0
C      1  0.5675540000000  0.4490260000000  0.5347030000000 1.0
C      1  0.5744150000000  0.5373490000000  0.4782320000000 1.0
C      1  0.4297260000000  0.5536870000000  0.5342650000000 1.0
C      1  0.5262410000000  0.6047570000000  0.5519240000000 1.0
C      1  0.4776070000000  0.6077460000000  0.4453460000000 1.0
C      1  0.4718920000000  0.3956310000000  0.5531750000000 1.0
C      1  0.5231480000000  0.3934320000000  0.4450820000000 1.0
C      1  0.4771030000000  0.5009280000000  0.5990120000000 1.0
C      1  0.5221540000000  0.4996760000000  0.3992280000000 1.0
C      1  0.5213750000000  0.4990750000000  0.5990010000000 1.0
C      1  0.4764590000000  0.4994730000000  0.3964760000000 1.0
C      1  0.5890080000000  0.5659620000000  0.5419020000000 1.0
C      1  0.4110400000000  0.5663670000000  0.4613700000000 1.0
C      1  0.4111350000000  0.4309790000000  0.5457100000000 1.0
C      1  0.5872580000000  0.4325990000000  0.4600280000000 1.0
C      1  0.5337340000000  0.5456630000000  0.3971620000000 1.0
C      1  0.4644130000000  0.5471970000000  0.6049110000000 1.0
C      1  0.4650420000000  0.4528570000000  0.3944800000000 1.0
C      1  0.5337770000000  0.4530780000000  0.6049990000000 1.0
C      1  0.4539790000000  0.5192980000000  0.5192790000000 1.0
C      1  0.5345720000000  0.5155650000000  0.4832080000000 1.0
C      1  0.5422180000000  0.4861480000000  0.5187230000000 1.0
C      1  0.4698750000000  0.4836070000000  0.4774130000000 1.0
C      1  0.4635100000000  0.4538100000000  0.6041760000000 1.0
C      1  0.5360810000000  0.4527930000000  0.3960360000000 1.0
C      1  0.5350550000000  0.5460760000000  0.6012270000000 1.0
C      1  0.4639750000000  0.5468410000000  0.3989600000000 1.0
C      1  0.4368990000000  0.4627410000000  0.6015610000000 1.0
C      1  0.5622790000000  0.4619120000000  0.4023000000000 1.0
C      1  0.5616310000000  0.5372100000000  0.5973050000000 1.0
C      1  0.4383480000000  0.5369370000000  0.4064120000000 1.0
C      1  0.4593780000000  0.5367140000000  0.4713250000000 1.0
C      1  0.5398400000000  0.5328440000000  0.5295600000000 1.0
C      1  0.5409140000000  0.4646310000000  0.4705480000000 1.0
C      1  0.4507370000000  0.4672480000000  0.5223840000000 1.0
C      1  0.4435710000000  0.5169490000000  0.5699220000000 1.0
C      1  0.5528840000000  0.5129200000000  0.4347540000000 1.0
C      1  0.5551000000000  0.4835540000000  0.5697770000000 1.0
C      1  0.4474740000000  0.4825990000000  0.4325520000000 1.0
C      1  0.4332380000000  0.3895430000000  0.4839940000000 1.0
C      1  0.5614140000000  0.3899200000000  0.5184190000000 1.0
C      1  0.5669300000000  0.6083000000000  0.4836670000000 1.0
C      1  0.4362340000000  0.6116050000000  0.5182090000000 1.0
C      1  0.5264220000000  0.5696920000000  0.5873940000000 1.0
C      1  0.4727480000000  0.5715820000000  0.4108370000000 1.0
C      1  0.4711080000000  0.4299030000000  0.5901250000000 1.0
C      1  0.5274000000000  0.4287720000000  0.4094170000000 1.0
C      1  0.5104730000000  0.5281370000000  0.4454700000000 1.0
C      1  0.4865890000000  0.5261660000000  0.5524960000000 1.0
C      1  0.4981300000000  0.4807350000000  0.4394880000000 1.0
C      1  0.5112340000000  0.4724860000000  0.5538890000000 1.0
C      1  0.4795600000000  0.4295930000000  0.4006420000000 1.0
C      1  0.5195820000000  0.4300560000000  0.5971120000000 1.0
C      1  0.5209960000000  0.5701560000000  0.4015260000000 1.0
C      1  0.4784310000000  0.5701750000000  0.5965740000000 1.0
C      1  0.4647030000000  0.6222210000000  0.5155280000000 1.0
C      1  0.5396140000000  0.6206140000000  0.4844650000000 1.0
C      1  0.5332630000000  0.3795380000000  0.5161920000000 1.0
C      1  0.4609990000000  0.3785750000000  0.4838250000000 1.0
C      1  0.4824870000000  0.5800090000000  0.5368570000000 1.0
C      1  0.5192740000000  0.5795780000000  0.4609020000000 1.0
C      1  0.5138290000000  0.4218590000000  0.5371550000000 1.0
C      1  0.4819350000000  0.4214430000000  0.4594310000000 1.0
C      1  0.6169350000000  0.4793830000000  0.5497510000000 1.0
C      1  0.3827540000000  0.4744010000000  0.4520770000000 1.0
C      1  0.3894600000000  0.5130090000000  0.5456030000000 1.0
C      1  0.6207620000000  0.5256590000000  0.4415170000000 1.0
C      1  0.4066400000000  0.3654680000000  0.5167050000000 1.0
C      1  0.5875370000000  0.3659210000000  0.4854800000000 1.0
C      1  0.5942820000000  0.6334360000000  0.5151950000000 1.0
C      1  0.4100630000000  0.6346250000000  0.4845270000000 1.0
C      1  0.5619770000000  0.5629520000000  0.4812350000000 1.0
C      1  0.4433200000000  0.5606620000000  0.5102160000000 1.0
C      1  0.4398740000000  0.4335900000000  0.4783940000000 1.0
C      1  0.5531710000000  0.4426550000000  0.5115410000000 1.0
C      1  0.4476910000000  0.5350920000000  0.4965330000000 1.0
C      1  0.5419430000000  0.5134900000000  0.5100220000000 1.0
C      1  0.5499900000000  0.4671770000000  0.4965650000000 1.0
C      1  0.4699870000000  0.4795460000000  0.5044840000000 1.0
C      1  0.5144150000000  0.5255290000000  0.3888720000000 1.0
C      1  0.4844560000000  0.5262420000000  0.6119650000000 1.0
C      1  0.4844730000000  0.4735880000000  0.3852100000000 1.0
C      1  0.5141470000000  0.4741100000000  0.6124750000000 1.0
C      1  0.5236540000000  0.5043610000000  0.4290070000000 1.0
C      1  0.4719050000000  0.5100490000000  0.5723940000000 1.0
C      1  0.4739600000000  0.4923050000000  0.4241120000000 1.0
C      1  0.5264590000000  0.4895040000000  0.5725320000000 1.0
C      1  0.5037090000000  0.3820240000000  0.5122780000000 1.0
C      1  0.4904180000000  0.3813990000000  0.4862400000000 1.0
C      1  0.4945330000000  0.6196580000000  0.5118460000000 1.0
C      1  0.5100160000000  0.6198480000000  0.4867680000000 1.0
C      1  0.5973940000000  0.5246450000000  0.4258720000000 1.0
C      1  0.3986480000000  0.5232730000000  0.5710920000000 1.0
C      1  0.4018320000000  0.4734640000000  0.4310440000000 1.0
C      1  0.5998740000000  0.4745340000000  0.5719350000000 1.0
C      1  0.5212450000000  0.4223540000000  0.4838930000000 1.0
C      1  0.4726290000000  0.4245330000000  0.5136990000000 1.0
C      1  0.4782410000000  0.5793240000000  0.4839180000000 1.0
C      1  0.5237290000000  0.5751260000000  0.5132100000000 1.0
C      1  0.4986930000000  0.4451740000000  0.5527630000000 1.0
C      1  0.4987880000000  0.4453140000000  0.4456700000000 1.0
C      1  0.4967160000000  0.5550060000000  0.5509990000000 1.0
C      1  0.5026610000000  0.5568170000000  0.4467120000000 1.0
C      1  0.5787000000000  0.4302060000000  0.5529850000000 1.0
C      1  0.4151670000000  0.4227320000000  0.4404480000000 1.0
C      1  0.4180420000000  0.5712940000000  0.5536480000000 1.0
C      1  0.5835630000000  0.5741040000000  0.4406020000000 1.0
C      1  0.4108820000000  0.4522430000000  0.5627410000000 1.0
C      1  0.5878610000000  0.4531580000000  0.4425800000000 1.0
C      1  0.5890220000000  0.5447240000000  0.5585400000000 1.0
C      1  0.4113880000000  0.5443410000000  0.4456760000000 1.0
C      1  0.5812600000000  0.4977020000000  0.5764180000000 1.0
C      1  0.4202880000000  0.4969120000000  0.4285880000000 1.0
C      1  0.4188890000000  0.5014690000000  0.5782240000000 1.0
C      1  0.5799030000000  0.5004010000000  0.4266260000000 1.0
C      1  0.5434150000000  0.6148820000000  0.4252730000000 1.0
C      1  0.4634980000000  0.6167010000000  0.5740130000000 1.0
C      1  0.4584230000000  0.3853690000000  0.4242400000000 1.0
C      1  0.5343610000000  0.3850050000000  0.5734390000000 1.0
C      1  0.5146010000000  0.5259460000000  0.6078640000000 1.0
C      1  0.4842670000000  0.5267950000000  0.3903830000000 1.0
C      1  0.4840550000000  0.4743650000000  0.6089120000000 1.0
C      1  0.5151300000000  0.4730800000000  0.3892200000000 1.0
C      1  0.4995760000000  0.5687540000000  0.4193930000000 1.0
C      1  0.4997570000000  0.5664270000000  0.5787420000000 1.0
C      1  0.5009390000000  0.4333770000000  0.4182190000000 1.0
C      1  0.4973680000000  0.4331850000000  0.5802370000000 1.0
C      1  0.4608840000000  0.4072560000000  0.5756070000000 1.0
C      1  0.5359000000000  0.4053320000000  0.4237130000000 1.0
C      1  0.5372930000000  0.5922640000000  0.5737410000000 1.0
C      1  0.4640820000000  0.5953660000000  0.4246870000000 1.0
C      1  0.5288060000000  0.4046150000000  0.5570430000000 1.0
C      1  0.4663690000000  0.4050680000000  0.4394570000000 1.0
C      1  0.4684850000000  0.5972640000000  0.5572540000000 1.0
C      1  0.5353070000000  0.5957880000000  0.4411570000000 1.0
C      1  0.4197940000000  0.4726340000000  0.5811850000000 1.0
C      1  0.5792310000000  0.4719210000000  0.4229350000000 1.0
C      1  0.5797960000000  0.5263370000000  0.5782950000000 1.0
C      1  0.4212140000000  0.5257270000000  0.4263280000000 1.0
C      1  0.5082620000000  0.5975750000000  0.5284010000000 1.0
C      1  0.4955890000000  0.5997380000000  0.4688500000000 1.0
C      1  0.4890820000000  0.4032590000000  0.5290350000000 1.0
C      1  0.5051320000000  0.4014880000000  0.4683830000000 1.0
C      1  0.4155600000000  0.5873820000000  0.4777580000000 1.0
C      1  0.5856320000000  0.5869250000000  0.5253000000000 1.0
C      1  0.5821060000000  0.4130090000000  0.4778130000000 1.0
C      1  0.4151090000000  0.4119130000000  0.5267270000000 1.0
C      1  0.5812330000000  0.5500490000000  0.4239870000000 1.0
C      1  0.4132830000000  0.5520110000000  0.5767980000000 1.0
C      1  0.4167470000000  0.4475190000000  0.4245270000000 1.0
C      1  0.5839830000000  0.4475250000000  0.5769930000000 1.0
C      1  0.4939120000000  0.4915880000000  0.4665920000000 1.0
C      1  0.5141100000000  0.4819470000000  0.5274930000000 1.0
C      1  0.5093680000000  0.5146660000000  0.4714720000000 1.0
C      1  0.4809120000000  0.5161320000000  0.5266880000000 1.0
C      1  0.4031480000000  0.4938550000000  0.5314760000000 1.0
C      1  0.6210990000000  0.5291380000000  0.4681850000000 1.0
C      1  0.6156920000000  0.4948940000000  0.5277050000000 1.0
C      1  0.3866170000000  0.4742280000000  0.4789520000000 1.0
C      1  0.4183850000000  0.3892290000000  0.5092340000000 1.0
C      1  0.5770020000000  0.3899530000000  0.4937840000000 1.0
C      1  0.5824160000000  0.6096690000000  0.5083100000000 1.0
C      1  0.4206610000000  0.6107900000000  0.4933950000000 1.0
C      1  0.4913040000000  0.4926520000000  0.5170760000000 1.0
END
