TITL C-3201373-1215-2342 -0.213132863882765 125000 -827.95565353357 0 0 135 (C1) n - 1
REM
REM in /home/nfs/bkarasulu/CARBON/AIRSS/Generating-Clusters/LCBOP/Higher-Symm/SD-CG/FIRE-CG
REM
REM
REM
REM
REM
REM ./C.cell (b20cbc046b6831c77cfcea5457e17084)
REM AIRSS Version 0.9.1 bugfix July 2018 build 013d7b7c2542+ Fri, 06 Jul 2018 19:26:36 +0100
REM compiler GCC version 9.2.1 20190827 (Red Hat 9.2.1-1)
REM options -cpp -mtune=generic -march=x86-64 -g -O0 -fpre-include=/usr/include/finclude/math-vector-fortran.h
REM seed 254772523 -224385967 -724530405 203594077 1028713971 1778423047 1724998714 1723905623 -1664929886 1904961519 39804842 1288434667 -1109843711 -1001146733 1098386642 932197637 1845658944 973322592 -2051895089 331400882 -1086482457 -1903989640 321051097 -661428090 -177665433 179422726 -268280598 -1717313358 463555161 -1828566263 -1110786189 -507008352 -1016224977
REM
CELL 1.54180   50.00000   50.00000   50.00000   90.00000   90.00000   90.00000
LATT -1
SFAC C  
C      1  0.4821010000000  0.5495470000000  0.3942240000000 1.0
C      1  0.4819610000000  0.4394250000000  0.4010680000000 1.0
C      1  0.5088800000000  0.4753830000000  0.4990530000000 1.0
C      1  0.5089450000000  0.5259340000000  0.4959090000000 1.0
C      1  0.4801990000000  0.5301080000000  0.5070470000000 1.0
C      1  0.4801260000000  0.4726930000000  0.5106180000000 1.0
C      1  0.4564420000000  0.5291030000000  0.4611280000000 1.0
C      1  0.4563660000000  0.4680600000000  0.4649230000000 1.0
C      1  0.4214550000000  0.5366100000000  0.5362470000000 1.0
C      1  0.4213670000000  0.4700110000000  0.5403850000000 1.0
C      1  0.5342160000000  0.4807480000000  0.4049980000000 1.0
C      1  0.5342520000000  0.5088950000000  0.4032490000000 1.0
C      1  0.2828900000000  0.4937470000000  0.6011410000000 1.0
C      1  0.2829260000000  0.5209420000000  0.5994510000000 1.0
C      1  0.5323930000000  0.5611740000000  0.3863930000000 1.0
C      1  0.5322220000000  0.4267900000000  0.3947400000000 1.0
C      1  0.5059510000000  0.4448870000000  0.5444910000000 1.0
C      1  0.5060990000000  0.5618330000000  0.5372170000000 1.0
C      1  0.4836140000000  0.4454500000000  0.5242780000000 1.0
C      1  0.4837570000000  0.5588250000000  0.5172270000000 1.0
C      1  0.4640010000000  0.4379360000000  0.5790740000000 1.0
C      1  0.4641800000000  0.5731140000000  0.5706750000000 1.0
C      1  0.4668180000000  0.4885750000000  0.5336740000000 1.0
C      1  0.4668560000000  0.5172380000000  0.5318930000000 1.0
C      1  0.5270000000000  0.4890150000000  0.5418630000000 1.0
C      1  0.5270370000000  0.5176670000000  0.5400810000000 1.0
C      1  0.4546260000000  0.4634340000000  0.5758310000000 1.0
C      1  0.4547370000000  0.5474350000000  0.5706110000000 1.0
C      1  0.6082020000000  0.4451590000000  0.5506290000000 1.0
C      1  0.6082990000000  0.5619130000000  0.5433940000000 1.0
C      1  0.4683910000000  0.6206200000000  0.4448680000000 1.0
C      1  0.4680750000000  0.3752060000000  0.4601310000000 1.0
C      1  0.4583450000000  0.4818370000000  0.4084960000000 1.0
C      1  0.4583790000000  0.5084400000000  0.4068420000000 1.0
C      1  0.4636750000000  0.5148400000000  0.4843810000000 1.0
C      1  0.4636380000000  0.4850760000000  0.4862320000000 1.0
C      1  0.5909160000000  0.4692340000000  0.4395450000000 1.0
C      1  0.5909880000000  0.5244530000000  0.4361130000000 1.0
C      1  0.5698980000000  0.5656530000000  0.4192410000000 1.0
C      1  0.5697190000000  0.4263150000000  0.4278970000000 1.0
C      1  0.5443110000000  0.3681040000000  0.4356560000000 1.0
C      1  0.5446340000000  0.6244390000000  0.4197290000000 1.0
C      1  0.5601110000000  0.5736460000000  0.4648200000000 1.0
C      1  0.5599020000000  0.4240600000000  0.4741100000000 1.0
C      1  0.5092430000000  0.3976940000000  0.4499360000000 1.0
C      1  0.5094990000000  0.5969310000000  0.4375630000000 1.0
C      1  0.5991060000000  0.5766400000000  0.5215580000000 1.0
C      1  0.5989250000000  0.4279420000000  0.5307380000000 1.0
C      1  0.5226770000000  0.5837830000000  0.5271480000000 1.0
C      1  0.5224750000000  0.4218180000000  0.5372220000000 1.0
C      1  0.6420890000000  0.3667220000000  0.5014830000000 1.0
C      1  0.6286340000000  0.3865620000000  0.5117280000000 1.0
C      1  0.5151570000000  0.4685500000000  0.5572930000000 1.0
C      1  0.5152490000000  0.5399160000000  0.5528530000000 1.0
C      1  0.4830470000000  0.5840770000000  0.5035150000000 1.0
C      1  0.4828410000000  0.4186950000000  0.5138000000000 1.0
C      1  0.6144310000000  0.5424620000000  0.5602840000000 1.0
C      1  0.6143880000000  0.4665210000000  0.5650030000000 1.0
C      1  0.6291470000000  0.6151340000000  0.4985740000000 1.0
C      1  0.6150280000000  0.5966020000000  0.5102510000000 1.0
C      1  0.5555780000000  0.5812330000000  0.4382410000000 1.0
C      1  0.5553580000000  0.4132450000000  0.4486740000000 1.0
C      1  0.5111440000000  0.5132230000000  0.4706970000000 1.0
C      1  0.5111080000000  0.4848660000000  0.4724600000000 1.0
C      1  0.5925010000000  0.4411100000000  0.4369920000000 1.0
C      1  0.5926450000000  0.5520400000000  0.4300980000000 1.0
C      1  0.3783670000000  0.5224560000000  0.6130300000000 1.0
C      1  0.3783290000000  0.4936740000000  0.6148190000000 1.0
C      1  0.5060710000000  0.4034260000000  0.5216010000000 1.0
C      1  0.5063150000000  0.6001380000000  0.5093670000000 1.0
C      1  0.5589900000000  0.5226010000000  0.3998210000000 1.0
C      1  0.5589200000000  0.4666600000000  0.4032950000000 1.0
C      1  0.5365850000000  0.6011460000000  0.4316190000000 1.0
C      1  0.5363170000000  0.3927100000000  0.4445650000000 1.0
C      1  0.4617400000000  0.5455940000000  0.4388140000000 1.0
C      1  0.4616190000000  0.4489200000000  0.4448230000000 1.0
C      1  0.4037550000000  0.4823770000000  0.6198530000000 1.0
C      1  0.4038240000000  0.5342220000000  0.6166310000000 1.0
C      1  0.5120850000000  0.6254610000000  0.5000200000000 1.0
C      1  0.5117800000000  0.3771270000000  0.5154600000000 1.0
C      1  0.4482070000000  0.5339630000000  0.5463540000000 1.0
C      1  0.4481280000000  0.4738180000000  0.5500910000000 1.0
C      1  0.5730850000000  0.4702050000000  0.4867030000000 1.0
C      1  0.5731660000000  0.5293760000000  0.4830270000000 1.0
C      1  0.5501200000000  0.4241320000000  0.5335500000000 1.0
C      1  0.5503160000000  0.5809640000000  0.5237950000000 1.0
C      1  0.4815400000000  0.3982790000000  0.4542220000000 1.0
C      1  0.4817950000000  0.5969560000000  0.4418740000000 1.0
C      1  0.3571000000000  0.4795760000000  0.6021740000000 1.0
C      1  0.3571730000000  0.5349360000000  0.5987350000000 1.0
C      1  0.5859640000000  0.5133200000000  0.4623370000000 1.0
C      1  0.5859230000000  0.4835420000000  0.4641870000000 1.0
C      1  0.5323970000000  0.4779590000000  0.5152440000000 1.0
C      1  0.5324580000000  0.5253240000000  0.5122980000000 1.0
C      1  0.3817940000000  0.4487750000000  0.5680260000000 1.0
C      1  0.3819420000000  0.5612080000000  0.5610400000000 1.0
C      1  0.5806790000000  0.5095640000000  0.4137450000000 1.0
C      1  0.5806430000000  0.4812650000000  0.4155030000000 1.0
C      1  0.4658170000000  0.4562140000000  0.4173270000000 1.0
C      1  0.4659160000000  0.5349420000000  0.4124330000000 1.0
C      1  0.5055610000000  0.5593650000000  0.3855590000000 1.0
C      1  0.5053950000000  0.4285510000000  0.3936860000000 1.0
C      1  0.4286260000000  0.4935250000000  0.6120110000000 1.0
C      1  0.4286630000000  0.5221230000000  0.6102340000000 1.0
C      1  0.3320740000000  0.5218660000000  0.5993100000000 1.0
C      1  0.3320360000000  0.4926830000000  0.6011230000000 1.0
C      1  0.5565670000000  0.5150120000000  0.5008550000000 1.0
C      1  0.5565300000000  0.4867110000000  0.5026150000000 1.0
C      1  0.5185060000000  0.3530160000000  0.5082120000000 1.0
C      1  0.5188650000000  0.6484750000000  0.4898460000000 1.0
C      1  0.3066030000000  0.5343570000000  0.5985810000000 1.0
C      1  0.3065320000000  0.4802650000000  0.6019420000000 1.0
C      1  0.4031860000000  0.4525670000000  0.5526070000000 1.0
C      1  0.4033220000000  0.5554800000000  0.5462130000000 1.0
C      1  0.5732410000000  0.4320190000000  0.5194600000000 1.0
C      1  0.5734210000000  0.5713160000000  0.5108150000000 1.0
C      1  0.6177030000000  0.4918060000000  0.5722020000000 1.0
C      1  0.6177150000000  0.5182570000000  0.5705550000000 1.0
C      1  0.5126540000000  0.5262010000000  0.4464210000000 1.0
C      1  0.5125830000000  0.4689760000000  0.4499800000000 1.0
C      1  0.5706460000000  0.4420930000000  0.4927060000000 1.0
C      1  0.5708070000000  0.5580230000000  0.4855080000000 1.0
C      1  0.4676430000000  0.4225320000000  0.4522300000000 1.0
C      1  0.4678320000000  0.5726810000000  0.4428980000000 1.0
C      1  0.5560910000000  0.5514090000000  0.3984900000000 1.0
C      1  0.5559470000000  0.4379160000000  0.4055380000000 1.0
C      1  0.5166240000000  0.5220630000000  0.4205540000000 1.0
C      1  0.5165600000000  0.4698680000000  0.4238000000000 1.0
C      1  0.4115340000000  0.4889320000000  0.5220940000000 1.0
C      1  0.4115690000000  0.5155950000000  0.5204370000000 1.0
C      1  0.4475380000000  0.4783470000000  0.5984190000000 1.0
C      1  0.4476140000000  0.5354520000000  0.5948700000000 1.0
C      1  0.3639880000000  0.4581080000000  0.5855460000000 1.0
C      1  0.3641150000000  0.5541630000000  0.5795780000000 1.0
C      1  0.6147640000000  0.4067270000000  0.5218710000000 1.0
END
