TITL C-3201372-1405-256 -8.94441302909652e-07 125000 -141.035915385093 0 0 24 (C2) n - 1
REM
REM in /home/nfs/bkarasulu/CARBON/AIRSS/Generating-Clusters/LCBOP/Higher-Symm/SD-CG/FIRE-CG
REM
REM
REM
REM
REM
REM ./C.cell (b20cbc046b6831c77cfcea5457e17084)
REM AIRSS Version 0.9.1 bugfix July 2018 build 013d7b7c2542+ Fri, 06 Jul 2018 19:26:36 +0100
REM compiler GCC version 9.2.1 20190827 (Red Hat 9.2.1-1)
REM options -cpp -mtune=generic -march=x86-64 -g -O0 -fpre-include=/usr/include/finclude/math-vector-fortran.h
REM seed 366402920 -1989184055 -1264992659 -751630139 930594072 -1263910491 1976750910 1531561772 883939761 -1661670568 1927152132 1395647666 -1671638871 1228410052 -960323051 1107089487 -55316749 452978358 1668213085 1972890621 426431404 795214197 -923266559 -1250764228 -1604445649 -238413179 -1275790277 -594430416 -1439490392 -1767341300 1981507945 1214822787 2047552424
REM
CELL 1.54180   50.00000   50.00000   50.00000   90.00000   90.00000   90.00000
LATT -1
SFAC C  
C      1  0.5170210000000  0.4620890000000  0.5425510000000 1.0
C      1  0.4827850000000  0.4553860000000  0.4615390000000 1.0
C      1  0.5167320000000  0.5369720000000  0.4542080000000 1.0
C      1  0.4833910000000  0.5438990000000  0.5364080000000 1.0
C      1  0.4696670000000  0.5197150000000  0.5423950000000 1.0
C      1  0.5307170000000  0.4564270000000  0.5183640000000 1.0
C      1  0.4692910000000  0.4795010000000  0.4555730000000 1.0
C      1  0.5303250000000  0.5433000000000  0.4782590000000 1.0
C      1  0.4999650000000  0.5202610000000  0.4415590000000 1.0
C      1  0.4999930000000  0.5568160000000  0.5196310000000 1.0
C      1  0.5000350000000  0.4783990000000  0.5554380000000 1.0
C      1  0.5000070000000  0.4427510000000  0.4777000000000 1.0
C      1  0.5172280000000  0.4419150000000  0.4981980000000 1.0
C      1  0.4829840000000  0.4994840000000  0.4408120000000 1.0
C      1  0.5165960000000  0.5578450000000  0.4984830000000 1.0
C      1  0.4832630000000  0.4993200000000  0.5566230000000 1.0
C      1  0.4501640000000  0.4887220000000  0.4749620000000 1.0
C      1  0.5497680000000  0.5240810000000  0.4873750000000 1.0
C      1  0.4502270000000  0.5109720000000  0.5230000000000 1.0
C      1  0.5498410000000  0.4760150000000  0.5095650000000 1.0
C      1  0.4596440000000  0.5020350000000  0.4979280000000 1.0
C      1  0.5403560000000  0.5010310000000  0.5006890000000 1.0
C      1  0.4875050000000  0.5052150000000  0.4965320000000 1.0
C      1  0.5124940000000  0.5025430000000  0.5038100000000 1.0
END
