TITL C-3201376-6384-2089 -3.46611376844351e-07 125000 -112.81551718081 0 0 20 (C1) n - 1
REM
REM in /home/nfs/bkarasulu/CARBON/AIRSS/Generating-Clusters/LCBOP/Higher-Symm/SD-CG/FIRE-CG
REM
REM
REM
REM
REM
REM ./C.cell (b20cbc046b6831c77cfcea5457e17084)
REM AIRSS Version 0.9.1 bugfix July 2018 build 013d7b7c2542+ Fri, 06 Jul 2018 19:26:36 +0100
REM compiler GCC version 9.2.1 20190827 (Red Hat 9.2.1-1)
REM options -cpp -mtune=generic -march=x86-64 -g -O0 -fpre-include=/usr/include/finclude/math-vector-fortran.h
REM seed 735874140 728334543 1940663420 1554746869 -322901248 636295831 643760388 -825408930 -1700698152 -720725834 -1758067522 997714502 114297544 1802318237 -1362993919 951283136 -1293647988 1982727299 -259362375 -1384977113 1273542681 1614338982 143858645 -570482281 -180192140 1513689075 1336348529 814138665 -1862328088 534498199 -1545952979 1688348701 1989292846
REM
CELL 1.54180   50.00000   50.00000   50.00000   90.00000   90.00000   90.00000
LATT -1
SFAC C  
C      1  0.5269610000000  0.4855600000000  0.5235990000000 1.0
C      1  0.5104670000000  0.5144440000000  0.4714540000000 1.0
C      1  0.4266760000000  0.5417930000000  0.5458290000000 1.0
C      1  0.5204420000000  0.5136840000000  0.5192780000000 1.0
C      1  0.5418520000000  0.4726290000000  0.5034190000000 1.0
C      1  0.4695500000000  0.5213130000000  0.5205390000000 1.0
C      1  0.5027500000000  0.4693840000000  0.5259480000000 1.0
C      1  0.5109970000000  0.4679330000000  0.4800880000000 1.0
C      1  0.4824150000000  0.5183220000000  0.4737980000000 1.0
C      1  0.4420800000000  0.4652480000000  0.4926530000000 1.0
C      1  0.4654980000000  0.4787770000000  0.4958360000000 1.0
C      1  0.5194250000000  0.4884750000000  0.4623140000000 1.0
C      1  0.5447550000000  0.5451790000000  0.4898300000000 1.0
C      1  0.4475620000000  0.5320360000000  0.5336750000000 1.0
C      1  0.5263170000000  0.5253550000000  0.4933280000000 1.0
C      1  0.5599350000000  0.4774310000000  0.4829650000000 1.0
C      1  0.4960620000000  0.5230550000000  0.5307260000000 1.0
C      1  0.5481710000000  0.4859130000000  0.4594010000000 1.0
C      1  0.4673470000000  0.5074680000000  0.4954400000000 1.0
C      1  0.4907380000000  0.4659980000000  0.4998790000000 1.0
END
