TITL C-3201374-830-668 -4.17565403947073e-06 125000 -270.379803056942 0 0 46 (C1) n - 1
REM
REM in /home/nfs/bkarasulu/CARBON/AIRSS/Generating-Clusters/LCBOP/Higher-Symm/SD-CG/FIRE-CG
REM
REM
REM
REM
REM
REM ./C.cell (b20cbc046b6831c77cfcea5457e17084)
REM AIRSS Version 0.9.1 bugfix July 2018 build 013d7b7c2542+ Fri, 06 Jul 2018 19:26:36 +0100
REM compiler GCC version 9.2.1 20190827 (Red Hat 9.2.1-1)
REM options -cpp -mtune=generic -march=x86-64 -g -O0 -fpre-include=/usr/include/finclude/math-vector-fortran.h
REM seed 927150631 -1325991488 205546227 -63443536 1732391617 -1986882746 -106617178 -284684338 101186524 592605297 1697028409 -1527519967 966812615 -720875804 -357456875 208132644 1404788945 576014686 566592291 1378588539 -1554115817 -1264628867 843687457 -1417581592 73317600 -2003948776 -1902348105 -1695789817 -1130972716 -93472070 -1213702640 922700733 811298536
REM
CELL 1.54180   50.00000   50.00000   50.00000   90.00000   90.00000   90.00000
LATT -1
SFAC C  
C      1  0.4956330000000  0.5154000000000  0.4722660000000 1.0
C      1  0.5321700000000  0.5134170000000  0.5077560000000 1.0
C      1  0.4868930000000  0.5180240000000  0.5149330000000 1.0
C      1  0.5595910000000  0.4902300000000  0.4792660000000 1.0
C      1  0.4836650000000  0.4992580000000  0.5562740000000 1.0
C      1  0.4526630000000  0.4953900000000  0.4700860000000 1.0
C      1  0.5323690000000  0.4540470000000  0.4949660000000 1.0
C      1  0.4843410000000  0.4547480000000  0.5411200000000 1.0
C      1  0.4743940000000  0.4537860000000  0.4606720000000 1.0
C      1  0.4669650000000  0.4697810000000  0.5231610000000 1.0
C      1  0.4928360000000  0.4742000000000  0.4511170000000 1.0
C      1  0.5386960000000  0.4699680000000  0.5194460000000 1.0
C      1  0.5407630000000  0.5376860000000  0.5204580000000 1.0
C      1  0.4843510000000  0.5470640000000  0.5164540000000 1.0
C      1  0.5002640000000  0.5414530000000  0.4615840000000 1.0
C      1  0.5237000000000  0.4282970000000  0.4947150000000 1.0
C      1  0.4847420000000  0.4279060000000  0.5451150000000 1.0
C      1  0.4753620000000  0.4272880000000  0.4546620000000 1.0
C      1  0.5279700000000  0.4788640000000  0.5461610000000 1.0
C      1  0.4490620000000  0.4594000000000  0.5039680000000 1.0
C      1  0.5213850000000  0.4802860000000  0.4494300000000 1.0
C      1  0.4741180000000  0.5542460000000  0.4688080000000 1.0
C      1  0.5505480000000  0.5519380000000  0.4968460000000 1.0
C      1  0.4988240000000  0.5613360000000  0.5356830000000 1.0
C      1  0.4281380000000  0.4433240000000  0.5109580000000 1.0
C      1  0.5278220000000  0.5080170000000  0.4393880000000 1.0
C      1  0.5384750000000  0.5043130000000  0.5563190000000 1.0
C      1  0.4535480000000  0.4668680000000  0.4770190000000 1.0
C      1  0.5395780000000  0.4701820000000  0.4698250000000 1.0
C      1  0.5007750000000  0.4746140000000  0.5550540000000 1.0
C      1  0.5511110000000  0.4929920000000  0.5066240000000 1.0
C      1  0.4722440000000  0.4976550000000  0.5285260000000 1.0
C      1  0.4788010000000  0.4985590000000  0.4586150000000 1.0
C      1  0.5279920000000  0.5362320000000  0.4518830000000 1.0
C      1  0.5327900000000  0.5318390000000  0.5489470000000 1.0
C      1  0.4556120000000  0.5488780000000  0.5166890000000 1.0
C      1  0.5934900000000  0.5170240000000  0.4556260000000 1.0
C      1  0.4524690000000  0.5408890000000  0.5458520000000 1.0
C      1  0.4104390000000  0.5181610000000  0.4779730000000 1.0
C      1  0.5511460000000  0.5385300000000  0.4702710000000 1.0
C      1  0.5068390000000  0.5433540000000  0.5567500000000 1.0
C      1  0.4511730000000  0.5436420000000  0.4870620000000 1.0
C      1  0.5691040000000  0.5150450000000  0.4678760000000 1.0
C      1  0.4813110000000  0.5276470000000  0.5619090000000 1.0
C      1  0.4379190000000  0.5188440000000  0.4783090000000 1.0
C      1  0.5066630000000  0.5106840000000  0.4972760000000 1.0
END
