TITL C-3201373-1215-336 -24.6386752915511 125000 -906.481708198471 0 0 150 (C1) n - 1
REM
REM in /home/nfs/bkarasulu/CARBON/AIRSS/Generating-Clusters/LCBOP/Higher-Symm/SD-CG/FIRE-CG
REM
REM
REM
REM
REM
REM ./C.cell (b20cbc046b6831c77cfcea5457e17084)
REM AIRSS Version 0.9.1 bugfix July 2018 build 013d7b7c2542+ Fri, 06 Jul 2018 19:26:36 +0100
REM compiler GCC version 9.2.1 20190827 (Red Hat 9.2.1-1)
REM options -cpp -mtune=generic -march=x86-64 -g -O0 -fpre-include=/usr/include/finclude/math-vector-fortran.h
REM seed -1892373554 1534954261 -1597442970 -1066423947 321068244 1534521399 -1677533502 -1734837878 -427639298 1273807118 817991597 -1939232358 -1850981868 272849002 748759933 586083525 63660847 -652403324 -2143374960 -1364072764 -2061753271 422612306 -1420576762 83625308 1458043105 432267176 -397542953 -1909430436 -569309395 923490637 840511155 2113451772 -2061992918
REM
CELL 1.54180   50.00000   50.00000   50.00000   90.00000   90.00000   90.00000
LATT -1
SFAC C  
C      1  0.5959490000000  0.4579460000000  0.4871370000000 1.0
C      1  0.5950740000000  0.5200320000000  0.5148870000000 1.0
C      1  0.5676960000000  0.5761630000000  0.4862430000000 1.0
C      1  0.5090300000000  0.6058890000000  0.5143760000000 1.0
C      1  0.4452730000000  0.5893990000000  0.4851660000000 1.0
C      1  0.4023590000000  0.5412460000000  0.5135580000000 1.0
C      1  0.4021760000000  0.4765580000000  0.4858520000000 1.0
C      1  0.4357600000000  0.4268950000000  0.5146520000000 1.0
C      1  0.4912520000000  0.3948250000000  0.4883350000000 1.0
C      1  0.5449910000000  0.4126610000000  0.5135800000000 1.0
C      1  0.4893980000000  0.3955200000000  0.5154470000000 1.0
C      1  0.5575150000000  0.4019640000000  0.4896010000000 1.0
C      1  0.5780480000000  0.4613470000000  0.5091930000000 1.0
C      1  0.5969930000000  0.5190830000000  0.4882720000000 1.0
C      1  0.5669710000000  0.5768860000000  0.5132810000000 1.0
C      1  0.5099730000000  0.6050870000000  0.4870870000000 1.0
C      1  0.4421630000000  0.5915970000000  0.5121650000000 1.0
C      1  0.4032800000000  0.5408600000000  0.4863330000000 1.0
C      1  0.4017000000000  0.4777890000000  0.5128300000000 1.0
C      1  0.4366550000000  0.4255270000000  0.4880700000000 1.0
C      1  0.5857240000000  0.5166900000000  0.4623470000000 1.0
C      1  0.5572210000000  0.5676130000000  0.5386930000000 1.0
C      1  0.5088120000000  0.5910330000000  0.4616690000000 1.0
C      1  0.4479610000000  0.5818670000000  0.5386460000000 1.0
C      1  0.4166770000000  0.5357170000000  0.4612320000000 1.0
C      1  0.4148020000000  0.4822630000000  0.5378240000000 1.0
C      1  0.4462010000000  0.4343870000000  0.4630010000000 1.0
C      1  0.4910290000000  0.4090250000000  0.5408570000000 1.0
C      1  0.5515610000000  0.4110220000000  0.4623190000000 1.0
C      1  0.5758930000000  0.4636400000000  0.5377080000000 1.0
C      1  0.5052890000000  0.5511010000000  0.3856880000000 1.0
C      1  0.4732020000000  0.5446460000000  0.6139810000000 1.0
C      1  0.4523340000000  0.5186890000000  0.3849400000000 1.0
C      1  0.4492980000000  0.4902000000000  0.6151190000000 1.0
C      1  0.4658770000000  0.4587090000000  0.3845420000000 1.0
C      1  0.4949920000000  0.4490460000000  0.6159530000000 1.0
C      1  0.5255470000000  0.4514350000000  0.3895570000000 1.0
C      1  0.5469890000000  0.4787280000000  0.6157660000000 1.0
C      1  0.5509170000000  0.5081010000000  0.3881960000000 1.0
C      1  0.5331550000000  0.5395550000000  0.6155610000000 1.0
C      1  0.4843490000000  0.5233130000000  0.5328240000000 1.0
C      1  0.4704930000000  0.5223200000000  0.4685960000000 1.0
C      1  0.4701690000000  0.4984170000000  0.5386860000000 1.0
C      1  0.4991180000000  0.4663550000000  0.4542250000000 1.0
C      1  0.5086870000000  0.4650620000000  0.5319590000000 1.0
C      1  0.5242690000000  0.4543100000000  0.4578980000000 1.0
C      1  0.5207540000000  0.4895640000000  0.5212240000000 1.0
C      1  0.5162010000000  0.5364270000000  0.4570510000000 1.0
C      1  0.5155520000000  0.5180410000000  0.5338200000000 1.0
C      1  0.4929450000000  0.5409560000000  0.4733280000000 1.0
C      1  0.4316730000000  0.5595330000000  0.5517370000000 1.0
C      1  0.4157170000000  0.5077590000000  0.4487260000000 1.0
C      1  0.4291540000000  0.4593710000000  0.5512160000000 1.0
C      1  0.4702420000000  0.4207960000000  0.4499390000000 1.0
C      1  0.5178500000000  0.4129280000000  0.5548620000000 1.0
C      1  0.5703540000000  0.4373810000000  0.4480990000000 1.0
C      1  0.5795030000000  0.4905540000000  0.5510900000000 1.0
C      1  0.5738770000000  0.5417740000000  0.4488980000000 1.0
C      1  0.5322920000000  0.5799080000000  0.5518130000000 1.0
C      1  0.4813630000000  0.5848320000000  0.4484370000000 1.0
C      1  0.4837230000000  0.4642240000000  0.4775280000000 1.0
C      1  0.5039850000000  0.4429660000000  0.5145460000000 1.0
C      1  0.5371780000000  0.4468550000000  0.4818920000000 1.0
C      1  0.5371100000000  0.4868260000000  0.4990110000000 1.0
C      1  0.5368680000000  0.5240000000000  0.4707430000000 1.0
C      1  0.5323680000000  0.5366600000000  0.5172950000000 1.0
C      1  0.4975230000000  0.5601760000000  0.4932950000000 1.0
C      1  0.4675360000000  0.5436900000000  0.5234930000000 1.0
C      1  0.4484620000000  0.5190570000000  0.4860200000000 1.0
C      1  0.4628950000000  0.4863490000000  0.5146770000000 1.0
C      1  0.5447720000000  0.5536720000000  0.5943820000000 1.0
C      1  0.5071150000000  0.5721340000000  0.4050360000000 1.0
C      1  0.4631760000000  0.5608700000000  0.5932540000000 1.0
C      1  0.4345990000000  0.5273440000000  0.4052680000000 1.0
C      1  0.4313100000000  0.4866390000000  0.5939670000000 1.0
C      1  0.4559120000000  0.4451750000000  0.4068580000000 1.0
C      1  0.4929420000000  0.4292980000000  0.5961880000000 1.0
C      1  0.5377860000000  0.4340420000000  0.4079980000000 1.0
C      1  0.5644840000000  0.4700160000000  0.5953300000000 1.0
C      1  0.5715410000000  0.5134430000000  0.4064210000000 1.0
C      1  0.4918550000000  0.5123620000000  0.5764540000000 1.0
C      1  0.4729860000000  0.5087470000000  0.4432090000000 1.0
C      1  0.4800070000000  0.4880390000000  0.5634240000000 1.0
C      1  0.4940510000000  0.4880770000000  0.4369970000000 1.0
C      1  0.5030160000000  0.4696740000000  0.5594840000000 1.0
C      1  0.5153630000000  0.5026460000000  0.4218930000000 1.0
C      1  0.5263370000000  0.4851390000000  0.5694400000000 1.0
C      1  0.5103270000000  0.5301660000000  0.4304000000000 1.0
C      1  0.5189060000000  0.5129840000000  0.5643800000000 1.0
C      1  0.4815270000000  0.5311090000000  0.4257940000000 1.0
C      1  0.4459640000000  0.5374450000000  0.5067890000000 1.0
C      1  0.4414510000000  0.4947610000000  0.4986230000000 1.0
C      1  0.4838010000000  0.4860410000000  0.4950180000000 1.0
C      1  0.4827070000000  0.4426560000000  0.4959920000000 1.0
C      1  0.5260670000000  0.4308900000000  0.5023450000000 1.0
C      1  0.5532330000000  0.4648260000000  0.4967240000000 1.0
C      1  0.5322060000000  0.4970520000000  0.4737390000000 1.0
C      1  0.5496200000000  0.5303530000000  0.4955820000000 1.0
C      1  0.5210400000000  0.5605280000000  0.5080570000000 1.0
C      1  0.4781310000000  0.5662410000000  0.5115080000000 1.0
C      1  0.4151840000000  0.5095820000000  0.5508850000000 1.0
C      1  0.4317420000000  0.4573220000000  0.4500140000000 1.0
C      1  0.4670230000000  0.4230070000000  0.5527160000000 1.0
C      1  0.5229190000000  0.4076030000000  0.4499370000000 1.0
C      1  0.5619460000000  0.4411080000000  0.5527090000000 1.0
C      1  0.5856080000000  0.4893330000000  0.4490450000000 1.0
C      1  0.5696600000000  0.5428180000000  0.5513200000000 1.0
C      1  0.5344760000000  0.5798430000000  0.4483180000000 1.0
C      1  0.4795740000000  0.5875990000000  0.5523500000000 1.0
C      1  0.4349670000000  0.5566040000000  0.4479720000000 1.0
C      1  0.5593660000000  0.5665750000000  0.4602630000000 1.0
C      1  0.5070050000000  0.5925030000000  0.5401570000000 1.0
C      1  0.4538310000000  0.5772920000000  0.4601750000000 1.0
C      1  0.4150130000000  0.5372910000000  0.5393190000000 1.0
C      1  0.4161590000000  0.4803360000000  0.4610990000000 1.0
C      1  0.4440820000000  0.4365370000000  0.5398220000000 1.0
C      1  0.4947520000000  0.4068630000000  0.4621720000000 1.0
C      1  0.5443110000000  0.4191310000000  0.5419780000000 1.0
C      1  0.5857470000000  0.4609650000000  0.4599700000000 1.0
C      1  0.5810860000000  0.5178630000000  0.5394480000000 1.0
C      1  0.4302120000000  0.4622830000000  0.5796350000000 1.0
C      1  0.4699940000000  0.4252120000000  0.4213970000000 1.0
C      1  0.5151730000000  0.4174300000000  0.5831060000000 1.0
C      1  0.5625940000000  0.4397940000000  0.4206770000000 1.0
C      1  0.5788780000000  0.4889210000000  0.5797250000000 1.0
C      1  0.5730150000000  0.5382090000000  0.4202600000000 1.0
C      1  0.5318900000000  0.5745870000000  0.5801950000000 1.0
C      1  0.4843590000000  0.5818590000000  0.4195700000000 1.0
C      1  0.4388630000000  0.5559540000000  0.5794480000000 1.0
C      1  0.4192040000000  0.5086640000000  0.4201590000000 1.0
C      1  0.4366880000000  0.5522290000000  0.4192940000000 1.0
C      1  0.4194130000000  0.5077680000000  0.5793010000000 1.0
C      1  0.4347210000000  0.4565890000000  0.4216600000000 1.0
C      1  0.4691880000000  0.4260230000000  0.5811090000000 1.0
C      1  0.5233520000000  0.4136350000000  0.4215470000000 1.0
C      1  0.5619240000000  0.4452990000000  0.5813070000000 1.0
C      1  0.5833930000000  0.4919750000000  0.4205900000000 1.0
C      1  0.5664590000000  0.5427910000000  0.5797990000000 1.0
C      1  0.5312470000000  0.5774930000000  0.4195050000000 1.0
C      1  0.4791350000000  0.5800420000000  0.5798090000000 1.0
C      1  0.5022640000000  0.5231710000000  0.3805480000000 1.0
C      1  0.4869200000000  0.5221220000000  0.6238480000000 1.0
C      1  0.4772090000000  0.5076750000000  0.3770030000000 1.0
C      1  0.4754020000000  0.4952150000000  0.6238570000000 1.0
C      1  0.4835320000000  0.4791390000000  0.3773200000000 1.0
C      1  0.4972370000000  0.4758330000000  0.6237340000000 1.0
C      1  0.5118280000000  0.4750350000000  0.3826820000000 1.0
C      1  0.5226460000000  0.4904540000000  0.6237800000000 1.0
C      1  0.5225320000000  0.5018510000000  0.3923060000000 1.0
C      1  0.5160990000000  0.5190650000000  0.6240110000000 1.0
END
