TITL C-3201373-1215-2348 -0.115793075313782 125000 -347.107709042427 0 0 58 (C1) n - 1
REM
REM in /home/nfs/bkarasulu/CARBON/AIRSS/Generating-Clusters/LCBOP/Higher-Symm/SD-CG/FIRE-CG
REM
REM
REM
REM
REM
REM ./C.cell (b20cbc046b6831c77cfcea5457e17084)
REM AIRSS Version 0.9.1 bugfix July 2018 build 013d7b7c2542+ Fri, 06 Jul 2018 19:26:36 +0100
REM compiler GCC version 9.2.1 20190827 (Red Hat 9.2.1-1)
REM options -cpp -mtune=generic -march=x86-64 -g -O0 -fpre-include=/usr/include/finclude/math-vector-fortran.h
REM seed 542080560 -361974796 1417821312 -1457696459 219238135 629324737 1016885302 817915633 -1863810714 -652823147 -1166188240 1831709602 515965377 969782390 599979309 2021697125 -1991385169 918446778 -1491995829 1617652332 -2144503630 -2083397536 -336109944 1235006862 -617475429 633071660 2094435953 -1234807974 -2125392577 -734782892 771643518 422616888 -574399850
REM
CELL 1.54180   50.00000   50.00000   50.00000   90.00000   90.00000   90.00000
LATT -1
SFAC C  
C      1  0.4483070000000  0.4887110000000  0.5402570000000 1.0
C      1  0.5515960000000  0.5157130000000  0.4571660000000 1.0
C      1  0.4556020000000  0.4672630000000  0.4963580000000 1.0
C      1  0.5503270000000  0.5457890000000  0.4954350000000 1.0
C      1  0.4920420000000  0.5307640000000  0.2991240000000 1.0
C      1  0.4978580000000  0.4015990000000  0.6799350000000 1.0
C      1  0.5634650000000  0.5240390000000  0.4820220000000 1.0
C      1  0.4421720000000  0.4885750000000  0.5121400000000 1.0
C      1  0.4727780000000  0.5844470000000  0.5011300000000 1.0
C      1  0.5322930000000  0.4412780000000  0.5246660000000 1.0
C      1  0.4645190000000  0.4934130000000  0.4407250000000 1.0
C      1  0.5245160000000  0.5089210000000  0.5500890000000 1.0
C      1  0.4720630000000  0.4760610000000  0.5506520000000 1.0
C      1  0.5261410000000  0.5251040000000  0.4469140000000 1.0
C      1  0.5327370000000  0.4820040000000  0.5578100000000 1.0
C      1  0.4640030000000  0.5204270000000  0.4375480000000 1.0
C      1  0.5109360000000  0.4393340000000  0.5036920000000 1.0
C      1  0.4996510000000  0.5774490000000  0.4942730000000 1.0
C      1  0.5149060000000  0.5058250000000  0.4280290000000 1.0
C      1  0.4790560000000  0.4845210000000  0.5773980000000 1.0
C      1  0.4937870000000  0.4683210000000  0.5347150000000 1.0
C      1  0.5057000000000  0.5419170000000  0.4585450000000 1.0
C      1  0.5563620000000  0.4878990000000  0.4503230000000 1.0
C      1  0.4400850000000  0.5115990000000  0.5556670000000 1.0
C      1  0.5718460000000  0.5010140000000  0.4975160000000 1.0
C      1  0.4351960000000  0.5158660000000  0.5030590000000 1.0
C      1  0.4938220000000  0.4179490000000  0.6600350000000 1.0
C      1  0.4969960000000  0.5257500000000  0.3242240000000 1.0
C      1  0.5361910000000  0.4695480000000  0.4470960000000 1.0
C      1  0.4572180000000  0.5255510000000  0.5718400000000 1.0
C      1  0.5265140000000  0.4886120000000  0.5062290000000 1.0
C      1  0.4779510000000  0.5324760000000  0.4952630000000 1.0
C      1  0.5542230000000  0.4797010000000  0.5045780000000 1.0
C      1  0.4514390000000  0.5399930000000  0.5015920000000 1.0
C      1  0.5022150000000  0.5478710000000  0.4888770000000 1.0
C      1  0.5025840000000  0.4691710000000  0.5041210000000 1.0
C      1  0.5566670000000  0.4529930000000  0.5143000000000 1.0
C      1  0.4506370000000  0.5683450000000  0.5044660000000 1.0
C      1  0.5494020000000  0.5742680000000  0.4926960000000 1.0
C      1  0.4605670000000  0.4386930000000  0.4995780000000 1.0
C      1  0.5259690000000  0.5888750000000  0.4938690000000 1.0
C      1  0.4853010000000  0.4261240000000  0.5003350000000 1.0
C      1  0.5117190000000  0.5105710000000  0.4008450000000 1.0
C      1  0.4817030000000  0.4677430000000  0.5992710000000 1.0
C      1  0.4847980000000  0.4773210000000  0.4535760000000 1.0
C      1  0.5070590000000  0.5222400000000  0.5680580000000 1.0
C      1  0.4819830000000  0.4775280000000  0.4839200000000 1.0
C      1  0.5249030000000  0.5366450000000  0.5056980000000 1.0
C      1  0.4897190000000  0.4345730000000  0.6398010000000 1.0
C      1  0.5020330000000  0.5206520000000  0.3497430000000 1.0
C      1  0.4856200000000  0.4511910000000  0.6195710000000 1.0
C      1  0.5070510000000  0.5155610000000  0.3752590000000 1.0
C      1  0.4821440000000  0.5132970000000  0.5781120000000 1.0
C      1  0.5104160000000  0.4798030000000  0.4407580000000 1.0
C      1  0.4806220000000  0.5408990000000  0.4440880000000 1.0
C      1  0.5199400000000  0.4588440000000  0.5463460000000 1.0
C      1  0.5236000000000  0.5131700000000  0.5215030000000 1.0
C      1  0.4810470000000  0.5061900000000  0.4891640000000 1.0
END
