TITL C-3201379-3821-74 82356.3029398358 125000 -905.264590382926 0 0 151 (C1) n - 1
REM
REM in /home/nfs/bkarasulu/CARBON/AIRSS/Generating-Clusters/LCBOP/Higher-Symm/SD-CG/FIRE-CG
REM
REM
REM
REM
REM
REM ./C.cell (b20cbc046b6831c77cfcea5457e17084)
REM AIRSS Version 0.9.1 bugfix July 2018 build 013d7b7c2542+ Fri, 06 Jul 2018 19:26:36 +0100
REM compiler GCC version 9.2.1 20190827 (Red Hat 9.2.1-1)
REM options -cpp -mtune=generic -march=x86-64 -g -O0 -fpre-include=/usr/include/finclude/math-vector-fortran.h
REM seed -114870799 -1265107916 -2007783443 -1421344021 -272019280 379185001 -1519643759 1276098127 1249150941 -780566786 -1231651593 -1709072047 -1145243150 -1573849878 2011074439 -1420579218 -1681746896 -1575048778 -1319156179 -13401286 -407953555 1667321072 897666922 -304471362 -1076528775 199221822 1252937718 -303538071 240564438 -681060291 1417108381 435903556 -507289856
REM
CELL 1.54180   50.00000   50.00000   50.00000   90.00000   90.00000   90.00000
LATT -1
SFAC C  
C      1  0.5786150000000  0.5475070000000  0.5214910000000 1.0
C      1  0.5817930000000  0.4531150000000  0.5354480000000 1.0
C      1  0.5977030000000  0.4885330000000  0.4516640000000 1.0
C      1  0.4151270000000  0.4444060000000  0.5291450000000 1.0
C      1  0.4168710000000  0.5471580000000  0.5319350000000 1.0
C      1  0.4138340000000  0.5120340000000  0.4457270000000 1.0
C      1  0.4243220000000  0.4561590000000  0.4224170000000 1.0
C      1  0.4091170000000  0.5970940000000  0.5074320000000 1.0
C      1  0.4091240000000  0.4522000000000  0.5816250000000 1.0
C      1  0.5833650000000  0.5468930000000  0.4190270000000 1.0
C      1  0.5915730000000  0.4046220000000  0.5121140000000 1.0
C      1  0.5892370000000  0.5487880000000  0.5736250000000 1.0
C      1  0.4990400000000  0.4709790000000  0.4976930000000 1.0
C      1  0.4868340000000  0.5156270000000  0.4428470000000 1.0
C      1  0.4951280000000  0.5080080000000  0.5235450000000 1.0
C      1  0.5033040000000  0.5149520000000  0.4973940000000 1.0
C      1  0.5064410000000  0.4922400000000  0.4497710000000 1.0
C      1  0.5010210000000  0.4787400000000  0.5275160000000 1.0
C      1  0.4625310000000  0.4180950000000  0.5820020000000 1.0
C      1  0.4417530000000  0.4967010000000  0.3868760000000 1.0
C      1  0.4607400000000  0.6086550000000  0.5396120000000 1.0
C      1  0.5373500000000  0.5797280000000  0.5740970000000 1.0
C      1  0.5442850000000  0.5231560000000  0.3948690000000 1.0
C      1  0.5389390000000  0.3912920000000  0.5427030000000 1.0
C      1  0.4647100000000  0.5107700000000  0.4232320000000 1.0
C      1  0.4705190000000  0.5643660000000  0.5281750000000 1.0
C      1  0.4696460000000  0.4427720000000  0.5429650000000 1.0
C      1  0.5571450000000  0.4935530000000  0.4253830000000 1.0
C      1  0.5266200000000  0.4362200000000  0.5328630000000 1.0
C      1  0.5210340000000  0.5541970000000  0.5371130000000 1.0
C      1  0.5257520000000  0.5378900000000  0.4651000000000 1.0
C      1  0.5366990000000  0.5081100000000  0.5355660000000 1.0
C      1  0.5224170000000  0.4543070000000  0.4921190000000 1.0
C      1  0.4680780000000  0.4679090000000  0.4643420000000 1.0
C      1  0.4585150000000  0.4865170000000  0.5360190000000 1.0
C      1  0.4707530000000  0.5394050000000  0.4883400000000 1.0
C      1  0.4945500000000  0.5996580000000  0.4649660000000 1.0
C      1  0.4945730000000  0.4875280000000  0.5959580000000 1.0
C      1  0.5008780000000  0.4166080000000  0.4422040000000 1.0
C      1  0.5112340000000  0.4020870000000  0.4638640000000 1.0
C      1  0.5061650000000  0.5113220000000  0.5978950000000 1.0
C      1  0.4995700000000  0.5880060000000  0.4398660000000 1.0
C      1  0.5595720000000  0.5561250000000  0.5705010000000 1.0
C      1  0.5619630000000  0.4039340000000  0.5212730000000 1.0
C      1  0.5550930000000  0.5474270000000  0.4102420000000 1.0
C      1  0.4382540000000  0.4422180000000  0.5781690000000 1.0
C      1  0.4381880000000  0.5965660000000  0.5177400000000 1.0
C      1  0.4312370000000  0.4813430000000  0.4104160000000 1.0
C      1  0.4049120000000  0.4935450000000  0.5490040000000 1.0
C      1  0.4075690000000  0.4585600000000  0.4695260000000 1.0
C      1  0.4014920000000  0.5537530000000  0.4802150000000 1.0
C      1  0.5942110000000  0.5037460000000  0.5472290000000 1.0
C      1  0.5990550000000  0.5445280000000  0.4675270000000 1.0
C      1  0.5993240000000  0.4482310000000  0.4859570000000 1.0
C      1  0.5501370000000  0.4041160000000  0.4914090000000 1.0
C      1  0.5451730000000  0.5702550000000  0.4283440000000 1.0
C      1  0.5481640000000  0.5291200000000  0.5834680000000 1.0
C      1  0.4520340000000  0.5950280000000  0.4882010000000 1.0
C      1  0.4516190000000  0.4059690000000  0.4418420000000 1.0
C      1  0.4518490000000  0.4706650000000  0.5863890000000 1.0
C      1  0.5922640000000  0.5198550000000  0.5719730000000 1.0
C      1  0.5937990000000  0.4197520000000  0.4868240000000 1.0
C      1  0.5874510000000  0.5585450000000  0.4453140000000 1.0
C      1  0.4077430000000  0.4810050000000  0.5759860000000 1.0
C      1  0.4070860000000  0.5824750000000  0.4821600000000 1.0
C      1  0.4204320000000  0.4433480000000  0.4482870000000 1.0
C      1  0.4784040000000  0.4745350000000  0.5775950000000 1.0
C      1  0.4764120000000  0.4075630000000  0.4320650000000 1.0
C      1  0.4794210000000  0.5887880000000  0.4861000000000 1.0
C      1  0.5208020000000  0.5253720000000  0.5789630000000 1.0
C      1  0.5240170000000  0.5886930000000  0.4260780000000 1.0
C      1  0.5227620000000  0.4066720000000  0.4888620000000 1.0
C      1  0.4662270000000  0.5692090000000  0.5753560000000 1.0
C      1  0.4688270000000  0.3977300000000  0.5313930000000 1.0
C      1  0.4545400000000  0.5484260000000  0.4013760000000 1.0
C      1  0.5349150000000  0.4298640000000  0.5797500000000 1.0
C      1  0.5290850000000  0.5997010000000  0.5257960000000 1.0
C      1  0.5372120000000  0.4641070000000  0.4004050000000 1.0
C      1  0.5675930000000  0.4175900000000  0.4713250000000 1.0
C      1  0.5622930000000  0.5732270000000  0.4529650000000 1.0
C      1  0.5683080000000  0.5068290000000  0.5855210000000 1.0
C      1  0.4334040000000  0.5846470000000  0.4675990000000 1.0
C      1  0.4348410000000  0.4201400000000  0.4590860000000 1.0
C      1  0.4330660000000  0.4942600000000  0.5859040000000 1.0
C      1  0.4582660000000  0.5202270000000  0.3960610000000 1.0
C      1  0.4803340000000  0.5842100000000  0.5505630000000 1.0
C      1  0.4817440000000  0.4163520000000  0.5544370000000 1.0
C      1  0.5449690000000  0.4931140000000  0.3996080000000 1.0
C      1  0.5181600000000  0.4163500000000  0.5549780000000 1.0
C      1  0.5155030000000  0.5828160000000  0.5499700000000 1.0
C      1  0.5673200000000  0.4780050000000  0.5024880000000 1.0
C      1  0.5688740000000  0.5140140000000  0.4749270000000 1.0
C      1  0.5688060000000  0.5066410000000  0.5028070000000 1.0
C      1  0.4289120000000  0.5220730000000  0.4984450000000 1.0
C      1  0.4277940000000  0.4968530000000  0.4848730000000 1.0
C      1  0.4267540000000  0.4795980000000  0.5066900000000 1.0
C      1  0.4579870000000  0.5408180000000  0.5736100000000 1.0
C      1  0.4601390000000  0.4109640000000  0.5052510000000 1.0
C      1  0.4581790000000  0.5604510000000  0.4279550000000 1.0
C      1  0.5462210000000  0.4577110000000  0.5810410000000 1.0
C      1  0.5355540000000  0.5827890000000  0.5014030000000 1.0
C      1  0.5378740000000  0.4483010000000  0.4278880000000 1.0
C      1  0.5894280000000  0.4616560000000  0.5087980000000 1.0
C      1  0.5956440000000  0.5153400000000  0.4651790000000 1.0
C      1  0.5879100000000  0.5188940000000  0.5230420000000 1.0
C      1  0.4083740000000  0.5399630000000  0.5046130000000 1.0
C      1  0.4076820000000  0.4892830000000  0.4649660000000 1.0
C      1  0.4088370000000  0.4736300000000  0.5277300000000 1.0
C      1  0.5429500000000  0.4668340000000  0.5043060000000 1.0
C      1  0.5462260000000  0.5191130000000  0.4595040000000 1.0
C      1  0.5441450000000  0.5185480000000  0.5127530000000 1.0
C      1  0.4542070000000  0.5275920000000  0.5089980000000 1.0
C      1  0.4541160000000  0.4940300000000  0.4695600000000 1.0
C      1  0.4527330000000  0.4712320000000  0.5120680000000 1.0
C      1  0.4690580000000  0.5190140000000  0.4676210000000 1.0
C      1  0.4678600000000  0.5142680000000  0.5318320000000 1.0
C      1  0.4729550000000  0.4579500000000  0.4931060000000 1.0
C      1  0.5364490000000  0.4975900000000  0.4443710000000 1.0
C      1  0.5272530000000  0.4745680000000  0.5369380000000 1.0
C      1  0.5243280000000  0.5342620000000  0.4951210000000 1.0
C      1  0.4924810000000  0.4653120000000  0.4457770000000 1.0
C      1  0.4857450000000  0.5635130000000  0.5009770000000 1.0
C      1  0.4805900000000  0.4699270000000  0.5477800000000 1.0
C      1  0.5025830000000  0.5409860000000  0.4457020000000 1.0
C      1  0.5128310000000  0.4290680000000  0.5054850000000 1.0
C      1  0.5120610000000  0.5290200000000  0.5508040000000 1.0
C      1  0.5814070000000  0.5590410000000  0.4945890000000 1.0
C      1  0.5850410000000  0.4751870000000  0.5544380000000 1.0
C      1  0.5901140000000  0.4608630000000  0.4606220000000 1.0
C      1  0.4154170000000  0.4372660000000  0.4988820000000 1.0
C      1  0.4155900000000  0.5235410000000  0.5512260000000 1.0
C      1  0.4142870000000  0.5414020000000  0.4545200000000 1.0
C      1  0.4401060000000  0.5664490000000  0.5284190000000 1.0
C      1  0.4391090000000  0.4407340000000  0.5462610000000 1.0
C      1  0.4370100000000  0.5015720000000  0.4312550000000 1.0
C      1  0.5594910000000  0.4334220000000  0.5329060000000 1.0
C      1  0.5568690000000  0.5537790000000  0.5391890000000 1.0
C      1  0.5848660000000  0.4911940000000  0.4263340000000 1.0
C      1  0.5643760000000  0.4419250000000  0.4504660000000 1.0
C      1  0.5586450000000  0.5757430000000  0.4830480000000 1.0
C      1  0.5689770000000  0.4765450000000  0.5797820000000 1.0
C      1  0.4360670000000  0.5626740000000  0.4473850000000 1.0
C      1  0.4355760000000  0.4181620000000  0.4888500000000 1.0
C      1  0.4347010000000  0.5228610000000  0.5754440000000 1.0
C      1  0.4815740000000  0.4297890000000  0.4997470000000 1.0
C      1  0.4862010000000  0.5632490000000  0.4366480000000 1.0
C      1  0.4759000000000  0.5288380000000  0.5564200000000 1.0
C      1  0.5155620000000  0.5592710000000  0.5069540000000 1.0
C      1  0.5100790000000  0.4433560000000  0.4378640000000 1.0
C      1  0.5274750000000  0.4721940000000  0.5653930000000 1.0
C      1  0.5042400000000  0.4936430000000  0.4802150000000 1.0
END
