TITL C-3201373-1215-55 -4.68637897589458e-07 125000 -55.2240178121821 0 0 13 (C3v) n - 1
REM
REM in /home/nfs/bkarasulu/CARBON/AIRSS/Generating-Clusters/LCBOP/Higher-Symm/SD-CG/FIRE-CG
REM
REM
REM
REM
REM
REM ./C.cell (b20cbc046b6831c77cfcea5457e17084)
REM AIRSS Version 0.9.1 bugfix July 2018 build 013d7b7c2542+ Fri, 06 Jul 2018 19:26:36 +0100
REM compiler GCC version 9.2.1 20190827 (Red Hat 9.2.1-1)
REM options -cpp -mtune=generic -march=x86-64 -g -O0 -fpre-include=/usr/include/finclude/math-vector-fortran.h
REM seed 345426760 161344770 -666502790 -1924670414 1692517432 1203019596 -1982530643 -176261000 -1656629908 1176331943 -1729769592 1079586757 896009567 -1925824635 -716022947 -7442495 564983943 -1404149038 -937292521 -1230309229 926049645 -1055529472 -1132212990 789400252 1021094739 30886727 -439787407 -562041395 -1318530911 -1802904997 1255647824 1945242512 -1221047859
REM
CELL 1.54180   50.00000   50.00000   50.00000   90.00000   90.00000   90.00000
LATT -1
SFAC C  
C      1  0.4961930000000  0.4381180000000  0.5208230000000 1.0
C      1  0.4554730000000  0.5077820000000  0.5355080000000 1.0
C      1  0.4555240000000  0.4754180000000  0.4601460000000 1.0
C      1  0.5395400000000  0.4745900000000  0.4587580000000 1.0
C      1  0.5394860000000  0.5082610000000  0.5371620000000 1.0
C      1  0.4735060000000  0.4824600000000  0.4766040000000 1.0
C      1  0.5216440000000  0.4827800000000  0.4757870000000 1.0
C      1  0.5216130000000  0.5015420000000  0.5194760000000 1.0
C      1  0.4964340000000  0.4614310000000  0.5108110000000 1.0
C      1  0.4734770000000  0.5007050000000  0.5190900000000 1.0
C      1  0.4980370000000  0.5231650000000  0.4843010000000 1.0
C      1  0.4971760000000  0.5470660000000  0.4740360000000 1.0
C      1  0.4994080000000  0.4932710000000  0.4971400000000 1.0
END
