TITL C-3201373-1215-1370 -0.0879542564664847 125000 -175.195307783458 0 0 30 (Ci) n - 1
REM
REM in /home/nfs/bkarasulu/CARBON/AIRSS/Generating-Clusters/LCBOP/Higher-Symm/SD-CG/FIRE-CG
REM
REM
REM
REM
REM
REM ./C.cell (b20cbc046b6831c77cfcea5457e17084)
REM AIRSS Version 0.9.1 bugfix July 2018 build 013d7b7c2542+ Fri, 06 Jul 2018 19:26:36 +0100
REM compiler GCC version 9.2.1 20190827 (Red Hat 9.2.1-1)
REM options -cpp -mtune=generic -march=x86-64 -g -O0 -fpre-include=/usr/include/finclude/math-vector-fortran.h
REM seed -1449212558 -915607350 1622252382 -994580474 -1182425078 -1973535837 537799837 306415602 -2035612348 482476053 1512995925 2040534216 1093281128 -1861569258 1837801936 1799289412 906006718 -1699849580 -1570499574 807908579 -1831244762 492708256 -987642132 -1360317342 -154733767 -1124384893 1577217903 -1680824981 49086859 -539322149 1842685293 384803486 -148489469
REM
CELL 1.54180   50.00000   50.00000   50.00000   90.00000   90.00000   90.00000
LATT -1
SFAC C  
C      1  0.4834960000000  0.4916320000000  0.4599560000000 1.0
C      1  0.5165040000000  0.5083680000000  0.5400440000000 1.0
C      1  0.4693890000000  0.5287900000000  0.4893660000000 1.0
C      1  0.5306110000000  0.4712100000000  0.5106340000000 1.0
C      1  0.4675530000000  0.4826180000000  0.5050330000000 1.0
C      1  0.5324470000000  0.5173820000000  0.4949670000000 1.0
C      1  0.5297820000000  0.5038090000000  0.4699630000000 1.0
C      1  0.4702180000000  0.4961910000000  0.5300370000000 1.0
C      1  0.4603240000000  0.3839530000000  0.5170770000000 1.0
C      1  0.5396760000000  0.6160470000000  0.4829230000000 1.0
C      1  0.4376160000000  0.5672420000000  0.4681100000000 1.0
C      1  0.5623840000000  0.4327580000000  0.5318900000000 1.0
C      1  0.5321850000000  0.4991060000000  0.5177840000000 1.0
C      1  0.4678150000000  0.5008940000000  0.4822160000000 1.0
C      1  0.4526880000000  0.5482630000000  0.4788070000000 1.0
C      1  0.5473120000000  0.4517370000000  0.5211930000000 1.0
C      1  0.5098750000000  0.4656150000000  0.4913890000000 1.0
C      1  0.4901250000000  0.5343850000000  0.5086110000000 1.0
C      1  0.5770980000000  0.4140290000000  0.5424890000000 1.0
C      1  0.4229020000000  0.5859710000000  0.4575110000000 1.0
C      1  0.5255040000000  0.5094340000000  0.5656970000000 1.0
C      1  0.4744960000000  0.4905660000000  0.4343030000000 1.0
C      1  0.4902040000000  0.5165400000000  0.5317630000000 1.0
C      1  0.5097960000000  0.4834600000000  0.4682370000000 1.0
C      1  0.4749560000000  0.4332740000000  0.5063070000000 1.0
C      1  0.5250440000000  0.5667260000000  0.4936930000000 1.0
C      1  0.5163560000000  0.5409100000000  0.4987870000000 1.0
C      1  0.4836440000000  0.4590900000000  0.5012130000000 1.0
C      1  0.5324820000000  0.5915740000000  0.4883020000000 1.0
C      1  0.4675180000000  0.4084260000000  0.5116980000000 1.0
END
