TITL C-3201376-6384-2247 2.88209461715624 125000 -417.8400512791 0 0 71 (C1) n - 1
REM
REM in /home/nfs/bkarasulu/CARBON/AIRSS/Generating-Clusters/LCBOP/Higher-Symm/SD-CG/FIRE-CG
REM
REM
REM
REM
REM
REM ./C.cell (b20cbc046b6831c77cfcea5457e17084)
REM AIRSS Version 0.9.1 bugfix July 2018 build 013d7b7c2542+ Fri, 06 Jul 2018 19:26:36 +0100
REM compiler GCC version 9.2.1 20190827 (Red Hat 9.2.1-1)
REM options -cpp -mtune=generic -march=x86-64 -g -O0 -fpre-include=/usr/include/finclude/math-vector-fortran.h
REM seed -682831264 508386179 1428255983 -1573652066 823369440 -54952952 1903118639 -512345242 1970080572 -2028587290 32565100 -1500878497 543958067 -408098220 609413954 379916184 1690505664 1692030265 -73828126 -1529005040 2041289364 51187930 1093344659 1401314353 244158222 -1913685635 1340030738 -45986700 287916855 1640626308 -349624498 -601307837 1692037044
REM
CELL 1.54180   50.00000   50.00000   50.00000   90.00000   90.00000   90.00000
LATT -1
SFAC C  
C      1  0.3698680000000  0.4167960000000  0.5790960000000 1.0
C      1  0.5235590000000  0.5207770000000  0.4112370000000 1.0
C      1  0.4314500000000  0.4583610000000  0.5695040000000 1.0
C      1  0.5382500000000  0.5771690000000  0.4300210000000 1.0
C      1  0.3939650000000  0.4263700000000  0.5680050000000 1.0
C      1  0.5721020000000  0.4743260000000  0.4800100000000 1.0
C      1  0.4075140000000  0.4486830000000  0.5802110000000 1.0
C      1  0.5064750000000  0.5424220000000  0.3992100000000 1.0
C      1  0.4217300000000  0.4100380000000  0.5253100000000 1.0
C      1  0.5691050000000  0.5878090000000  0.4845680000000 1.0
C      1  0.5515020000000  0.5291510000000  0.4199960000000 1.0
C      1  0.4566370000000  0.5513380000000  0.6674810000000 1.0
C      1  0.5378850000000  0.5108720000000  0.5260000000000 1.0
C      1  0.5907360000000  0.5156130000000  0.4438950000000 1.0
C      1  0.4751160000000  0.5246490000000  0.5949070000000 1.0
C      1  0.4505370000000  0.5600500000000  0.6912830000000 1.0
C      1  0.5011120000000  0.4701290000000  0.4601320000000 1.0
C      1  0.4846870000000  0.5032180000000  0.5437310000000 1.0
C      1  0.5480410000000  0.6002020000000  0.4728130000000 1.0
C      1  0.4628390000000  0.5424800000000  0.6432810000000 1.0
C      1  0.6059980000000  0.5081390000000  0.5222280000000 1.0
C      1  0.4772460000000  0.4739510000000  0.5443620000000 1.0
C      1  0.6049950000000  0.4426740000000  0.4782340000000 1.0
C      1  0.4803590000000  0.5541910000000  0.4923280000000 1.0
C      1  0.5798680000000  0.5617910000000  0.4461030000000 1.0
C      1  0.5257550000000  0.4985600000000  0.3914450000000 1.0
C      1  0.5850990000000  0.5190150000000  0.4709150000000 1.0
C      1  0.4658120000000  0.4265090000000  0.5035300000000 1.0
C      1  0.4937550000000  0.4547910000000  0.5313160000000 1.0
C      1  0.4962530000000  0.4863390000000  0.4379160000000 1.0
C      1  0.4572380000000  0.5441010000000  0.4111110000000 1.0
C      1  0.4433290000000  0.4142850000000  0.5105000000000 1.0
C      1  0.5710860000000  0.4628030000000  0.4526540000000 1.0
C      1  0.4805420000000  0.5151120000000  0.5708140000000 1.0
C      1  0.4804440000000  0.5487990000000  0.3986380000000 1.0
C      1  0.5909150000000  0.4416870000000  0.4542910000000 1.0
C      1  0.4540010000000  0.4660000000000  0.5578730000000 1.0
C      1  0.5160480000000  0.4447920000000  0.5436380000000 1.0
C      1  0.4861410000000  0.4455840000000  0.5055190000000 1.0
C      1  0.5695440000000  0.5074490000000  0.4269490000000 1.0
C      1  0.4676980000000  0.5180280000000  0.5235950000000 1.0
C      1  0.5136950000000  0.5063570000000  0.5360240000000 1.0
C      1  0.5280670000000  0.5379330000000  0.4721850000000 1.0
C      1  0.4607880000000  0.4708220000000  0.4002980000000 1.0
C      1  0.4976380000000  0.4566190000000  0.4826380000000 1.0
C      1  0.4784020000000  0.4777700000000  0.4182040000000 1.0
C      1  0.3964580000000  0.4608050000000  0.6031740000000 1.0
C      1  0.4499090000000  0.5060330000000  0.5050390000000 1.0
C      1  0.4808510000000  0.5398600000000  0.4679140000000 1.0
C      1  0.5573930000000  0.5561380000000  0.4290740000000 1.0
C      1  0.5637710000000  0.4796680000000  0.4309780000000 1.0
C      1  0.3529730000000  0.4216970000000  0.5994570000000 1.0
C      1  0.4047630000000  0.4143350000000  0.5452330000000 1.0
C      1  0.5057990000000  0.5305050000000  0.4581650000000 1.0
C      1  0.4690380000000  0.5336220000000  0.6190870000000 1.0
C      1  0.5606420000000  0.5133070000000  0.5104680000000 1.0
C      1  0.4443910000000  0.5110060000000  0.4790160000000 1.0
C      1  0.5081470000000  0.5121490000000  0.4363860000000 1.0
C      1  0.5864440000000  0.5281380000000  0.5148950000000 1.0
C      1  0.5283350000000  0.4810300000000  0.3723490000000 1.0
C      1  0.6075880000000  0.4821200000000  0.5137730000000 1.0
C      1  0.5835850000000  0.5656490000000  0.4746400000000 1.0
C      1  0.5957720000000  0.4642440000000  0.4951480000000 1.0
C      1  0.4560890000000  0.5279430000000  0.4596600000000 1.0
C      1  0.4752100000000  0.5446250000000  0.5170190000000 1.0
C      1  0.3550370000000  0.4408640000000  0.6184090000000 1.0
C      1  0.5663350000000  0.5012930000000  0.4845410000000 1.0
C      1  0.5349920000000  0.5957270000000  0.4495270000000 1.0
C      1  0.5901670000000  0.5416770000000  0.4884330000000 1.0
C      1  0.3753200000000  0.4586890000000  0.6196880000000 1.0
C      1  0.4471660000000  0.5343200000000  0.4339260000000 1.0
END
