TITL C-3201374-830-31 3.71907211951874 125000 -280.082877362299 0 0 48 (C1) n - 1
REM
REM in /home/nfs/bkarasulu/CARBON/AIRSS/Generating-Clusters/LCBOP/Higher-Symm/SD-CG/FIRE-CG
REM
REM
REM
REM
REM
REM ./C.cell (b20cbc046b6831c77cfcea5457e17084)
REM AIRSS Version 0.9.1 bugfix July 2018 build 013d7b7c2542+ Fri, 06 Jul 2018 19:26:36 +0100
REM compiler GCC version 9.2.1 20190827 (Red Hat 9.2.1-1)
REM options -cpp -mtune=generic -march=x86-64 -g -O0 -fpre-include=/usr/include/finclude/math-vector-fortran.h
REM seed -1543839594 1955617285 -1313451890 1490415161 -1699087466 -1826239875 -93616508 1240054950 -1086552054 325578423 -493660263 882352152 499498974 -397448884 923959314 737150663 -1511809497 492754275 -1230278583 -2119846475 -1502105929 2144447184 552557923 -1847431134 1318819998 476442623 1692319277 985194288 1664645879 -319049470 1858470394 -2144499288 1350149491
REM
CELL 1.54180   50.00000   50.00000   50.00000   90.00000   90.00000   90.00000
LATT -1
SFAC C  
C      1  0.5728050000000  0.5330910000000  0.4227730000000 1.0
C      1  0.4768580000000  0.3764480000000  0.5356910000000 1.0
C      1  0.4441310000000  0.5677410000000  0.5030180000000 1.0
C      1  0.4773190000000  0.3987300000000  0.5189860000000 1.0
C      1  0.4909650000000  0.5256700000000  0.5774590000000 1.0
C      1  0.5445480000000  0.4660440000000  0.4902620000000 1.0
C      1  0.4967450000000  0.4186850000000  0.5218290000000 1.0
C      1  0.5873120000000  0.4656730000000  0.5231630000000 1.0
C      1  0.4759250000000  0.6019730000000  0.4266450000000 1.0
C      1  0.5158240000000  0.5661860000000  0.4223110000000 1.0
C      1  0.4507800000000  0.5477850000000  0.5191220000000 1.0
C      1  0.5102690000000  0.5413850000000  0.4343280000000 1.0
C      1  0.5387070000000  0.5045770000000  0.4504750000000 1.0
C      1  0.5120050000000  0.5110650000000  0.5888370000000 1.0
C      1  0.4443630000000  0.6017220000000  0.4628450000000 1.0
C      1  0.4608480000000  0.5258920000000  0.5332470000000 1.0
C      1  0.4965570000000  0.5862510000000  0.4212590000000 1.0
C      1  0.5407700000000  0.4864960000000  0.4716260000000 1.0
C      1  0.5466630000000  0.5333580000000  0.6583620000000 1.0
C      1  0.5087180000000  0.4431090000000  0.5152840000000 1.0
C      1  0.5417840000000  0.5699300000000  0.4121870000000 1.0
C      1  0.5023220000000  0.4662020000000  0.5304330000000 1.0
C      1  0.4734040000000  0.5297350000000  0.5579560000000 1.0
C      1  0.4588250000000  0.4996750000000  0.5222370000000 1.0
C      1  0.4583930000000  0.4021120000000  0.4986370000000 1.0
C      1  0.5578410000000  0.5405510000000  0.6807890000000 1.0
C      1  0.5618030000000  0.5135480000000  0.4372820000000 1.0
C      1  0.4484200000000  0.4359640000000  0.4608350000000 1.0
C      1  0.5203610000000  0.4883070000000  0.5747770000000 1.0
C      1  0.5239400000000  0.5187370000000  0.6127740000000 1.0
C      1  0.5352970000000  0.5260450000000  0.6355610000000 1.0
C      1  0.4416420000000  0.5861660000000  0.4841260000000 1.0
C      1  0.4720870000000  0.4791800000000  0.4432360000000 1.0
C      1  0.4409220000000  0.6349360000000  0.4282120000000 1.0
C      1  0.5182460000000  0.4109850000000  0.4511720000000 1.0
C      1  0.4910490000000  0.4976320000000  0.4418260000000 1.0
C      1  0.5165640000000  0.4726480000000  0.5536280000000 1.0
C      1  0.4485550000000  0.4158420000000  0.4781450000000 1.0
C      1  0.5225170000000  0.4270670000000  0.4712280000000 1.0
C      1  0.5253520000000  0.4451900000000  0.4923210000000 1.0
C      1  0.4810870000000  0.4826970000000  0.5226200000000 1.0
C      1  0.4570600000000  0.4581370000000  0.4491080000000 1.0
C      1  0.5649540000000  0.5564730000000  0.4123160000000 1.0
C      1  0.4535230000000  0.6132460000000  0.4390490000000 1.0
C      1  0.5131980000000  0.5146720000000  0.4424000000000 1.0
C      1  0.4351250000000  0.4909720000000  0.5116430000000 1.0
C      1  0.5671580000000  0.4658630000000  0.5066430000000 1.0
C      1  0.4764640000000  0.3556090000000  0.5513380000000 1.0
END
