TITL C-3201379-3821-1391 -2.27387921236908e-07 125000 -358.721639352612 0 0 58 (C1) n - 1
REM
REM in /home/nfs/bkarasulu/CARBON/AIRSS/Generating-Clusters/LCBOP/Higher-Symm/SD-CG/FIRE-CG
REM
REM
REM
REM
REM
REM ./C.cell (b20cbc046b6831c77cfcea5457e17084)
REM AIRSS Version 0.9.1 bugfix July 2018 build 013d7b7c2542+ Fri, 06 Jul 2018 19:26:36 +0100
REM compiler GCC version 9.2.1 20190827 (Red Hat 9.2.1-1)
REM options -cpp -mtune=generic -march=x86-64 -g -O0 -fpre-include=/usr/include/finclude/math-vector-fortran.h
REM seed -1451706492 -1540831916 456326847 560477584 -339351371 -917829026 692352796 -776485492 401189328 -857333261 -36434896 -90552988 -124038313 -366436697 1727212281 -1485888800 -944194589 2008665528 570781853 -1811970532 -1565700440 -1729764643 2128430358 1670998029 -2078088653 276828997 451446577 -2058863373 1511220351 788796327 -552131978 1968968802 -197865678
REM
CELL 1.54180   50.00000   50.00000   50.00000   90.00000   90.00000   90.00000
LATT -1
SFAC C  
C      1  0.5330040000000  0.4466550000000  0.4619190000000 1.0
C      1  0.5255820000000  0.5459750000000  0.5472340000000 1.0
C      1  0.4671000000000  0.4540590000000  0.5476640000000 1.0
C      1  0.4673580000000  0.5554800000000  0.4573870000000 1.0
C      1  0.5085110000000  0.4343000000000  0.5307880000000 1.0
C      1  0.5126070000000  0.5646220000000  0.4784120000000 1.0
C      1  0.4845890000000  0.4335590000000  0.4764590000000 1.0
C      1  0.4820930000000  0.5582030000000  0.5280380000000 1.0
C      1  0.4357390000000  0.5180750000000  0.5047090000000 1.0
C      1  0.4339370000000  0.4914720000000  0.5008580000000 1.0
C      1  0.5691280000000  0.5279880000000  0.4953960000000 1.0
C      1  0.5744790000000  0.5014340000000  0.4925220000000 1.0
C      1  0.5074470000000  0.5437940000000  0.4346160000000 1.0
C      1  0.5115190000000  0.4722480000000  0.5598680000000 1.0
C      1  0.4844600000000  0.5228360000000  0.5627370000000 1.0
C      1  0.4943010000000  0.4493370000000  0.4320300000000 1.0
C      1  0.4811270000000  0.5356700000000  0.4414040000000 1.0
C      1  0.4827780000000  0.4740660000000  0.5623940000000 1.0
C      1  0.5126050000000  0.5221800000000  0.5571220000000 1.0
C      1  0.5183190000000  0.4612450000000  0.4408760000000 1.0
C      1  0.5531650000000  0.4914040000000  0.4317500000000 1.0
C      1  0.5548640000000  0.4984220000000  0.5545900000000 1.0
C      1  0.4419010000000  0.4978420000000  0.5703680000000 1.0
C      1  0.4439810000000  0.5055880000000  0.4441670000000 1.0
C      1  0.4413330000000  0.4623290000000  0.5379810000000 1.0
C      1  0.4406590000000  0.5472890000000  0.4666810000000 1.0
C      1  0.5602820000000  0.4588130000000  0.4654430000000 1.0
C      1  0.5533030000000  0.5433860000000  0.5385960000000 1.0
C      1  0.5088880000000  0.4736690000000  0.5066770000000 1.0
C      1  0.5270770000000  0.5101870000000  0.4906590000000 1.0
C      1  0.4846290000000  0.4782500000000  0.4910580000000 1.0
C      1  0.5159120000000  0.5023440000000  0.4651780000000 1.0
C      1  0.4719360000000  0.5086620000000  0.4482370000000 1.0
C      1  0.4702640000000  0.4991190000000  0.5689320000000 1.0
C      1  0.5257460000000  0.4962890000000  0.5473550000000 1.0
C      1  0.5266330000000  0.4892110000000  0.4417990000000 1.0
C      1  0.4781350000000  0.4350960000000  0.4487300000000 1.0
C      1  0.4717590000000  0.5452970000000  0.5510290000000 1.0
C      1  0.5202250000000  0.4455970000000  0.5541800000000 1.0
C      1  0.5223370000000  0.5581710000000  0.4524430000000 1.0
C      1  0.4835550000000  0.5651460000000  0.4799290000000 1.0
C      1  0.4802800000000  0.4378550000000  0.5289130000000 1.0
C      1  0.5106910000000  0.5602090000000  0.5269890000000 1.0
C      1  0.5145930000000  0.4351360000000  0.4814830000000 1.0
C      1  0.4277220000000  0.4800310000000  0.5553990000000 1.0
C      1  0.4281870000000  0.5266700000000  0.4515950000000 1.0
C      1  0.5696420000000  0.4713020000000  0.4408180000000 1.0
C      1  0.5676560000000  0.5222620000000  0.5507700000000 1.0
C      1  0.5690460000000  0.4751940000000  0.4873980000000 1.0
C      1  0.5535320000000  0.5475390000000  0.5093170000000 1.0
C      1  0.4424560000000  0.4656200000000  0.5089500000000 1.0
C      1  0.4443060000000  0.5433550000000  0.4955930000000 1.0
C      1  0.5272610000000  0.5606650000000  0.5025420000000 1.0
C      1  0.5181240000000  0.4466270000000  0.5071920000000 1.0
C      1  0.4682170000000  0.5579390000000  0.5036990000000 1.0
C      1  0.4685600000000  0.4524970000000  0.4969860000000 1.0
C      1  0.4875860000000  0.4957070000000  0.4683150000000 1.0
C      1  0.5228790000000  0.4960820000000  0.5158270000000 1.0
END
