TITL C-3201373-1215-108 -30.9101445578462 125000 -711.020473413607 0 0 116 (C1) n - 1
REM
REM in /home/nfs/bkarasulu/CARBON/AIRSS/Generating-Clusters/LCBOP/Higher-Symm/SD-CG/FIRE-CG
REM
REM
REM
REM
REM
REM ./C.cell (b20cbc046b6831c77cfcea5457e17084)
REM AIRSS Version 0.9.1 bugfix July 2018 build 013d7b7c2542+ Fri, 06 Jul 2018 19:26:36 +0100
REM compiler GCC version 9.2.1 20190827 (Red Hat 9.2.1-1)
REM options -cpp -mtune=generic -march=x86-64 -g -O0 -fpre-include=/usr/include/finclude/math-vector-fortran.h
REM seed 1383496130 -317822696 89191881 -1499659662 304023508 -1278815848 1382125810 48217035 -1272929491 1788234813 1736558377 993270224 -2049583188 947057510 -1978574142 2068762410 -646784659 -1671541061 -972779442 549004844 -355683970 -1093659069 705790282 1342549165 -1729192251 2060328314 -585031428 964596033 494141590 -1207951193 -1480882092 1982579965 469674232
REM
CELL 1.54180   50.00000   50.00000   50.00000   90.00000   90.00000   90.00000
LATT -1
SFAC C  
C      1  0.5053110000000  0.5056670000000  0.5757780000000 1.0
C      1  0.5235360000000  0.5443800000000  0.4987720000000 1.0
C      1  0.5193270000000  0.4961890000000  0.3964530000000 1.0
C      1  0.4930320000000  0.4518750000000  0.5746770000000 1.0
C      1  0.5209130000000  0.4515770000000  0.5842650000000 1.0
C      1  0.5066340000000  0.4519580000000  0.4818280000000 1.0
C      1  0.4676760000000  0.4531650000000  0.4273300000000 1.0
C      1  0.4668600000000  0.4016260000000  0.4970250000000 1.0
C      1  0.5519290000000  0.5144910000000  0.5722530000000 1.0
C      1  0.5993850000000  0.4498960000000  0.5030370000000 1.0
C      1  0.4809880000000  0.5262000000000  0.5120800000000 1.0
C      1  0.4360550000000  0.5284790000000  0.5158760000000 1.0
C      1  0.5449060000000  0.5419650000000  0.5777910000000 1.0
C      1  0.5231290000000  0.5455120000000  0.4700130000000 1.0
C      1  0.5661910000000  0.5029840000000  0.5483970000000 1.0
C      1  0.5496170000000  0.4777750000000  0.4779960000000 1.0
C      1  0.4903720000000  0.4029460000000  0.4815510000000 1.0
C      1  0.4364860000000  0.5253900000000  0.4866040000000 1.0
C      1  0.4325930000000  0.4786820000000  0.4536790000000 1.0
C      1  0.4907760000000  0.4137040000000  0.5389410000000 1.0
C      1  0.6150150000000  0.5267920000000  0.4800130000000 1.0
C      1  0.6124420000000  0.5001830000000  0.4900220000000 1.0
C      1  0.4971430000000  0.5575730000000  0.5654340000000 1.0
C      1  0.4885330000000  0.6030240000000  0.5106580000000 1.0
C      1  0.4284980000000  0.4672200000000  0.5258840000000 1.0
C      1  0.4940640000000  0.4594450000000  0.5279470000000 1.0
C      1  0.5162880000000  0.4025780000000  0.5322190000000 1.0
C      1  0.4805730000000  0.5761880000000  0.4995010000000 1.0
C      1  0.5326310000000  0.5182830000000  0.4041050000000 1.0
C      1  0.4179160000000  0.5036760000000  0.4498190000000 1.0
C      1  0.4712470000000  0.4715450000000  0.5798490000000 1.0
C      1  0.4670100000000  0.6065090000000  0.5307690000000 1.0
C      1  0.5538730000000  0.4451310000000  0.4265070000000 1.0
C      1  0.5391520000000  0.5991620000000  0.4710080000000 1.0
C      1  0.5322050000000  0.4798040000000  0.4543840000000 1.0
C      1  0.5421350000000  0.5363660000000  0.4514420000000 1.0
C      1  0.5413110000000  0.4031040000000  0.5218570000000 1.0
C      1  0.5178410000000  0.4742880000000  0.5292940000000 1.0
C      1  0.4305070000000  0.5382350000000  0.5430610000000 1.0
C      1  0.5362100000000  0.4563970000000  0.4934830000000 1.0
C      1  0.4582710000000  0.5115600000000  0.5216170000000 1.0
C      1  0.4666140000000  0.5164630000000  0.4679050000000 1.0
C      1  0.5731590000000  0.4752050000000  0.5515260000000 1.0
C      1  0.4908980000000  0.4404310000000  0.5485370000000 1.0
C      1  0.5844110000000  0.5905020000000  0.5053290000000 1.0
C      1  0.4911730000000  0.4575190000000  0.4117970000000 1.0
C      1  0.4589370000000  0.4754740000000  0.4425130000000 1.0
C      1  0.4504800000000  0.4849210000000  0.5185050000000 1.0
C      1  0.4661830000000  0.4075730000000  0.5256860000000 1.0
C      1  0.4272810000000  0.4905120000000  0.5701140000000 1.0
C      1  0.5306830000000  0.4738140000000  0.5989850000000 1.0
C      1  0.4984010000000  0.5060700000000  0.5025680000000 1.0
C      1  0.4375120000000  0.5489160000000  0.4320540000000 1.0
C      1  0.4193560000000  0.4527530000000  0.5009380000000 1.0
C      1  0.4371570000000  0.4484750000000  0.5474350000000 1.0
C      1  0.4358650000000  0.5741440000000  0.4777030000000 1.0
C      1  0.4440760000000  0.4665140000000  0.5695570000000 1.0
C      1  0.4429240000000  0.4121300000000  0.4842400000000 1.0
C      1  0.5556930000000  0.4534940000000  0.5454770000000 1.0
C      1  0.4692780000000  0.5505560000000  0.5682530000000 1.0
C      1  0.4939740000000  0.5818360000000  0.4505350000000 1.0
C      1  0.4783270000000  0.4903350000000  0.4581420000000 1.0
C      1  0.5624770000000  0.5110600000000  0.5196350000000 1.0
C      1  0.4347360000000  0.5175430000000  0.5651280000000 1.0
C      1  0.4126150000000  0.5162920000000  0.4749920000000 1.0
C      1  0.5040150000000  0.4769970000000  0.4629140000000 1.0
C      1  0.5436060000000  0.5302320000000  0.4253940000000 1.0
C      1  0.4347440000000  0.4658950000000  0.4798740000000 1.0
C      1  0.5218570000000  0.5878480000000  0.5370360000000 1.0
C      1  0.4959970000000  0.5530310000000  0.5123830000000 1.0
C      1  0.5414880000000  0.4408810000000  0.5670590000000 1.0
C      1  0.5204150000000  0.5537590000000  0.5817400000000 1.0
C      1  0.4845080000000  0.4574880000000  0.5013250000000 1.0
C      1  0.4523390000000  0.4106210000000  0.4101800000000 1.0
C      1  0.4476730000000  0.5619330000000  0.5498700000000 1.0
C      1  0.5636180000000  0.3969660000000  0.4791630000000 1.0
C      1  0.4511120000000  0.5751470000000  0.5016070000000 1.0
C      1  0.5167320000000  0.6057180000000  0.5153080000000 1.0
C      1  0.5157410000000  0.4715940000000  0.4097530000000 1.0
C      1  0.4989610000000  0.5543570000000  0.4575880000000 1.0
C      1  0.6385150000000  0.5328690000000  0.4669890000000 1.0
C      1  0.5362760000000  0.4665590000000  0.4293240000000 1.0
C      1  0.5390280000000  0.6095170000000  0.4981260000000 1.0
C      1  0.5650620000000  0.6091360000000  0.5102800000000 1.0
C      1  0.4548590000000  0.4276680000000  0.4315850000000 1.0
C      1  0.5635770000000  0.4086650000000  0.5048100000000 1.0
C      1  0.4609520000000  0.5234570000000  0.5772780000000 1.0
C      1  0.4272900000000  0.4252190000000  0.5051050000000 1.0
C      1  0.5050660000000  0.5649520000000  0.5392680000000 1.0
C      1  0.5838640000000  0.4284880000000  0.5085950000000 1.0
C      1  0.4415160000000  0.4231330000000  0.5321610000000 1.0
C      1  0.5041760000000  0.4240980000000  0.4719410000000 1.0
C      1  0.4419410000000  0.5728970000000  0.4496480000000 1.0
C      1  0.5075140000000  0.5140160000000  0.5494460000000 1.0
C      1  0.5651150000000  0.4952080000000  0.4947820000000 1.0
C      1  0.5375550000000  0.5246240000000  0.5151240000000 1.0
C      1  0.3872560000000  0.5187850000000  0.4858910000000 1.0
C      1  0.5623760000000  0.4211410000000  0.4342070000000 1.0
C      1  0.5957470000000  0.5477440000000  0.4820900000000 1.0
C      1  0.5620220000000  0.5824390000000  0.4651550000000 1.0
C      1  0.4199780000000  0.5260980000000  0.4312920000000 1.0
C      1  0.4483600000000  0.5834440000000  0.5305110000000 1.0
C      1  0.5645630000000  0.4025580000000  0.4531300000000 1.0
C      1  0.4666900000000  0.5874450000000  0.4436990000000 1.0
C      1  0.4444280000000  0.4192040000000  0.4568140000000 1.0
C      1  0.3640620000000  0.5206300000000  0.4976230000000 1.0
C      1  0.5156990000000  0.5991010000000  0.4553090000000 1.0
C      1  0.5824010000000  0.5727030000000  0.4830530000000 1.0
C      1  0.5309500000000  0.4987560000000  0.5862440000000 1.0
C      1  0.5177700000000  0.5032110000000  0.5243620000000 1.0
C      1  0.6094190000000  0.4741070000000  0.4964860000000 1.0
C      1  0.4604710000000  0.4706450000000  0.4950870000000 1.0
C      1  0.4784000000000  0.5002920000000  0.5828030000000 1.0
C      1  0.4789430000000  0.5360110000000  0.4508250000000 1.0
C      1  0.5400100000000  0.4583090000000  0.5220900000000 1.0
C      1  0.4645490000000  0.5403490000000  0.4268980000000 1.0
END
