TITL C-3201379-3821-1451 167954.059888469 125000 -592.208534565216 0 0 98 (C1) n - 1
REM
REM in /home/nfs/bkarasulu/CARBON/AIRSS/Generating-Clusters/LCBOP/Higher-Symm/SD-CG/FIRE-CG
REM
REM
REM
REM
REM
REM ./C.cell (b20cbc046b6831c77cfcea5457e17084)
REM AIRSS Version 0.9.1 bugfix July 2018 build 013d7b7c2542+ Fri, 06 Jul 2018 19:26:36 +0100
REM compiler GCC version 9.2.1 20190827 (Red Hat 9.2.1-1)
REM options -cpp -mtune=generic -march=x86-64 -g -O0 -fpre-include=/usr/include/finclude/math-vector-fortran.h
REM seed 57300895 -1564714193 -48237865 621047382 -2126635485 542480099 1315968682 -798098308 -1353817153 76012720 792529524 1259574971 624441837 854949320 -1692306157 1501161431 1048470375 1329289685 1066196463 -1497415337 628055032 930049494 -1724862598 1979877139 -1659365150 1261368864 1681418500 -993017080 -1540193952 455258510 148706319 -634642359 -1529012663
REM
CELL 1.54180   50.00000   50.00000   50.00000   90.00000   90.00000   90.00000
LATT -1
SFAC C  
C      1  0.4674610000000  0.4723590000000  0.4100930000000 1.0
C      1  0.5931520000000  0.4631360000000  0.5134980000000 1.0
C      1  0.4477770000000  0.4622750000000  0.5725450000000 1.0
C      1  0.4700870000000  0.5258910000000  0.4098180000000 1.0
C      1  0.5923100000000  0.5359940000000  0.5140950000000 1.0
C      1  0.4489410000000  0.5337300000000  0.5716800000000 1.0
C      1  0.4674540000000  0.4707780000000  0.5911560000000 1.0
C      1  0.5926120000000  0.4631490000000  0.4846240000000 1.0
C      1  0.4479790000000  0.4640490000000  0.4288390000000 1.0
C      1  0.4693380000000  0.5265010000000  0.5899570000000 1.0
C      1  0.5914020000000  0.5359650000000  0.4844360000000 1.0
C      1  0.4501980000000  0.5343440000000  0.4280050000000 1.0
C      1  0.5504160000000  0.5150540000000  0.4664530000000 1.0
C      1  0.5032490000000  0.5256380000000  0.5574150000000 1.0
C      1  0.4506590000000  0.5236410000000  0.4734200000000 1.0
C      1  0.5389760000000  0.4872670000000  0.4683520000000 1.0
C      1  0.5005420000000  0.4695410000000  0.5579220000000 1.0
C      1  0.4438440000000  0.4746480000000  0.4743600000000 1.0
C      1  0.5522810000000  0.5151670000000  0.5339370000000 1.0
C      1  0.5029140000000  0.5271170000000  0.4435620000000 1.0
C      1  0.4448280000000  0.5162740000000  0.5241150000000 1.0
C      1  0.5407720000000  0.4875010000000  0.5318370000000 1.0
C      1  0.5003690000000  0.4691790000000  0.4431540000000 1.0
C      1  0.4407630000000  0.4814400000000  0.5277580000000 1.0
C      1  0.4367150000000  0.5119860000000  0.5597020000000 1.0
C      1  0.4914420000000  0.5122600000000  0.4225750000000 1.0
C      1  0.5818100000000  0.5133300000000  0.5273550000000 1.0
C      1  0.4359170000000  0.4834590000000  0.5578920000000 1.0
C      1  0.4902450000000  0.4842230000000  0.4220400000000 1.0
C      1  0.5940650000000  0.4878900000000  0.5268120000000 1.0
C      1  0.4445030000000  0.5136990000000  0.4476670000000 1.0
C      1  0.4909420000000  0.5120020000000  0.5788200000000 1.0
C      1  0.5803010000000  0.5131430000000  0.4720900000000 1.0
C      1  0.4415280000000  0.4847530000000  0.4480930000000 1.0
C      1  0.4900570000000  0.4836190000000  0.5798960000000 1.0
C      1  0.5928960000000  0.4879520000000  0.4714980000000 1.0
C      1  0.5542360000000  0.5649430000000  0.5230460000000 1.0
C      1  0.4664660000000  0.5596690000000  0.5304200000000 1.0
C      1  0.4935360000000  0.5668290000000  0.4702460000000 1.0
C      1  0.5623070000000  0.4223100000000  0.5138960000000 1.0
C      1  0.4649860000000  0.4378730000000  0.5308880000000 1.0
C      1  0.4912650000000  0.4325700000000  0.4726570000000 1.0
C      1  0.5526690000000  0.5651790000000  0.4769870000000 1.0
C      1  0.4632000000000  0.5694430000000  0.4624540000000 1.0
C      1  0.4942950000000  0.5728390000000  0.5276790000000 1.0
C      1  0.5617020000000  0.4222990000000  0.4849790000000 1.0
C      1  0.4604920000000  0.4295410000000  0.4640050000000 1.0
C      1  0.4929820000000  0.4255470000000  0.5265800000000 1.0
C      1  0.5343480000000  0.5334570000000  0.5150180000000 1.0
C      1  0.4725720000000  0.5297050000000  0.5184880000000 1.0
C      1  0.5003270000000  0.5348630000000  0.4737780000000 1.0
C      1  0.5176790000000  0.4825670000000  0.5150090000000 1.0
C      1  0.4675620000000  0.4681960000000  0.5193920000000 1.0
C      1  0.4936770000000  0.4654410000000  0.4736010000000 1.0
C      1  0.5332810000000  0.5353430000000  0.4857760000000 1.0
C      1  0.4758200000000  0.5249040000000  0.4879040000000 1.0
C      1  0.5014260000000  0.5256200000000  0.5295360000000 1.0
C      1  0.5181360000000  0.4789460000000  0.4868380000000 1.0
C      1  0.4689080000000  0.4731090000000  0.4884630000000 1.0
C      1  0.4939940000000  0.4771210000000  0.5308950000000 1.0
C      1  0.4503070000000  0.4362840000000  0.4375590000000 1.0
C      1  0.5817610000000  0.4392960000000  0.4735720000000 1.0
C      1  0.4481500000000  0.4133590000000  0.5711770000000 1.0
C      1  0.4523850000000  0.5622660000000  0.4363060000000 1.0
C      1  0.5793240000000  0.5610240000000  0.4795250000000 1.0
C      1  0.4449670000000  0.5822460000000  0.5693760000000 1.0
C      1  0.4531510000000  0.4374000000000  0.5589870000000 1.0
C      1  0.5827790000000  0.4391780000000  0.5247210000000 1.0
C      1  0.4430960000000  0.4160730000000  0.4204230000000 1.0
C      1  0.4529130000000  0.5586630000000  0.5577480000000 1.0
C      1  0.5805600000000  0.5610180000000  0.5194790000000 1.0
C      1  0.4443320000000  0.5821670000000  0.4191810000000 1.0
C      1  0.4401970000000  0.4310410000000  0.4859400000000 1.0
C      1  0.5394380000000  0.4148730000000  0.4692700000000 1.0
C      1  0.5175360000000  0.4275020000000  0.5416430000000 1.0
C      1  0.4437580000000  0.5671970000000  0.4845570000000 1.0
C      1  0.5387640000000  0.5833790000000  0.4614840000000 1.0
C      1  0.5156590000000  0.5710820000000  0.5477730000000 1.0
C      1  0.4473540000000  0.4218290000000  0.5117730000000 1.0
C      1  0.5405020000000  0.4153300000000  0.5302270000000 1.0
C      1  0.5174630000000  0.4272750000000  0.4561980000000 1.0
C      1  0.4499540000000  0.5760560000000  0.5106550000000 1.0
C      1  0.5394830000000  0.5824790000000  0.5378830000000 1.0
C      1  0.5159910000000  0.5722570000000  0.4489400000000 1.0
C      1  0.4311040000000  0.5411490000000  0.4853110000000 1.0
C      1  0.5474630000000  0.5310910000000  0.4395690000000 1.0
C      1  0.5222440000000  0.5464350000000  0.5628710000000 1.0
C      1  0.4257000000000  0.4566160000000  0.4871790000000 1.0
C      1  0.5451220000000  0.4680170000000  0.4479490000000 1.0
C      1  0.5222940000000  0.4509850000000  0.5575370000000 1.0
C      1  0.4228700000000  0.5294720000000  0.5096920000000 1.0
C      1  0.5477990000000  0.5315760000000  0.5603500000000 1.0
C      1  0.5231910000000  0.5466610000000  0.4353690000000 1.0
C      1  0.4185300000000  0.4683830000000  0.5122890000000 1.0
C      1  0.5453480000000  0.4670090000000  0.5512530000000 1.0
C      1  0.5234190000000  0.4510580000000  0.4404610000000 1.0
C      1  0.4960110000000  0.4191570000000  0.4989990000000 1.0
C      1  0.4991790000000  0.5781970000000  0.4990560000000 1.0
END
