TITL C-3201378-2706-319 0.0265137514837798 125000 -660.607983326091 0 0 110 (C1) n - 1
REM
REM in /home/nfs/bkarasulu/CARBON/AIRSS/Generating-Clusters/LCBOP/Higher-Symm/SD-CG/FIRE-CG
REM
REM
REM
REM
REM
REM ./C.cell (b20cbc046b6831c77cfcea5457e17084)
REM AIRSS Version 0.9.1 bugfix July 2018 build 013d7b7c2542+ Fri, 06 Jul 2018 19:26:36 +0100
REM compiler GCC version 9.2.1 20190827 (Red Hat 9.2.1-1)
REM options -cpp -mtune=generic -march=x86-64 -g -O0 -fpre-include=/usr/include/finclude/math-vector-fortran.h
REM seed 1723181766 570696562 5603393 -1984123239 -281217084 -832748795 -1219323678 1290561957 -380545298 -1992998948 2072810137 1087882591 -1590720582 2045570254 1348289467 -690443886 -90708513 1682942961 -669192810 1198767075 -530508728 439803195 -1023113200 -985222757 -2101658327 1960385576 1310166686 -1764365307 -1478666254 -1236242750 1880939696 -5725624 -2105928306
REM
CELL 1.54180   50.00000   50.00000   50.00000   90.00000   90.00000   90.00000
LATT -1
SFAC C  
C      1  0.4752590000000  0.4407650000000  0.4094980000000 1.0
C      1  0.5216010000000  0.5559000000000  0.4244000000000 1.0
C      1  0.5030110000000  0.4622570000000  0.4398260000000 1.0
C      1  0.5114230000000  0.5266910000000  0.4605990000000 1.0
C      1  0.4146020000000  0.5511060000000  0.4701740000000 1.0
C      1  0.5950660000000  0.4384300000000  0.4652380000000 1.0
C      1  0.5367860000000  0.4001820000000  0.4399530000000 1.0
C      1  0.4645430000000  0.5992090000000  0.4478280000000 1.0
C      1  0.5149900000000  0.5297800000000  0.4326810000000 1.0
C      1  0.4907670000000  0.4640610000000  0.4143710000000 1.0
C      1  0.5465370000000  0.4317850000000  0.5089710000000 1.0
C      1  0.4508980000000  0.5530050000000  0.5051720000000 1.0
C      1  0.5111080000000  0.4021110000000  0.4473450000000 1.0
C      1  0.4897060000000  0.5989730000000  0.4569640000000 1.0
C      1  0.4304150000000  0.4359500000000  0.4943770000000 1.0
C      1  0.5674330000000  0.5495590000000  0.4964540000000 1.0
C      1  0.5243570000000  0.4718270000000  0.5236460000000 1.0
C      1  0.4917220000000  0.5315990000000  0.5324920000000 1.0
C      1  0.6045850000000  0.4570000000000  0.5587480000000 1.0
C      1  0.4029950000000  0.5210710000000  0.5614680000000 1.0
C      1  0.5772070000000  0.5450020000000  0.5427680000000 1.0
C      1  0.4183080000000  0.4613840000000  0.5321150000000 1.0
C      1  0.4815980000000  0.5051980000000  0.5372840000000 1.0
C      1  0.5386350000000  0.4958240000000  0.5308030000000 1.0
C      1  0.5141440000000  0.5867970000000  0.4629680000000 1.0
C      1  0.4870780000000  0.4155790000000  0.4518230000000 1.0
C      1  0.5411840000000  0.4437630000000  0.4839780000000 1.0
C      1  0.4698850000000  0.5439310000000  0.4813110000000 1.0
C      1  0.4358820000000  0.4587320000000  0.5524160000000 1.0
C      1  0.5645060000000  0.5433400000000  0.5664530000000 1.0
C      1  0.4577190000000  0.5417860000000  0.4548800000000 1.0
C      1  0.5503290000000  0.4527340000000  0.4589200000000 1.0
C      1  0.4543740000000  0.4960770000000  0.4623040000000 1.0
C      1  0.5583360000000  0.4987380000000  0.4663560000000 1.0
C      1  0.4790760000000  0.4359260000000  0.4755110000000 1.0
C      1  0.5266610000000  0.5786060000000  0.4886410000000 1.0
C      1  0.5132820000000  0.5715300000000  0.5126880000000 1.0
C      1  0.4894480000000  0.4387900000000  0.5032250000000 1.0
C      1  0.4418740000000  0.5851070000000  0.4442770000000 1.0
C      1  0.5612150000000  0.4115170000000  0.4386620000000 1.0
C      1  0.4909140000000  0.4608910000000  0.4634210000000 1.0
C      1  0.4956520000000  0.5330360000000  0.4811910000000 1.0
C      1  0.5194660000000  0.4626660000000  0.5961620000000 1.0
C      1  0.4858000000000  0.5360280000000  0.5987710000000 1.0
C      1  0.4467090000000  0.5836210000000  0.5034480000000 1.0
C      1  0.5596430000000  0.4080290000000  0.5114680000000 1.0
C      1  0.4606240000000  0.4988220000000  0.5190610000000 1.0
C      1  0.5638930000000  0.5045180000000  0.5187720000000 1.0
C      1  0.5849960000000  0.5067230000000  0.4596770000000 1.0
C      1  0.4277800000000  0.4856270000000  0.4615710000000 1.0
C      1  0.5060980000000  0.4262790000000  0.5665560000000 1.0
C      1  0.4839620000000  0.5770470000000  0.5759010000000 1.0
C      1  0.6028340000000  0.4524670000000  0.4870810000000 1.0
C      1  0.4229430000000  0.5388270000000  0.4946880000000 1.0
C      1  0.4350700000000  0.5588390000000  0.4517440000000 1.0
C      1  0.5713630000000  0.4352910000000  0.4499450000000 1.0
C      1  0.5421530000000  0.4565960000000  0.5778160000000 1.0
C      1  0.4628730000000  0.5368960000000  0.5799220000000 1.0
C      1  0.5008840000000  0.4406330000000  0.5912250000000 1.0
C      1  0.4959720000000  0.5632000000000  0.5968320000000 1.0
C      1  0.5413310000000  0.4911970000000  0.4228670000000 1.0
C      1  0.4641040000000  0.5044250000000  0.4172070000000 1.0
C      1  0.5711860000000  0.5324140000000  0.5180850000000 1.0
C      1  0.4186290000000  0.4607190000000  0.5035680000000 1.0
C      1  0.6035620000000  0.4995120000000  0.4797110000000 1.0
C      1  0.4160190000000  0.4855390000000  0.4876620000000 1.0
C      1  0.4616700000000  0.4041000000000  0.5529040000000 1.0
C      1  0.4687360000000  0.6273080000000  0.5120000000000 1.0
C      1  0.4593120000000  0.4676800000000  0.5624680000000 1.0
C      1  0.5472640000000  0.5236620000000  0.5728560000000 1.0
C      1  0.4928760000000  0.4177970000000  0.5211870000000 1.0
C      1  0.4896950000000  0.5836280000000  0.5207680000000 1.0
C      1  0.4304930000000  0.4145030000000  0.5132370000000 1.0
C      1  0.4699990000000  0.6796800000000  0.5077250000000 1.0
C      1  0.5156700000000  0.5451820000000  0.5242180000000 1.0
C      1  0.4999750000000  0.4646230000000  0.5107680000000 1.0
C      1  0.5536630000000  0.5688750000000  0.4821660000000 1.0
C      1  0.4483590000000  0.4343350000000  0.4728070000000 1.0
C      1  0.4702430000000  0.4937630000000  0.5621120000000 1.0
C      1  0.5442430000000  0.4993630000000  0.5593760000000 1.0
C      1  0.5597300000000  0.4762060000000  0.5668610000000 1.0
C      1  0.4508110000000  0.5136960000000  0.5703460000000 1.0
C      1  0.4340280000000  0.5068500000000  0.5259030000000 1.0
C      1  0.5845090000000  0.4842080000000  0.5226110000000 1.0
C      1  0.6001080000000  0.4781870000000  0.4988670000000 1.0
C      1  0.4186190000000  0.5111820000000  0.5025540000000 1.0
C      1  0.5108860000000  0.4880120000000  0.6053550000000 1.0
C      1  0.4990510000000  0.5122760000000  0.6063730000000 1.0
C      1  0.5159360000000  0.5054020000000  0.4177310000000 1.0
C      1  0.4899990000000  0.4927800000000  0.4101190000000 1.0
C      1  0.5834830000000  0.4720300000000  0.5495930000000 1.0
C      1  0.4279620000000  0.5142260000000  0.5529550000000 1.0
C      1  0.5568680000000  0.5728270000000  0.4538940000000 1.0
C      1  0.4429540000000  0.4270880000000  0.4453910000000 1.0
C      1  0.4406060000000  0.4041010000000  0.5359040000000 1.0
C      1  0.4693190000000  0.6537180000000  0.5099980000000 1.0
C      1  0.5664810000000  0.5027480000000  0.4140950000000 1.0
C      1  0.4384880000000  0.4906930000000  0.4131520000000 1.0
C      1  0.5868220000000  0.5101100000000  0.4312900000000 1.0
C      1  0.4213590000000  0.4827810000000  0.4335830000000 1.0
C      1  0.4617490000000  0.5162890000000  0.4435300000000 1.0
C      1  0.5459180000000  0.4792510000000  0.4495530000000 1.0
C      1  0.5319080000000  0.4377340000000  0.5577010000000 1.0
C      1  0.4655950000000  0.5598380000000  0.5611030000000 1.0
C      1  0.4671700000000  0.4225840000000  0.4301860000000 1.0
C      1  0.5312180000000  0.5764980000000  0.4410650000000 1.0
C      1  0.4696620000000  0.5530470000000  0.5317880000000 1.0
C      1  0.5367650000000  0.4462700000000  0.5311150000000 1.0
C      1  0.4879120000000  0.4137950000000  0.5487050000000 1.0
C      1  0.4688830000000  0.5996110000000  0.5121460000000 1.0
END
