TITL C-3201376-6384-619 -0.140661462042682 125000 -535.599983813632 0 0 90 (C1) n - 1
REM
REM in /home/nfs/bkarasulu/CARBON/AIRSS/Generating-Clusters/LCBOP/Higher-Symm/SD-CG/FIRE-CG
REM
REM
REM
REM
REM
REM ./C.cell (b20cbc046b6831c77cfcea5457e17084)
REM AIRSS Version 0.9.1 bugfix July 2018 build 013d7b7c2542+ Fri, 06 Jul 2018 19:26:36 +0100
REM compiler GCC version 9.2.1 20190827 (Red Hat 9.2.1-1)
REM options -cpp -mtune=generic -march=x86-64 -g -O0 -fpre-include=/usr/include/finclude/math-vector-fortran.h
REM seed -2103857074 -1579484507 -2093314119 -980069627 24839000 -1288652775 588118215 157038396 -154131842 -1609797750 764811493 1702691559 -1521648366 1831947240 -507877031 -1003253289 236204283 513101183 771315838 -1750119160 414879132 1609167922 -999510304 454920069 1299347509 -1969860344 786259651 -840805970 150573106 -115418143 -605610662 -607846667 1889366965
REM
CELL 1.54180   50.00000   50.00000   50.00000   90.00000   90.00000   90.00000
LATT -1
SFAC C  
C      1  0.5806160000000  0.5586980000000  0.4585930000000 1.0
C      1  0.4074150000000  0.4326560000000  0.5311220000000 1.0
C      1  0.5840280000000  0.5158830000000  0.5648310000000 1.0
C      1  0.4414840000000  0.4834070000000  0.4926650000000 1.0
C      1  0.5641170000000  0.4630220000000  0.5792920000000 1.0
C      1  0.4312850000000  0.5223470000000  0.4351560000000 1.0
C      1  0.4632180000000  0.4764870000000  0.5424240000000 1.0
C      1  0.5210140000000  0.5251190000000  0.4666280000000 1.0
C      1  0.5323860000000  0.5463280000000  0.4510790000000 1.0
C      1  0.4513630000000  0.4529830000000  0.5372310000000 1.0
C      1  0.4386880000000  0.5208830000000  0.4622290000000 1.0
C      1  0.5679960000000  0.4731270000000  0.5533380000000 1.0
C      1  0.5722050000000  0.4399190000000  0.5906500000000 1.0
C      1  0.4087530000000  0.5343070000000  0.4257740000000 1.0
C      1  0.4391870000000  0.5955900000000  0.4920130000000 1.0
C      1  0.5534520000000  0.4268910000000  0.4976150000000 1.0
C      1  0.4808250000000  0.5237650000000  0.5386720000000 1.0
C      1  0.5302820000000  0.4759400000000  0.4503950000000 1.0
C      1  0.4203350000000  0.5240220000000  0.4838160000000 1.0
C      1  0.5895140000000  0.4786670000000  0.5348400000000 1.0
C      1  0.5828620000000  0.4623870000000  0.5123450000000 1.0
C      1  0.4192620000000  0.5510480000000  0.4920370000000 1.0
C      1  0.4909620000000  0.4886160000000  0.4787410000000 1.0
C      1  0.5276380000000  0.5324870000000  0.5205980000000 1.0
C      1  0.5741440000000  0.5481720000000  0.5084340000000 1.0
C      1  0.3948830000000  0.4828480000000  0.5365410000000 1.0
C      1  0.5348410000000  0.4652160000000  0.5241120000000 1.0
C      1  0.4621520000000  0.5573850000000  0.4712940000000 1.0
C      1  0.5671850000000  0.5078860000000  0.5859000000000 1.0
C      1  0.4488030000000  0.4812680000000  0.4189910000000 1.0
C      1  0.6134580000000  0.5463090000000  0.4173260000000 1.0
C      1  0.3854120000000  0.3832530000000  0.5361810000000 1.0
C      1  0.4628270000000  0.4546830000000  0.4597710000000 1.0
C      1  0.5478480000000  0.5537290000000  0.5727790000000 1.0
C      1  0.4927940000000  0.5657800000000  0.5194130000000 1.0
C      1  0.5102830000000  0.4417330000000  0.4741810000000 1.0
C      1  0.4858910000000  0.5684430000000  0.5479700000000 1.0
C      1  0.5143820000000  0.4343020000000  0.4463560000000 1.0
C      1  0.5421300000000  0.5101600000000  0.4796320000000 1.0
C      1  0.4605230000000  0.5045490000000  0.5423610000000 1.0
C      1  0.4646450000000  0.4774150000000  0.4780010000000 1.0
C      1  0.5457620000000  0.5543580000000  0.5118150000000 1.0
C      1  0.5125990000000  0.4524530000000  0.5372340000000 1.0
C      1  0.4812920000000  0.5680540000000  0.4528060000000 1.0
C      1  0.4958880000000  0.5000680000000  0.4141350000000 1.0
C      1  0.5033150000000  0.5042890000000  0.5906550000000 1.0
C      1  0.4774560000000  0.5221380000000  0.4181250000000 1.0
C      1  0.5197940000000  0.4815220000000  0.5852670000000 1.0
C      1  0.4940680000000  0.4716950000000  0.4211180000000 1.0
C      1  0.5060420000000  0.5294840000000  0.5778260000000 1.0
C      1  0.4965340000000  0.5846890000000  0.4707440000000 1.0
C      1  0.4970580000000  0.4356590000000  0.5200140000000 1.0
C      1  0.6448720000000  0.5336900000000  0.3771000000000 1.0
C      1  0.3646250000000  0.3351640000000  0.5406160000000 1.0
C      1  0.5650720000000  0.5062520000000  0.4933670000000 1.0
C      1  0.4333170000000  0.5128420000000  0.5442660000000 1.0
C      1  0.4647110000000  0.4322530000000  0.4795880000000 1.0
C      1  0.5342220000000  0.5775260000000  0.4988280000000 1.0
C      1  0.5461280000000  0.5858210000000  0.4744750000000 1.0
C      1  0.4432150000000  0.4265910000000  0.4971100000000 1.0
C      1  0.4675560000000  0.4635120000000  0.4318170000000 1.0
C      1  0.5321750000000  0.5322250000000  0.5661730000000 1.0
C      1  0.4403460000000  0.5691540000000  0.4854550000000 1.0
C      1  0.5561810000000  0.4515240000000  0.5092410000000 1.0
C      1  0.4832480000000  0.5495980000000  0.4291600000000 1.0
C      1  0.5105700000000  0.4615580000000  0.5652410000000 1.0
C      1  0.5446900000000  0.4872160000000  0.5402520000000 1.0
C      1  0.4657590000000  0.5289410000000  0.4699390000000 1.0
C      1  0.4857430000000  0.5421770000000  0.5619150000000 1.0
C      1  0.5174680000000  0.4585760000000  0.4304430000000 1.0
C      1  0.5530710000000  0.5656330000000  0.4556340000000 1.0
C      1  0.4343650000000  0.4358320000000  0.5223820000000 1.0
C      1  0.5904830000000  0.5078140000000  0.5369890000000 1.0
C      1  0.4210660000000  0.5014940000000  0.5004510000000 1.0
C      1  0.4988870000000  0.5363070000000  0.5187970000000 1.0
C      1  0.5137940000000  0.4714180000000  0.4745640000000 1.0
C      1  0.3931230000000  0.4561550000000  0.5370280000000 1.0
C      1  0.5883720000000  0.5586250000000  0.4860570000000 1.0
C      1  0.4131550000000  0.5020760000000  0.5275970000000 1.0
C      1  0.5801130000000  0.5206580000000  0.5135420000000 1.0
C      1  0.4910460000000  0.4316720000000  0.4921410000000 1.0
C      1  0.5056840000000  0.5800440000000  0.4981160000000 1.0
C      1  0.4504980000000  0.5100330000000  0.4188020000000 1.0
C      1  0.5487470000000  0.4846950000000  0.5908870000000 1.0
C      1  0.4926840000000  0.5164630000000  0.4716770000000 1.0
C      1  0.5363700000000  0.5152840000000  0.5423410000000 1.0
C      1  0.5975970000000  0.5526430000000  0.4375710000000 1.0
C      1  0.3959270000000  0.4074560000000  0.5339050000000 1.0
C      1  0.6292960000000  0.5399470000000  0.3970460000000 1.0
C      1  0.3749320000000  0.3590090000000  0.5384170000000 1.0
END
