TITL C-3201378-2706-79 -4.61993120270467e-07 125000 -145.299740422216 0 0 26 (D3h) n - 1
REM
REM in /home/nfs/bkarasulu/CARBON/AIRSS/Generating-Clusters/LCBOP/Higher-Symm/SD-CG/FIRE-CG
REM
REM
REM
REM
REM
REM ./C.cell (b20cbc046b6831c77cfcea5457e17084)
REM AIRSS Version 0.9.1 bugfix July 2018 build 013d7b7c2542+ Fri, 06 Jul 2018 19:26:36 +0100
REM compiler GCC version 9.2.1 20190827 (Red Hat 9.2.1-1)
REM options -cpp -mtune=generic -march=x86-64 -g -O0 -fpre-include=/usr/include/finclude/math-vector-fortran.h
REM seed 1061876210 1305953009 -1665289270 1669864574 -626244558 -1625626949 -1862603412 -1267765792 -1638819261 526158802 1315158223 230044058 -1638024191 -68680304 -790068215 385650916 578334665 795683509 -1448771293 -483958354 -986028103 396912692 -307386425 -207924613 -1134185923 793402385 1336625760 -273403105 798625259 817601924 799518538 -199143269 -137603536
REM
CELL 1.54180   50.00000   50.00000   50.00000   90.00000   90.00000   90.00000
LATT -1
SFAC C  
C      1  0.4819900000000  0.5520360000000  0.5340440000000 1.0
C      1  0.5531460000000  0.4898490000000  0.5340350000000 1.0
C      1  0.4637130000000  0.4593200000000  0.5340360000000 1.0
C      1  0.4819870000000  0.5520420000000  0.4685290000000 1.0
C      1  0.5531430000000  0.4898550000000  0.4685200000000 1.0
C      1  0.4637100000000  0.4593260000000  0.4685220000000 1.0
C      1  0.4533580000000  0.4838810000000  0.5287780000000 1.0
C      1  0.5084380000000  0.5487240000000  0.5287820000000 1.0
C      1  0.5370530000000  0.4686010000000  0.5287730000000 1.0
C      1  0.4533550000000  0.4838860000000  0.4737850000000 1.0
C      1  0.5084360000000  0.5487290000000  0.4737890000000 1.0
C      1  0.5370510000000  0.4686060000000  0.4737800000000 1.0
C      1  0.5463210000000  0.5156160000000  0.5287770000000 1.0
C      1  0.4894400000000  0.4523470000000  0.5287740000000 1.0
C      1  0.4630880000000  0.5332430000000  0.5287820000000 1.0
C      1  0.5463190000000  0.5156210000000  0.4737840000000 1.0
C      1  0.4894370000000  0.4523520000000  0.4737810000000 1.0
C      1  0.4630860000000  0.5332480000000  0.4737890000000 1.0
C      1  0.5201090000000  0.5238520000000  0.5170010000000 1.0
C      1  0.5096770000000  0.4709310000000  0.5169960000000 1.0
C      1  0.4690620000000  0.5064260000000  0.5170010000000 1.0
C      1  0.5201080000000  0.5238550000000  0.4855640000000 1.0
C      1  0.5096750000000  0.4709340000000  0.4855600000000 1.0
C      1  0.4690610000000  0.5064290000000  0.4855650000000 1.0
C      1  0.4996140000000  0.5004070000000  0.4796260000000 1.0
C      1  0.4996160000000  0.5004030000000  0.5229370000000 1.0
END
