TITL C-3201379-3821-513 -0.000821834713247532 125000 -503.28135719423 0 0 84 (C1) n - 1
REM
REM in /home/nfs/bkarasulu/CARBON/AIRSS/Generating-Clusters/LCBOP/Higher-Symm/SD-CG/FIRE-CG
REM
REM
REM
REM
REM
REM ./C.cell (b20cbc046b6831c77cfcea5457e17084)
REM AIRSS Version 0.9.1 bugfix July 2018 build 013d7b7c2542+ Fri, 06 Jul 2018 19:26:36 +0100
REM compiler GCC version 9.2.1 20190827 (Red Hat 9.2.1-1)
REM options -cpp -mtune=generic -march=x86-64 -g -O0 -fpre-include=/usr/include/finclude/math-vector-fortran.h
REM seed 1369454700 -874577143 1229720127 1951398911 -698902337 174712426 -1878258254 1053538537 725140415 1095372328 1839435295 1080265414 -1680703667 -1094583642 1219102303 188861664 -1645608547 -1006670516 -1546783180 231540029 1676357416 -1433391321 466328914 274479624 -67795226 -2016777521 265963211 -763675031 2019607317 -987172958 -1047019920 -954385047 -644479074
REM
CELL 1.54180   50.00000   50.00000   50.00000   90.00000   90.00000   90.00000
LATT -1
SFAC C  
C      1  0.5398670000000  0.4665100000000  0.4298420000000 1.0
C      1  0.5141970000000  0.5504930000000  0.4312250000000 1.0
C      1  0.4543640000000  0.4933040000000  0.4368530000000 1.0
C      1  0.4515080000000  0.5873450000000  0.5291470000000 1.0
C      1  0.4496560000000  0.4129100000000  0.5388930000000 1.0
C      1  0.5944860000000  0.4926780000000  0.5367030000000 1.0
C      1  0.5197060000000  0.4813600000000  0.4161200000000 1.0
C      1  0.5078230000000  0.5296140000000  0.4132390000000 1.0
C      1  0.4727700000000  0.4970660000000  0.4158560000000 1.0
C      1  0.4621830000000  0.4752190000000  0.5967790000000 1.0
C      1  0.5230850000000  0.4670730000000  0.5800070000000 1.0
C      1  0.5125060000000  0.5310630000000  0.5763250000000 1.0
C      1  0.4720500000000  0.5767190000000  0.5120240000000 1.0
C      1  0.4481590000000  0.4354460000000  0.5204610000000 1.0
C      1  0.5779020000000  0.4799650000000  0.5165820000000 1.0
C      1  0.5331070000000  0.4894030000000  0.5653090000000 1.0
C      1  0.4881350000000  0.5332690000000  0.5620660000000 1.0
C      1  0.4760170000000  0.4671160000000  0.5748130000000 1.0
C      1  0.4382890000000  0.5427010000000  0.5540180000000 1.0
C      1  0.4971580000000  0.4252640000000  0.5615370000000 1.0
C      1  0.5594640000000  0.5294140000000  0.5552290000000 1.0
C      1  0.4698790000000  0.4506060000000  0.5306360000000 1.0
C      1  0.5538760000000  0.4953210000000  0.5202260000000 1.0
C      1  0.4716450000000  0.5491170000000  0.5193480000000 1.0
C      1  0.5733470000000  0.4624670000000  0.4702740000000 1.0
C      1  0.4880390000000  0.5760390000000  0.4649860000000 1.0
C      1  0.4424580000000  0.4411070000000  0.4702800000000 1.0
C      1  0.4168980000000  0.5425010000000  0.4906290000000 1.0
C      1  0.4974600000000  0.4039940000000  0.4969260000000 1.0
C      1  0.5845280000000  0.5666160000000  0.4964040000000 1.0
C      1  0.4345610000000  0.4979130000000  0.5265870000000 1.0
C      1  0.5330510000000  0.4383440000000  0.5278090000000 1.0
C      1  0.5308980000000  0.5547040000000  0.5193920000000 1.0
C      1  0.5369150000000  0.5175580000000  0.5704800000000 1.0
C      1  0.4608090000000  0.5347520000000  0.5699830000000 1.0
C      1  0.4997350000000  0.4508280000000  0.5760930000000 1.0
C      1  0.4934100000000  0.5822170000000  0.4930850000000 1.0
C      1  0.4350030000000  0.4501520000000  0.4981940000000 1.0
C      1  0.5729020000000  0.4568010000000  0.4989120000000 1.0
C      1  0.5134210000000  0.5322950000000  0.5175750000000 1.0
C      1  0.4626960000000  0.4934470000000  0.5305510000000 1.0
C      1  0.5219670000000  0.4645730000000  0.5236910000000 1.0
C      1  0.5030190000000  0.5537660000000  0.4564500000000 1.0
C      1  0.4633370000000  0.4865520000000  0.4611940000000 1.0
C      1  0.5497920000000  0.4702570000000  0.4560290000000 1.0
C      1  0.4705840000000  0.4124740000000  0.5576570000000 1.0
C      1  0.5839450000000  0.5132160000000  0.5523320000000 1.0
C      1  0.4378260000000  0.5710060000000  0.5467440000000 1.0
C      1  0.4599980000000  0.5343660000000  0.4679450000000 1.0
C      1  0.4877660000000  0.4473650000000  0.4751080000000 1.0
C      1  0.5703300000000  0.5550820000000  0.4508640000000 1.0
C      1  0.4902310000000  0.5315360000000  0.4713560000000 1.0
C      1  0.4785380000000  0.4749650000000  0.4821140000000 1.0
C      1  0.5300850000000  0.4800430000000  0.4736680000000 1.0
C      1  0.5536840000000  0.5181220000000  0.4175190000000 1.0
C      1  0.4630420000000  0.5462230000000  0.4217140000000 1.0
C      1  0.4786890000000  0.4501310000000  0.4283290000000 1.0
C      1  0.5353390000000  0.4277390000000  0.4823180000000 1.0
C      1  0.5425790000000  0.5827600000000  0.4815060000000 1.0
C      1  0.4253940000000  0.4975420000000  0.4800950000000 1.0
C      1  0.5070020000000  0.5221820000000  0.4919550000000 1.0
C      1  0.4771010000000  0.4898240000000  0.5061630000000 1.0
C      1  0.5192190000000  0.4727040000000  0.4968620000000 1.0
C      1  0.4088730000000  0.5379760000000  0.5161020000000 1.0
C      1  0.5064380000000  0.3988440000000  0.5220290000000 1.0
C      1  0.5787370000000  0.5605100000000  0.5220040000000 1.0
C      1  0.4689600000000  0.4727110000000  0.5483900000000 1.0
C      1  0.5344830000000  0.4848490000000  0.5377930000000 1.0
C      1  0.4909370000000  0.5352040000000  0.5339490000000 1.0
C      1  0.5159110000000  0.4188070000000  0.5401460000000 1.0
C      1  0.5554640000000  0.5501930000000  0.5345890000000 1.0
C      1  0.4246350000000  0.5242240000000  0.5355090000000 1.0
C      1  0.4591040000000  0.5555930000000  0.4482560000000 1.0
C      1  0.4679330000000  0.4408610000000  0.4540740000000 1.0
C      1  0.5672820000000  0.5357180000000  0.4326140000000 1.0
C      1  0.4913190000000  0.4742400000000  0.4161930000000 1.0
C      1  0.5273890000000  0.5090170000000  0.4115690000000 1.0
C      1  0.4798040000000  0.5245340000000  0.4114300000000 1.0
C      1  0.5670610000000  0.5701040000000  0.4744160000000 1.0
C      1  0.4344530000000  0.5246970000000  0.4771400000000 1.0
C      1  0.5064850000000  0.4263230000000  0.4817220000000 1.0
C      1  0.5223670000000  0.5765770000000  0.5009350000000 1.0
C      1  0.4269060000000  0.4798720000000  0.5031170000000 1.0
C      1  0.5520290000000  0.4360090000000  0.5050100000000 1.0
END
