TITL C-3201377-4638-1571 -0.000795750399119717 125000 -580.532424573717 0 0 97 (C1) n - 1
REM
REM in /home/nfs/bkarasulu/CARBON/AIRSS/Generating-Clusters/LCBOP/Higher-Symm/SD-CG/FIRE-CG
REM
REM
REM
REM
REM
REM ./C.cell (b20cbc046b6831c77cfcea5457e17084)
REM AIRSS Version 0.9.1 bugfix July 2018 build 013d7b7c2542+ Fri, 06 Jul 2018 19:26:36 +0100
REM compiler GCC version 9.2.1 20190827 (Red Hat 9.2.1-1)
REM options -cpp -mtune=generic -march=x86-64 -g -O0 -fpre-include=/usr/include/finclude/math-vector-fortran.h
REM seed -876460693 -648535146 -1251046677 -948812912 1039145748 -1204923379 751496100 -2006280501 -668735545 998110569 273426591 1606708988 -827803839 -2030597838 -550349501 860627062 -1947522321 877675490 -480601764 -1189793599 1413534706 427002643 1694770276 -168504293 260143640 564400298 -221150304 1798930996 -1549441131 218705653 1913086066 1913822776 -1167891114
REM
CELL 1.54180   50.00000   50.00000   50.00000   90.00000   90.00000   90.00000
LATT -1
SFAC C  
C      1  0.5700860000000  0.5799100000000  0.4870660000000 1.0
C      1  0.5851190000000  0.4368960000000  0.4953980000000 1.0
C      1  0.4315350000000  0.4100780000000  0.4954430000000 1.0
C      1  0.4128220000000  0.5632040000000  0.4969940000000 1.0
C      1  0.4187000000000  0.4932660000000  0.5196820000000 1.0
C      1  0.4974540000000  0.5728420000000  0.4867140000000 1.0
C      1  0.5749210000000  0.5041860000000  0.5261350000000 1.0
C      1  0.5026220000000  0.4238600000000  0.4825640000000 1.0
C      1  0.5958900000000  0.5026740000000  0.5068540000000 1.0
C      1  0.4979250000000  0.4012720000000  0.4989900000000 1.0
C      1  0.3992500000000  0.4978960000000  0.4993730000000 1.0
C      1  0.5067040000000  0.5973370000000  0.4970470000000 1.0
C      1  0.4278360000000  0.5563880000000  0.5186440000000 1.0
C      1  0.5592310000000  0.5553230000000  0.4851320000000 1.0
C      1  0.5682880000000  0.4405240000000  0.5164760000000 1.0
C      1  0.4391490000000  0.4314580000000  0.4805890000000 1.0
C      1  0.5969590000000  0.5165290000000  0.4598220000000 1.0
C      1  0.4999730000000  0.3938890000000  0.5475930000000 1.0
C      1  0.4016450000000  0.4887380000000  0.4510960000000 1.0
C      1  0.5144890000000  0.6148470000000  0.5424270000000 1.0
C      1  0.5319550000000  0.4825370000000  0.4487430000000 1.0
C      1  0.4636630000000  0.4510760000000  0.5588300000000 1.0
C      1  0.4664500000000  0.5206080000000  0.4487200000000 1.0
C      1  0.4939290000000  0.4899670000000  0.5671330000000 1.0
C      1  0.5983420000000  0.5219990000000  0.4862420000000 1.0
C      1  0.5116820000000  0.3980490000000  0.5236090000000 1.0
C      1  0.3986110000000  0.4807270000000  0.4766990000000 1.0
C      1  0.4983340000000  0.6066320000000  0.5224550000000 1.0
C      1  0.5941450000000  0.4595270000000  0.4809470000000 1.0
C      1  0.4496980000000  0.3974130000000  0.5130550000000 1.0
C      1  0.4036450000000  0.5432670000000  0.4790820000000 1.0
C      1  0.5568710000000  0.6005040000000  0.5011910000000 1.0
C      1  0.5077780000000  0.4889810000000  0.4625480000000 1.0
C      1  0.4743140000000  0.4765250000000  0.5522960000000 1.0
C      1  0.4891090000000  0.5112340000000  0.4632740000000 1.0
C      1  0.5149560000000  0.5031480000000  0.5569870000000 1.0
C      1  0.4659850000000  0.3787140000000  0.5801700000000 1.0
C      1  0.4002270000000  0.5185640000000  0.4117310000000 1.0
C      1  0.5535960000000  0.6347070000000  0.5650090000000 1.0
C      1  0.5992590000000  0.4922480000000  0.4169170000000 1.0
C      1  0.5518400000000  0.4156920000000  0.4393820000000 1.0
C      1  0.3958070000000  0.4356100000000  0.5462640000000 1.0
C      1  0.4496810000000  0.5892530000000  0.4460260000000 1.0
C      1  0.5978740000000  0.5463680000000  0.5671720000000 1.0
C      1  0.5485250000000  0.4607710000000  0.5163560000000 1.0
C      1  0.4589940000000  0.4499650000000  0.4883260000000 1.0
C      1  0.4472990000000  0.5358590000000  0.5178510000000 1.0
C      1  0.5372020000000  0.5439810000000  0.4982850000000 1.0
C      1  0.5319940000000  0.6078120000000  0.4896550000000 1.0
C      1  0.6067250000000  0.4780400000000  0.4985140000000 1.0
C      1  0.4728690000000  0.3882040000000  0.4993260000000 1.0
C      1  0.3890640000000  0.5233310000000  0.4931590000000 1.0
C      1  0.4448770000000  0.4319150000000  0.5492910000000 1.0
C      1  0.4458170000000  0.5404490000000  0.4514830000000 1.0
C      1  0.5725310000000  0.5783940000000  0.5418510000000 1.0
C      1  0.5535320000000  0.4636020000000  0.4509150000000 1.0
C      1  0.5249440000000  0.5047930000000  0.5289830000000 1.0
C      1  0.5044440000000  0.4732970000000  0.4889980000000 1.0
C      1  0.4686670000000  0.4885850000000  0.5244600000000 1.0
C      1  0.4915220000000  0.5237910000000  0.4913890000000 1.0
C      1  0.4437640000000  0.5090030000000  0.5251020000000 1.0
C      1  0.5115360000000  0.5472860000000  0.4889260000000 1.0
C      1  0.5508750000000  0.4867160000000  0.5262880000000 1.0
C      1  0.4861130000000  0.4483320000000  0.4830730000000 1.0
C      1  0.5660760000000  0.5306580000000  0.5346150000000 1.0
C      1  0.5293840000000  0.4339900000000  0.4789310000000 1.0
C      1  0.4263220000000  0.4655290000000  0.5222460000000 1.0
C      1  0.4698580000000  0.5653980000000  0.4838070000000 1.0
C      1  0.4548450000000  0.5663990000000  0.4598830000000 1.0
C      1  0.5790540000000  0.5516990000000  0.5480350000000 1.0
C      1  0.5452410000000  0.4364440000000  0.4557120000000 1.0
C      1  0.4207810000000  0.4439250000000  0.5394390000000 1.0
C      1  0.5295090000000  0.4577340000000  0.4962210000000 1.0
C      1  0.4531310000000  0.4656200000000  0.5104610000000 1.0
C      1  0.4673180000000  0.5403750000000  0.4989640000000 1.0
C      1  0.5391270000000  0.5316320000000  0.5235410000000 1.0
C      1  0.5616320000000  0.5072890000000  0.3812370000000 1.0
C      1  0.4644320000000  0.4070030000000  0.6261320000000 1.0
C      1  0.4390260000000  0.5096440000000  0.3752600000000 1.0
C      1  0.5637680000000  0.6158500000000  0.6145740000000 1.0
C      1  0.4533960000000  0.4059740000000  0.5405610000000 1.0
C      1  0.4180220000000  0.5343440000000  0.4553200000000 1.0
C      1  0.5591380000000  0.6001270000000  0.5299310000000 1.0
C      1  0.5806770000000  0.4706100000000  0.4575340000000 1.0
C      1  0.5587420000000  0.6256580000000  0.5909580000000 1.0
C      1  0.5804070000000  0.5001980000000  0.3978610000000 1.0
C      1  0.4652450000000  0.3926130000000  0.6044190000000 1.0
C      1  0.4196980000000  0.5138470000000  0.3922280000000 1.0
C      1  0.5923870000000  0.4933200000000  0.4443610000000 1.0
C      1  0.4731820000000  0.3925830000000  0.5565890000000 1.0
C      1  0.4065200000000  0.5137620000000  0.4388990000000 1.0
C      1  0.5424200000000  0.6167940000000  0.5461420000000 1.0
C      1  0.5593050000000  0.6604820000000  0.5578400000000 1.0
C      1  0.6240110000000  0.4834910000000  0.4092370000000 1.0
C      1  0.4597890000000  0.3520890000000  0.5791650000000 1.0
C      1  0.3754290000000  0.5277570000000  0.4047390000000 1.0
C      1  0.4970440000000  0.4976130000000  0.5096470000000 1.0
END
