TITL C-3201379-3821-1848 134.416689015239 125000 -1244.78716126425 0 0 198 (C1) n - 1
REM
REM in /home/nfs/bkarasulu/CARBON/AIRSS/Generating-Clusters/LCBOP/Higher-Symm/SD-CG/FIRE-CG
REM
REM
REM
REM
REM
REM ./C.cell (b20cbc046b6831c77cfcea5457e17084)
REM AIRSS Version 0.9.1 bugfix July 2018 build 013d7b7c2542+ Fri, 06 Jul 2018 19:26:36 +0100
REM compiler GCC version 9.2.1 20190827 (Red Hat 9.2.1-1)
REM options -cpp -mtune=generic -march=x86-64 -g -O0 -fpre-include=/usr/include/finclude/math-vector-fortran.h
REM seed 1007318866 -756421188 -1431999525 -481824143 -1117016721 1280537097 -2016519188 647963689 -1010828919 -1030712004 -1280877087 312197250 -1071863151 -1899824884 410308099 833379849 10998416 -1661074045 1839956415 1661067918 1753995759 -1177663568 959462335 -2105867388 856783211 -2009590623 49993616 849031355 229438962 -993744837 244651051 1147069032 -335415507
REM
CELL 1.54180   50.00000   50.00000   50.00000   90.00000   90.00000   90.00000
LATT -1
SFAC C  
C      1  0.3867240000000  0.5443660000000  0.4704300000000 1.0
C      1  0.6121690000000  0.4608330000000  0.4677500000000 1.0
C      1  0.3877120000000  0.5439130000000  0.5294520000000 1.0
C      1  0.6149120000000  0.4602640000000  0.5295570000000 1.0
C      1  0.5077740000000  0.4166580000000  0.4812820000000 1.0
C      1  0.4910440000000  0.5785350000000  0.4838660000000 1.0
C      1  0.5059650000000  0.4158740000000  0.5111070000000 1.0
C      1  0.4913080000000  0.5800860000000  0.5149920000000 1.0
C      1  0.4539230000000  0.4468050000000  0.4099580000000 1.0
C      1  0.5467960000000  0.5473470000000  0.4024610000000 1.0
C      1  0.4572650000000  0.4464010000000  0.5874950000000 1.0
C      1  0.5430440000000  0.5608630000000  0.5953180000000 1.0
C      1  0.5055210000000  0.4717540000000  0.4478920000000 1.0
C      1  0.5001650000000  0.5402180000000  0.4411980000000 1.0
C      1  0.5104180000000  0.4408470000000  0.5504860000000 1.0
C      1  0.4893270000000  0.5411500000000  0.5635130000000 1.0
C      1  0.4673960000000  0.4216520000000  0.4180980000000 1.0
C      1  0.5353060000000  0.5705580000000  0.4206010000000 1.0
C      1  0.4707060000000  0.4241640000000  0.5737140000000 1.0
C      1  0.5274760000000  0.5757590000000  0.5747440000000 1.0
C      1  0.5098660000000  0.5573010000000  0.4752290000000 1.0
C      1  0.4839010000000  0.4302170000000  0.4718650000000 1.0
C      1  0.5125800000000  0.5615400000000  0.5262460000000 1.0
C      1  0.4963350000000  0.4371430000000  0.5266490000000 1.0
C      1  0.5251100000000  0.5291580000000  0.3959780000000 1.0
C      1  0.4698640000000  0.4708650000000  0.4010020000000 1.0
C      1  0.5245620000000  0.5454820000000  0.6125470000000 1.0
C      1  0.4739500000000  0.4696330000000  0.5974470000000 1.0
C      1  0.4391740000000  0.5191340000000  0.5136190000000 1.0
C      1  0.5718070000000  0.4778060000000  0.5137340000000 1.0
C      1  0.4379600000000  0.5186470000000  0.4851650000000 1.0
C      1  0.5703410000000  0.4792660000000  0.4844470000000 1.0
C      1  0.4789250000000  0.4765790000000  0.4615300000000 1.0
C      1  0.5249910000000  0.5142910000000  0.4744700000000 1.0
C      1  0.4782270000000  0.4799620000000  0.5338990000000 1.0
C      1  0.5259280000000  0.5106840000000  0.5326550000000 1.0
C      1  0.5141370000000  0.4951880000000  0.5897790000000 1.0
C      1  0.4921820000000  0.5165910000000  0.5857140000000 1.0
C      1  0.5081560000000  0.4897560000000  0.4236280000000 1.0
C      1  0.4884650000000  0.5138660000000  0.4193730000000 1.0
C      1  0.4375830000000  0.5899780000000  0.5666070000000 1.0
C      1  0.5411710000000  0.4115140000000  0.5778050000000 1.0
C      1  0.4373320000000  0.5873850000000  0.4312150000000 1.0
C      1  0.5617800000000  0.4124610000000  0.4310450000000 1.0
C      1  0.5402460000000  0.4974920000000  0.5787600000000 1.0
C      1  0.4675450000000  0.4977450000000  0.5842360000000 1.0
C      1  0.5329630000000  0.5044970000000  0.4234550000000 1.0
C      1  0.4627580000000  0.4980710000000  0.4152620000000 1.0
C      1  0.4666270000000  0.4507630000000  0.4687370000000 1.0
C      1  0.5174160000000  0.5360410000000  0.4897930000000 1.0
C      1  0.4732740000000  0.4527140000000  0.5262210000000 1.0
C      1  0.5183330000000  0.5350820000000  0.5179970000000 1.0
C      1  0.4262770000000  0.4506310000000  0.4179890000000 1.0
C      1  0.5717840000000  0.5302280000000  0.4079620000000 1.0
C      1  0.4294190000000  0.4504070000000  0.5814210000000 1.0
C      1  0.5727080000000  0.5565360000000  0.5918200000000 1.0
C      1  0.5150530000000  0.4287100000000  0.3947080000000 1.0
C      1  0.4865060000000  0.5708570000000  0.4045460000000 1.0
C      1  0.5194480000000  0.4247280000000  0.5930580000000 1.0
C      1  0.4813600000000  0.5749150000000  0.5959690000000 1.0
C      1  0.5611060000000  0.4798150000000  0.5882650000000 1.0
C      1  0.4369260000000  0.5189870000000  0.5875540000000 1.0
C      1  0.5585030000000  0.4943790000000  0.4121300000000 1.0
C      1  0.4350760000000  0.5198320000000  0.4118370000000 1.0
C      1  0.5562350000000  0.4257870000000  0.4850670000000 1.0
C      1  0.4423920000000  0.5767760000000  0.4856680000000 1.0
C      1  0.5581260000000  0.4337540000000  0.5118230000000 1.0
C      1  0.4426520000000  0.5769660000000  0.5138830000000 1.0
C      1  0.3975170000000  0.4469230000000  0.5172030000000 1.0
C      1  0.6048860000000  0.5578130000000  0.5166300000000 1.0
C      1  0.3939650000000  0.4465180000000  0.4835050000000 1.0
C      1  0.6059320000000  0.5581420000000  0.4850660000000 1.0
C      1  0.5276770000000  0.4905920000000  0.4884770000000 1.0
C      1  0.4793290000000  0.4981150000000  0.4835490000000 1.0
C      1  0.5271570000000  0.4855880000000  0.5170560000000 1.0
C      1  0.4806230000000  0.4993610000000  0.5128840000000 1.0
C      1  0.5468800000000  0.4713650000000  0.3931200000000 1.0
C      1  0.4474250000000  0.5402560000000  0.3958310000000 1.0
C      1  0.5505940000000  0.4606270000000  0.6070400000000 1.0
C      1  0.4470150000000  0.5392470000000  0.6045490000000 1.0
C      1  0.3947140000000  0.5667750000000  0.4861100000000 1.0
C      1  0.6047410000000  0.4375380000000  0.4841630000000 1.0
C      1  0.3949870000000  0.5666160000000  0.5137740000000 1.0
C      1  0.6063630000000  0.4375360000000  0.5123960000000 1.0
C      1  0.4742260000000  0.6176680000000  0.4579360000000 1.0
C      1  0.5276030000000  0.3782490000000  0.4574300000000 1.0
C      1  0.4725630000000  0.6206330000000  0.5369540000000 1.0
C      1  0.5240420000000  0.3777660000000  0.5374200000000 1.0
C      1  0.3910000000000  0.4691620000000  0.4579960000000 1.0
C      1  0.6081460000000  0.5346190000000  0.4592190000000 1.0
C      1  0.3949810000000  0.4688100000000  0.5411200000000 1.0
C      1  0.6080750000000  0.5368430000000  0.5401180000000 1.0
C      1  0.5799210000000  0.4308720000000  0.4434030000000 1.0
C      1  0.4180210000000  0.5710790000000  0.4443990000000 1.0
C      1  0.5822230000000  0.4329390000000  0.5531500000000 1.0
C      1  0.4186890000000  0.5714600000000  0.5552770000000 1.0
C      1  0.4352830000000  0.4880520000000  0.5531480000000 1.0
C      1  0.5601630000000  0.5356890000000  0.5554100000000 1.0
C      1  0.4309210000000  0.4880390000000  0.4466630000000 1.0
C      1  0.5568250000000  0.5404010000000  0.4477510000000 1.0
C      1  0.4954270000000  0.6085620000000  0.5240310000000 1.0
C      1  0.5026910000000  0.3895390000000  0.5224730000000 1.0
C      1  0.4966810000000  0.6053780000000  0.4713640000000 1.0
C      1  0.5036610000000  0.3884510000000  0.4701240000000 1.0
C      1  0.4172470000000  0.4669830000000  0.5620980000000 1.0
C      1  0.5844080000000  0.5426450000000  0.5684990000000 1.0
C      1  0.4132190000000  0.4669720000000  0.4372360000000 1.0
C      1  0.5821330000000  0.5359060000000  0.4340680000000 1.0
C      1  0.4640770000000  0.5211360000000  0.4737980000000 1.0
C      1  0.5448010000000  0.4730920000000  0.4742300000000 1.0
C      1  0.4661860000000  0.5227250000000  0.5230180000000 1.0
C      1  0.5476570000000  0.4619520000000  0.5239080000000 1.0
C      1  0.4064300000000  0.5205970000000  0.4332770000000 1.0
C      1  0.5808010000000  0.4792910000000  0.4271390000000 1.0
C      1  0.4088420000000  0.5199360000000  0.5657260000000 1.0
C      1  0.5863160000000  0.4756030000000  0.5748360000000 1.0
C      1  0.5936400000000  0.4580730000000  0.4422920000000 1.0
C      1  0.4015580000000  0.5460810000000  0.4443850000000 1.0
C      1  0.5986040000000  0.4576500000000  0.5559560000000 1.0
C      1  0.4031110000000  0.5457230000000  0.5552910000000 1.0
C      1  0.4965900000000  0.5279310000000  0.3934220000000 1.0
C      1  0.4994560000000  0.4719830000000  0.4005900000000 1.0
C      1  0.4969530000000  0.5347960000000  0.6110530000000 1.0
C      1  0.5034730000000  0.4704300000000  0.6014780000000 1.0
C      1  0.5432650000000  0.3935150000000  0.4383720000000 1.0
C      1  0.4576010000000  0.6043250000000  0.4384960000000 1.0
C      1  0.5339220000000  0.3885200000000  0.5620460000000 1.0
C      1  0.4565260000000  0.6077200000000  0.5573810000000 1.0
C      1  0.5632300000000  0.5496740000000  0.4729470000000 1.0
C      1  0.4393050000000  0.4494290000000  0.4732080000000 1.0
C      1  0.5621890000000  0.5475430000000  0.5299210000000 1.0
C      1  0.4455110000000  0.4486150000000  0.5234010000000 1.0
C      1  0.4577260000000  0.4040380000000  0.4395130000000 1.0
C      1  0.5443750000000  0.5906570000000  0.4405790000000 1.0
C      1  0.4596240000000  0.4047590000000  0.5545420000000 1.0
C      1  0.5378770000000  0.5943640000000  0.5553950000000 1.0
C      1  0.5238250000000  0.4500070000000  0.6064210000000 1.0
C      1  0.4722260000000  0.5518840000000  0.6110090000000 1.0
C      1  0.5217270000000  0.4562300000000  0.3921410000000 1.0
C      1  0.4749680000000  0.5482100000000  0.3910570000000 1.0
C      1  0.4634450000000  0.6400470000000  0.4714720000000 1.0
C      1  0.5405120000000  0.3579120000000  0.4722620000000 1.0
C      1  0.4612130000000  0.6418790000000  0.5221220000000 1.0
C      1  0.5389760000000  0.3585520000000  0.5231040000000 1.0
C      1  0.5784870000000  0.5705930000000  0.5243910000000 1.0
C      1  0.4232810000000  0.4294070000000  0.5226980000000 1.0
C      1  0.5809280000000  0.5715930000000  0.4766630000000 1.0
C      1  0.4194580000000  0.4286790000000  0.4741390000000 1.0
C      1  0.4711050000000  0.5433240000000  0.4595410000000 1.0
C      1  0.5278190000000  0.4563160000000  0.4591350000000 1.0
C      1  0.4721490000000  0.5437130000000  0.5401590000000 1.0
C      1  0.5374060000000  0.4499170000000  0.5499260000000 1.0
C      1  0.4174750000000  0.5780940000000  0.4727500000000 1.0
C      1  0.5815730000000  0.4250030000000  0.4718910000000 1.0
C      1  0.4177530000000  0.5781860000000  0.5267670000000 1.0
C      1  0.5829360000000  0.4261670000000  0.5252960000000 1.0
C      1  0.4657540000000  0.5674680000000  0.4728540000000 1.0
C      1  0.5315690000000  0.4304040000000  0.4713220000000 1.0
C      1  0.4665320000000  0.5685770000000  0.5268490000000 1.0
C      1  0.5560010000000  0.4317570000000  0.5636280000000 1.0
C      1  0.4765420000000  0.3816270000000  0.4815090000000 1.0
C      1  0.5223350000000  0.6134120000000  0.4823630000000 1.0
C      1  0.4764790000000  0.3816660000000  0.5119020000000 1.0
C      1  0.5216210000000  0.6150910000000  0.5125410000000 1.0
C      1  0.6088150000000  0.5082820000000  0.4701940000000 1.0
C      1  0.3865060000000  0.4997400000000  0.4578040000000 1.0
C      1  0.6083830000000  0.5085510000000  0.5296340000000 1.0
C      1  0.3896790000000  0.4989990000000  0.5411290000000 1.0
C      1  0.4296000000000  0.4719620000000  0.4867940000000 1.0
C      1  0.5683460000000  0.5262840000000  0.4871420000000 1.0
C      1  0.4334550000000  0.4720610000000  0.5129380000000 1.0
C      1  0.5669540000000  0.5250190000000  0.5139230000000 1.0
C      1  0.5318880000000  0.5232520000000  0.4467790000000 1.0
C      1  0.4578610000000  0.4876010000000  0.4416780000000 1.0
C      1  0.5418640000000  0.5143860000000  0.5565530000000 1.0
C      1  0.4630510000000  0.4885210000000  0.5569220000000 1.0
C      1  0.6208470000000  0.4850840000000  0.4834590000000 1.0
C      1  0.3822420000000  0.5177000000000  0.4821790000000 1.0
C      1  0.6213300000000  0.4855560000000  0.5150760000000 1.0
C      1  0.3834530000000  0.5172800000000  0.5173920000000 1.0
C      1  0.5455960000000  0.6029090000000  0.4679630000000 1.0
C      1  0.4534640000000  0.3932220000000  0.4668010000000 1.0
C      1  0.5434620000000  0.6045970000000  0.5287000000000 1.0
C      1  0.4545290000000  0.3930500000000  0.5276430000000 1.0
C      1  0.5063850000000  0.5646400000000  0.4241750000000 1.0
C      1  0.4929990000000  0.4172510000000  0.4059030000000 1.0
C      1  0.4993660000000  0.5675110000000  0.5745010000000 1.0
C      1  0.4988990000000  0.4277200000000  0.5731890000000 1.0
C      1  0.4312980000000  0.4038740000000  0.4832090000000 1.0
C      1  0.5673500000000  0.5947650000000  0.4853090000000 1.0
C      1  0.4324240000000  0.4040630000000  0.5124950000000 1.0
C      1  0.5657530000000  0.5940840000000  0.5142080000000 1.0
C      1  0.4264920000000  0.4960030000000  0.4734060000000 1.0
C      1  0.5806740000000  0.5037950000000  0.4754100000000 1.0
C      1  0.4301520000000  0.4959680000000  0.5266140000000 1.0
C      1  0.5801850000000  0.5024620000000  0.5249080000000 1.0
C      1  0.5447330000000  0.3514110000000  0.4979290000000 1.0
C      1  0.4582550000000  0.6485900000000  0.4963290000000 1.0
END
