TITL C-3201376-6384-909 -7.66296133916454e-07 125000 -537.895052452272 0 0 91 (C1) n - 1
REM
REM in /home/nfs/bkarasulu/CARBON/AIRSS/Generating-Clusters/LCBOP/Higher-Symm/SD-CG/FIRE-CG
REM
REM
REM
REM
REM
REM ./C.cell (b20cbc046b6831c77cfcea5457e17084)
REM AIRSS Version 0.9.1 bugfix July 2018 build 013d7b7c2542+ Fri, 06 Jul 2018 19:26:36 +0100
REM compiler GCC version 9.2.1 20190827 (Red Hat 9.2.1-1)
REM options -cpp -mtune=generic -march=x86-64 -g -O0 -fpre-include=/usr/include/finclude/math-vector-fortran.h
REM seed -1033753000 -880223689 1291108771 1990567423 1606688758 1562949692 -895930948 -454409360 770584574 -1698824932 1828591727 -1418809241 1541670289 -886302847 1822692951 47792141 1134198358 2110324494 -131455670 156700954 954205611 -1215425236 1531056224 1065819548 -648626747 277093746 58716255 -473236152 -1048479712 1721665504 -1352799234 743969261 154676667
REM
CELL 1.54180   50.00000   50.00000   50.00000   90.00000   90.00000   90.00000
LATT -1
SFAC C  
C      1  0.5769200000000  0.4971510000000  0.5416430000000 1.0
C      1  0.5015970000000  0.5685800000000  0.5740470000000 1.0
C      1  0.5464990000000  0.5728400000000  0.5132720000000 1.0
C      1  0.4191040000000  0.4779230000000  0.4238970000000 1.0
C      1  0.4427410000000  0.4981380000000  0.5757510000000 1.0
C      1  0.5587590000000  0.5151530000000  0.4479820000000 1.0
C      1  0.5225290000000  0.5532440000000  0.4285210000000 1.0
C      1  0.5064140000000  0.4600190000000  0.5813920000000 1.0
C      1  0.5137440000000  0.4534860000000  0.4360210000000 1.0
C      1  0.4459310000000  0.5567040000000  0.5151320000000 1.0
C      1  0.4439200000000  0.4351450000000  0.4800790000000 1.0
C      1  0.5400850000000  0.4225230000000  0.5059230000000 1.0
C      1  0.5538110000000  0.4920460000000  0.5583170000000 1.0
C      1  0.5705910000000  0.5452200000000  0.5093900000000 1.0
C      1  0.5006010000000  0.5818650000000  0.5488200000000 1.0
C      1  0.4467040000000  0.4818060000000  0.4265240000000 1.0
C      1  0.5481810000000  0.5006470000000  0.4246760000000 1.0
C      1  0.4671230000000  0.5021430000000  0.5895220000000 1.0
C      1  0.4249290000000  0.5370480000000  0.5125660000000 1.0
C      1  0.5547210000000  0.4468970000000  0.5089300000000 1.0
C      1  0.4185180000000  0.4488490000000  0.4796420000000 1.0
C      1  0.5348870000000  0.5759730000000  0.4404470000000 1.0
C      1  0.5104790000000  0.4304480000000  0.4576460000000 1.0
C      1  0.5060780000000  0.4412890000000  0.5574180000000 1.0
C      1  0.4984870000000  0.4544060000000  0.5303750000000 1.0
C      1  0.4680440000000  0.5200000000000  0.4905280000000 1.0
C      1  0.5148870000000  0.5119620000000  0.4614250000000 1.0
C      1  0.4854940000000  0.4626920000000  0.4831860000000 1.0
C      1  0.4962100000000  0.5421420000000  0.5191760000000 1.0
C      1  0.5045760000000  0.5540210000000  0.4723290000000 1.0
C      1  0.5355410000000  0.5203640000000  0.4988830000000 1.0
C      1  0.5392320000000  0.4718110000000  0.5014780000000 1.0
C      1  0.4464180000000  0.4749020000000  0.5081760000000 1.0
C      1  0.4787200000000  0.5017780000000  0.5357560000000 1.0
C      1  0.4590700000000  0.5010860000000  0.4460980000000 1.0
C      1  0.5268230000000  0.4960640000000  0.5447340000000 1.0
C      1  0.5100620000000  0.4624120000000  0.5004090000000 1.0
C      1  0.5047560000000  0.5364040000000  0.4467260000000 1.0
C      1  0.4612800000000  0.4991290000000  0.5137960000000 1.0
C      1  0.4622170000000  0.4501750000000  0.4989230000000 1.0
C      1  0.5165350000000  0.5409720000000  0.4977560000000 1.0
C      1  0.4711240000000  0.5482210000000  0.5021360000000 1.0
C      1  0.4930440000000  0.5265120000000  0.5419550000000 1.0
C      1  0.4988280000000  0.4821450000000  0.5403050000000 1.0
C      1  0.4784000000000  0.4833860000000  0.4652620000000 1.0
C      1  0.5417000000000  0.5084220000000  0.4716220000000 1.0
C      1  0.4449990000000  0.5185640000000  0.4695230000000 1.0
C      1  0.5345230000000  0.4980890000000  0.5167660000000 1.0
C      1  0.5513250000000  0.5870840000000  0.4884730000000 1.0
C      1  0.5901640000000  0.4721660000000  0.5357800000000 1.0
C      1  0.4863140000000  0.5527050000000  0.5900130000000 1.0
C      1  0.4502940000000  0.5785090000000  0.5326370000000 1.0
C      1  0.4580550000000  0.4192710000000  0.4613620000000 1.0
C      1  0.5355580000000  0.4095120000000  0.5312300000000 1.0
C      1  0.4006310000000  0.4621280000000  0.4352280000000 1.0
C      1  0.4254090000000  0.5090060000000  0.5582070000000 1.0
C      1  0.5772150000000  0.5352260000000  0.4566930000000 1.0
C      1  0.5331590000000  0.5419510000000  0.4047550000000 1.0
C      1  0.5333920000000  0.4610330000000  0.5921110000000 1.0
C      1  0.4890350000000  0.4511530000000  0.4190460000000 1.0
C      1  0.4730970000000  0.5892220000000  0.5427340000000 1.0
C      1  0.5534960000000  0.4759300000000  0.5816210000000 1.0
C      1  0.5802160000000  0.5468580000000  0.4813830000000 1.0
C      1  0.5458030000000  0.5874910000000  0.4621290000000 1.0
C      1  0.4838490000000  0.4173860000000  0.4531520000000 1.0
C      1  0.5221130000000  0.4179310000000  0.5533810000000 1.0
C      1  0.4648170000000  0.4625250000000  0.4159520000000 1.0
C      1  0.5462730000000  0.5182830000000  0.4021120000000 1.0
C      1  0.4722380000000  0.5302400000000  0.5959630000000 1.0
C      1  0.4179950000000  0.5239140000000  0.5370530000000 1.0
C      1  0.5791610000000  0.4510480000000  0.5226810000000 1.0
C      1  0.4007170000000  0.4479910000000  0.4580780000000 1.0
C      1  0.4213980000000  0.5216020000000  0.4872240000000 1.0
C      1  0.5780540000000  0.5165610000000  0.5188110000000 1.0
C      1  0.5583810000000  0.4844790000000  0.4816880000000 1.0
C      1  0.4199970000000  0.4728200000000  0.4958990000000 1.0
C      1  0.4923810000000  0.4865210000000  0.5879540000000 1.0
C      1  0.4830290000000  0.5192680000000  0.4304420000000 1.0
C      1  0.5180560000000  0.4202310000000  0.4861620000000 1.0
C      1  0.4786200000000  0.4333480000000  0.5181630000000 1.0
C      1  0.5188160000000  0.5820410000000  0.5246050000000 1.0
C      1  0.4844080000000  0.5705220000000  0.4851890000000 1.0
C      1  0.5243010000000  0.4816090000000  0.4268770000000 1.0
C      1  0.5154480000000  0.5201770000000  0.5595220000000 1.0
C      1  0.5811330000000  0.4977270000000  0.4949110000000 1.0
C      1  0.5118520000000  0.5090400000000  0.5857760000000 1.0
C      1  0.4995390000000  0.5893890000000  0.5018560000000 1.0
C      1  0.4069630000000  0.4971600000000  0.4901440000000 1.0
C      1  0.5009000000000  0.4986730000000  0.4171230000000 1.0
C      1  0.4938690000000  0.4134790000000  0.5029610000000 1.0
C      1  0.4920940000000  0.5057360000000  0.4773500000000 1.0
END
