TITL C-3201378-2706-2271 297658.405421695 125000 -371.200428928574 0 0 61 (C1) n - 1
REM
REM in /home/nfs/bkarasulu/CARBON/AIRSS/Generating-Clusters/LCBOP/Higher-Symm/SD-CG/FIRE-CG
REM
REM
REM
REM
REM
REM ./C.cell (b20cbc046b6831c77cfcea5457e17084)
REM AIRSS Version 0.9.1 bugfix July 2018 build 013d7b7c2542+ Fri, 06 Jul 2018 19:26:36 +0100
REM compiler GCC version 9.2.1 20190827 (Red Hat 9.2.1-1)
REM options -cpp -mtune=generic -march=x86-64 -g -O0 -fpre-include=/usr/include/finclude/math-vector-fortran.h
REM seed -393947874 603803434 -1835005973 -897575107 -1852379570 412212597 -554727186 351946602 1483076411 -540498967 -843539558 448675589 1037105004 -443842853 289100288 189130715 -202710878 1573749605 1442415702 1240942659 -1435003948 1483378706 23397239 1004017052 1267690037 -1045726254 364540457 772798482 -1749720911 421801803 2007782129 858041073 -70123452
REM
CELL 1.54180   50.00000   50.00000   50.00000   90.00000   90.00000   90.00000
LATT -1
SFAC C  
C      1  0.5307480000000  0.5625720000000  0.4299400000000 1.0
C      1  0.5275690000000  0.5634930000000  0.5709860000000 1.0
C      1  0.4708320000000  0.4631800000000  0.4851810000000 1.0
C      1  0.4713290000000  0.4640330000000  0.5145650000000 1.0
C      1  0.6004400000000  0.4621230000000  0.5134260000000 1.0
C      1  0.6003250000000  0.4616680000000  0.4863680000000 1.0
C      1  0.4524920000000  0.5460780000000  0.5018640000000 1.0
C      1  0.4649650000000  0.5397030000000  0.4774080000000 1.0
C      1  0.5057240000000  0.5714330000000  0.4324340000000 1.0
C      1  0.5029780000000  0.5722070000000  0.5763080000000 1.0
C      1  0.5609840000000  0.4898980000000  0.5147180000000 1.0
C      1  0.5608920000000  0.4894170000000  0.4846500000000 1.0
C      1  0.4594670000000  0.4880250000000  0.4725060000000 1.0
C      1  0.4609470000000  0.4896710000000  0.5258970000000 1.0
C      1  0.5049190000000  0.5022810000000  0.5833480000000 1.0
C      1  0.5037040000000  0.4996830000000  0.4169920000000 1.0
C      1  0.4076040000000  0.5359540000000  0.4871600000000 1.0
C      1  0.4253750000000  0.5405960000000  0.5089040000000 1.0
C      1  0.5667280000000  0.4531490000000  0.5475720000000 1.0
C      1  0.5664310000000  0.4520270000000  0.4524960000000 1.0
C      1  0.5307520000000  0.5264220000000  0.4857260000000 1.0
C      1  0.5307710000000  0.5268200000000  0.5125020000000 1.0
C      1  0.5458140000000  0.4516790000000  0.5660300000000 1.0
C      1  0.5453190000000  0.4498330000000  0.4343180000000 1.0
C      1  0.5439510000000  0.5434580000000  0.5644620000000 1.0
C      1  0.5462640000000  0.5410420000000  0.4330810000000 1.0
C      1  0.5457780000000  0.5088440000000  0.4694110000000 1.0
C      1  0.5458790000000  0.5098310000000  0.5293990000000 1.0
C      1  0.4322200000000  0.4949250000000  0.5155960000000 1.0
C      1  0.4309260000000  0.4936590000000  0.4851600000000 1.0
C      1  0.4745060000000  0.5131560000000  0.5118050000000 1.0
C      1  0.4745930000000  0.5126550000000  0.4835620000000 1.0
C      1  0.5424910000000  0.4717500000000  0.4169750000000 1.0
C      1  0.5435250000000  0.4740840000000  0.5828010000000 1.0
C      1  0.4799870000000  0.4975350000000  0.5754120000000 1.0
C      1  0.4786740000000  0.4933990000000  0.4235440000000 1.0
C      1  0.5225720000000  0.4369960000000  0.5606630000000 1.0
C      1  0.5223260000000  0.4349800000000  0.4402740000000 1.0
C      1  0.4205890000000  0.5209220000000  0.4440740000000 1.0
C      1  0.4210570000000  0.5264030000000  0.5550510000000 1.0
C      1  0.5770700000000  0.4695550000000  0.5275300000000 1.0
C      1  0.5768690000000  0.4687470000000  0.4722320000000 1.0
C      1  0.5318380000000  0.4986750000000  0.5764100000000 1.0
C      1  0.5308750000000  0.4964850000000  0.4231320000000 1.0
C      1  0.4806300000000  0.5662680000000  0.4396570000000 1.0
C      1  0.4767510000000  0.5697530000000  0.5800390000000 1.0
C      1  0.5437260000000  0.5161640000000  0.5572620000000 1.0
C      1  0.5438600000000  0.5141810000000  0.4413360000000 1.0
C      1  0.4641270000000  0.4912480000000  0.5550220000000 1.0
C      1  0.4616610000000  0.4871100000000  0.4431260000000 1.0
C      1  0.4223090000000  0.5194050000000  0.5281100000000 1.0
C      1  0.4145210000000  0.5134800000000  0.4707060000000 1.0
C      1  0.4614880000000  0.5496010000000  0.4512100000000 1.0
C      1  0.4526090000000  0.5585820000000  0.5803110000000 1.0
C      1  0.4842000000000  0.4391030000000  0.4762260000000 1.0
C      1  0.4846050000000  0.4402890000000  0.5244530000000 1.0
C      1  0.4991440000000  0.4341620000000  0.4534000000000 1.0
C      1  0.4994250000000  0.4360460000000  0.5474900000000 1.0
C      1  0.4395570000000  0.5388620000000  0.4368410000000 1.0
C      1  0.4328350000000  0.5423420000000  0.5729430000000 1.0
C      1  0.4889420000000  0.4242610000000  0.5006840000000 1.0
END
