TITL C-3201374-830-299 -8.42262044818047e-07 125000 -1204.69051404425 0 0 195 (C1) n - 1
REM
REM in /home/nfs/bkarasulu/CARBON/AIRSS/Generating-Clusters/LCBOP/Higher-Symm/SD-CG/FIRE-CG
REM
REM
REM
REM
REM
REM ./C.cell (b20cbc046b6831c77cfcea5457e17084)
REM AIRSS Version 0.9.1 bugfix July 2018 build 013d7b7c2542+ Fri, 06 Jul 2018 19:26:36 +0100
REM compiler GCC version 9.2.1 20190827 (Red Hat 9.2.1-1)
REM options -cpp -mtune=generic -march=x86-64 -g -O0 -fpre-include=/usr/include/finclude/math-vector-fortran.h
REM seed 200096839 1652980909 1070549022 -1013087077 -1435362033 657348632 -692028884 -828197500 -1166305489 -77026824 -1124281135 -1542221572 1197359970 785854963 -474296914 421499014 -110654037 -696482015 -176616821 594891155 -1196932056 81836927 1310818370 -1979514755 64868354 631344568 -632537428 578354768 -959242751 -437611228 -1530723154 431491932 -231758770
REM
CELL 1.54180   50.00000   50.00000   50.00000   90.00000   90.00000   90.00000
LATT -1
SFAC C  
C      1  0.4567310000000  0.4511860000000  0.4660940000000 1.0
C      1  0.5346850000000  0.4404230000000  0.4613670000000 1.0
C      1  0.5725070000000  0.5154550000000  0.4623400000000 1.0
C      1  0.5086550000000  0.5673170000000  0.4607910000000 1.0
C      1  0.4435860000000  0.5270080000000  0.4607050000000 1.0
C      1  0.4862800000000  0.5576690000000  0.4742040000000 1.0
C      1  0.4525320000000  0.5143160000000  0.4830820000000 1.0
C      1  0.4702330000000  0.4565110000000  0.4886660000000 1.0
C      1  0.5524110000000  0.4563850000000  0.4768140000000 1.0
C      1  0.5612590000000  0.5365220000000  0.4768760000000 1.0
C      1  0.4856830000000  0.4948460000000  0.5052860000000 1.0
C      1  0.5069430000000  0.4754150000000  0.5045480000000 1.0
C      1  0.5309290000000  0.4904540000000  0.4991570000000 1.0
C      1  0.5240980000000  0.5186060000000  0.4968790000000 1.0
C      1  0.4958010000000  0.5207970000000  0.4988840000000 1.0
C      1  0.4185910000000  0.4520270000000  0.5422150000000 1.0
C      1  0.5204670000000  0.4045150000000  0.5448320000000 1.0
C      1  0.5987550000000  0.4889890000000  0.5459310000000 1.0
C      1  0.5388090000000  0.5885490000000  0.5446590000000 1.0
C      1  0.4302730000000  0.5617800000000  0.5364540000000 1.0
C      1  0.4652460000000  0.5174310000000  0.3615120000000 1.0
C      1  0.4499790000000  0.5406440000000  0.3595100000000 1.0
C      1  0.4275350000000  0.5380550000000  0.3760350000000 1.0
C      1  0.4278900000000  0.5118900000000  0.3896650000000 1.0
C      1  0.4526260000000  0.4998810000000  0.3792610000000 1.0
C      1  0.3706070000000  0.5126970000000  0.4960490000000 1.0
C      1  0.4440480000000  0.3830460000000  0.5020940000000 1.0
C      1  0.5959820000000  0.4092140000000  0.5054960000000 1.0
C      1  0.6173940000000  0.5652200000000  0.5072140000000 1.0
C      1  0.4712020000000  0.6270130000000  0.5011550000000 1.0
C      1  0.4580450000000  0.5556770000000  0.4241330000000 1.0
C      1  0.4414840000000  0.4663590000000  0.4233590000000 1.0
C      1  0.4897400000000  0.4390520000000  0.4337530000000 1.0
C      1  0.5739790000000  0.4808770000000  0.4283080000000 1.0
C      1  0.5443930000000  0.5622500000000  0.4278080000000 1.0
C      1  0.5871670000000  0.4560330000000  0.4282870000000 1.0
C      1  0.5716700000000  0.5691040000000  0.4287540000000 1.0
C      1  0.4593680000000  0.5837430000000  0.4228700000000 1.0
C      1  0.4148600000000  0.4763540000000  0.4229110000000 1.0
C      1  0.4807440000000  0.4128870000000  0.4277600000000 1.0
C      1  0.3738970000000  0.5036770000000  0.4680970000000 1.0
C      1  0.4503350000000  0.3822810000000  0.4735300000000 1.0
C      1  0.5995960000000  0.4149190000000  0.4770370000000 1.0
C      1  0.6137430000000  0.5707660000000  0.4785960000000 1.0
C      1  0.4669490000000  0.6255360000000  0.4718690000000 1.0
C      1  0.4044770000000  0.5547180000000  0.5451380000000 1.0
C      1  0.4184730000000  0.4256100000000  0.5522190000000 1.0
C      1  0.5458220000000  0.3968950000000  0.5545780000000 1.0
C      1  0.6126310000000  0.5117320000000  0.5552590000000 1.0
C      1  0.5199920000000  0.6083620000000  0.5519770000000 1.0
C      1  0.5376580000000  0.5707530000000  0.4963380000000 1.0
C      1  0.4416710000000  0.5592800000000  0.4921340000000 1.0
C      1  0.4265570000000  0.4721740000000  0.4894640000000 1.0
C      1  0.5074190000000  0.4240040000000  0.4932280000000 1.0
C      1  0.5832740000000  0.4855120000000  0.4960420000000 1.0
C      1  0.4842930000000  0.5153850000000  0.4356600000000 1.0
C      1  0.4851310000000  0.4864890000000  0.4378960000000 1.0
C      1  0.5137880000000  0.4786040000000  0.4389100000000 1.0
C      1  0.5306730000000  0.5020960000000  0.4379610000000 1.0
C      1  0.5124160000000  0.5252830000000  0.4359060000000 1.0
C      1  0.5757620000000  0.4061050000000  0.4630080000000 1.0
C      1  0.6169030000000  0.5458160000000  0.4640480000000 1.0
C      1  0.4925830000000  0.6198640000000  0.4593540000000 1.0
C      1  0.3878360000000  0.5242580000000  0.4531960000000 1.0
C      1  0.4328790000000  0.4011220000000  0.4599820000000 1.0
C      1  0.5855760000000  0.5995220000000  0.5184720000000 1.0
C      1  0.4302560000000  0.6033650000000  0.5072810000000 1.0
C      1  0.3757390000000  0.4675090000000  0.5108900000000 1.0
C      1  0.4894100000000  0.3720110000000  0.5133880000000 1.0
C      1  0.6214910000000  0.4482220000000  0.5173490000000 1.0
C      1  0.4244020000000  0.4042000000000  0.5057030000000 1.0
C      1  0.5693870000000  0.3978650000000  0.5084960000000 1.0
C      1  0.6211850000000  0.5365230000000  0.5097600000000 1.0
C      1  0.4994590000000  0.6219550000000  0.5054740000000 1.0
C      1  0.3841570000000  0.5383760000000  0.4986330000000 1.0
C      1  0.4421300000000  0.6155920000000  0.4615430000000 1.0
C      1  0.3774550000000  0.4759250000000  0.4621880000000 1.0
C      1  0.4772620000000  0.3769280000000  0.4655240000000 1.0
C      1  0.6152910000000  0.4374460000000  0.4691290000000 1.0
C      1  0.5957020000000  0.5914090000000  0.4704750000000 1.0
C      1  0.4977800000000  0.4751430000000  0.6101790000000 1.0
C      1  0.5232680000000  0.4900820000000  0.6099980000000 1.0
C      1  0.5167350000000  0.5188400000000  0.6093780000000 1.0
C      1  0.4873750000000  0.5217020000000  0.6093000000000 1.0
C      1  0.4753770000000  0.4946510000000  0.6097690000000 1.0
C      1  0.5159640000000  0.4501950000000  0.4422240000000 1.0
C      1  0.5591040000000  0.5009760000000  0.4416010000000 1.0
C      1  0.5208700000000  0.5522830000000  0.4397970000000 1.0
C      1  0.4607200000000  0.5313170000000  0.4382130000000 1.0
C      1  0.4669570000000  0.4611780000000  0.4388330000000 1.0
C      1  0.5830600000000  0.5415890000000  0.5823660000000 1.0
C      1  0.4819960000000  0.5893570000000  0.5776160000000 1.0
C      1  0.4087860000000  0.5142700000000  0.5750730000000 1.0
C      1  0.4584720000000  0.4170670000000  0.5806150000000 1.0
C      1  0.5661630000000  0.4332790000000  0.5824620000000 1.0
C      1  0.4962470000000  0.4546100000000  0.5911410000000 1.0
C      1  0.5421490000000  0.4813160000000  0.5910930000000 1.0
C      1  0.5305130000000  0.5334650000000  0.5898570000000 1.0
C      1  0.4774790000000  0.5384270000000  0.5891890000000 1.0
C      1  0.4559820000000  0.4903840000000  0.5898750000000 1.0
C      1  0.4773730000000  0.5513650000000  0.5276230000000 1.0
C      1  0.4460730000000  0.4926130000000  0.5294000000000 1.0
C      1  0.4893800000000  0.4421350000000  0.5330880000000 1.0
C      1  0.5544180000000  0.4680390000000  0.5322560000000 1.0
C      1  0.5472600000000  0.5394280000000  0.5315200000000 1.0
C      1  0.4950610000000  0.6141000000000  0.4321370000000 1.0
C      1  0.3959950000000  0.5206440000000  0.4267120000000 1.0
C      1  0.4340800000000  0.4049080000000  0.4323070000000 1.0
C      1  0.5723870000000  0.4109990000000  0.4356650000000 1.0
C      1  0.6118720000000  0.5441370000000  0.4365900000000 1.0
C      1  0.4880770000000  0.3906370000000  0.4434940000000 1.0
C      1  0.6090330000000  0.4512620000000  0.4455220000000 1.0
C      1  0.5810980000000  0.5888240000000  0.4466470000000 1.0
C      1  0.4420280000000  0.6000470000000  0.4381120000000 1.0
C      1  0.3945540000000  0.4680760000000  0.4411650000000 1.0
C      1  0.4622510000000  0.3743870000000  0.5220940000000 1.0
C      1  0.6098010000000  0.4234870000000  0.5257960000000 1.0
C      1  0.6063180000000  0.5819020000000  0.5273470000000 1.0
C      1  0.4506110000000  0.6194670000000  0.5194240000000 1.0
C      1  0.3680980000000  0.4942610000000  0.5175470000000 1.0
C      1  0.4553020000000  0.4905560000000  0.5004470000000 1.0
C      1  0.4935070000000  0.4484110000000  0.5038840000000 1.0
C      1  0.5558900000000  0.4736750000000  0.5013930000000 1.0
C      1  0.5440550000000  0.5410170000000  0.5006640000000 1.0
C      1  0.4749280000000  0.5435150000000  0.4973050000000 1.0
C      1  0.5269030000000  0.5004120000000  0.5602180000000 1.0
C      1  0.5080880000000  0.5231150000000  0.5594330000000 1.0
C      1  0.4805870000000  0.5124360000000  0.5603220000000 1.0
C      1  0.4820810000000  0.4832670000000  0.5613060000000 1.0
C      1  0.5107920000000  0.4755940000000  0.5611170000000 1.0
C      1  0.5302130000000  0.4169060000000  0.4780750000000 1.0
C      1  0.5938390000000  0.5049950000000  0.4788320000000 1.0
C      1  0.5228020000000  0.5856150000000  0.4777190000000 1.0
C      1  0.4265080000000  0.5475320000000  0.4717510000000 1.0
C      1  0.4297020000000  0.4474990000000  0.4758380000000 1.0
C      1  0.4324570000000  0.5757770000000  0.5121300000000 1.0
C      1  0.3956940000000  0.4575850000000  0.5273950000000 1.0
C      1  0.5077840000000  0.3847770000000  0.5297700000000 1.0
C      1  0.6148980000000  0.4700620000000  0.5332210000000 1.0
C      1  0.5623370000000  0.5986980000000  0.5336280000000 1.0
C      1  0.6294150000000  0.4495540000000  0.4903800000000 1.0
C      1  0.5869100000000  0.6078440000000  0.4916540000000 1.0
C      1  0.4223290000000  0.6119450000000  0.4814650000000 1.0
C      1  0.3716510000000  0.4592270000000  0.4842600000000 1.0
C      1  0.4933760000000  0.3663540000000  0.4861260000000 1.0
C      1  0.5916080000000  0.5674840000000  0.5752760000000 1.0
C      1  0.4591810000000  0.6031390000000  0.5685510000000 1.0
C      1  0.3869520000000  0.4986290000000  0.5662150000000 1.0
C      1  0.4661000000000  0.3914560000000  0.5714990000000 1.0
C      1  0.5932160000000  0.4325230000000  0.5745430000000 1.0
C      1  0.5542500000000  0.4019720000000  0.4832370000000 1.0
C      1  0.6148240000000  0.5238620000000  0.4838680000000 1.0
C      1  0.5109870000000  0.6113350000000  0.4806900000000 1.0
C      1  0.3986950000000  0.5426160000000  0.4732090000000 1.0
C      1  0.4227130000000  0.4200520000000  0.4804340000000 1.0
C      1  0.4305950000000  0.4212200000000  0.5770810000000 1.0
C      1  0.5537450000000  0.4079290000000  0.5791320000000 1.0
C      1  0.6039500000000  0.5226040000000  0.5795990000000 1.0
C      1  0.5056440000000  0.6047720000000  0.5757370000000 1.0
C      1  0.4036810000000  0.5419160000000  0.5702410000000 1.0
C      1  0.4139930000000  0.4071180000000  0.5315500000000 1.0
C      1  0.5625520000000  0.3881540000000  0.5338150000000 1.0
C      1  0.6260840000000  0.5255720000000  0.5349210000000 1.0
C      1  0.5109100000000  0.6241120000000  0.5306850000000 1.0
C      1  0.3863250000000  0.5507220000000  0.5237760000000 1.0
C      1  0.5325880000000  0.4551110000000  0.5525210000000 1.0
C      1  0.5530040000000  0.5148710000000  0.5518300000000 1.0
C      1  0.5019420000000  0.5517700000000  0.5492080000000 1.0
C      1  0.4519410000000  0.5156800000000  0.5497340000000 1.0
C      1  0.4696280000000  0.4565400000000  0.5522570000000 1.0
C      1  0.4523480000000  0.6181300000000  0.5473710000000 1.0
C      1  0.3699650000000  0.4995840000000  0.5452250000000 1.0
C      1  0.4595260000000  0.3765010000000  0.5500540000000 1.0
C      1  0.6061660000000  0.4215850000000  0.5536240000000 1.0
C      1  0.6063720000000  0.5774710000000  0.5551130000000 1.0
C      1  0.4518800000000  0.5440340000000  0.5405640000000 1.0
C      1  0.4431100000000  0.4661110000000  0.5414580000000 1.0
C      1  0.5144790000000  0.4321320000000  0.5443300000000 1.0
C      1  0.5703090000000  0.4906400000000  0.5443110000000 1.0
C      1  0.5301480000000  0.5613830000000  0.5428240000000 1.0
C      1  0.5566070000000  0.5317750000000  0.5782370000000 1.0
C      1  0.4855390000000  0.5613560000000  0.5752450000000 1.0
C      1  0.4364370000000  0.5058890000000  0.5750510000000 1.0
C      1  0.4747970000000  0.4404420000000  0.5783100000000 1.0
C      1  0.5492450000000  0.4560930000000  0.5789640000000 1.0
C      1  0.4062860000000  0.5005910000000  0.4063790000000 1.0
C      1  0.4554410000000  0.4099510000000  0.4144880000000 1.0
C      1  0.5750070000000  0.4324670000000  0.4174550000000 1.0
C      1  0.5919790000000  0.5519460000000  0.4180760000000 1.0
C      1  0.4827880000000  0.5970830000000  0.4132320000000 1.0
C      1  0.4525280000000  0.4114940000000  0.3874600000000 1.0
C      1  0.5666570000000  0.4308650000000  0.3915550000000 1.0
C      1  0.5921560000000  0.5438810000000  0.3920360000000 1.0
C      1  0.4922940000000  0.5937330000000  0.3879170000000 1.0
C      1  0.3831600000000  0.4922060000000  0.3883040000000 1.0
END
