TITL C-3201373-1215-895 0.126494072805958 125000 -750.019522408513 0 0 123 (C1) n - 1
REM
REM in /home/nfs/bkarasulu/CARBON/AIRSS/Generating-Clusters/LCBOP/Higher-Symm/SD-CG/FIRE-CG
REM
REM
REM
REM
REM
REM ./C.cell (b20cbc046b6831c77cfcea5457e17084)
REM AIRSS Version 0.9.1 bugfix July 2018 build 013d7b7c2542+ Fri, 06 Jul 2018 19:26:36 +0100
REM compiler GCC version 9.2.1 20190827 (Red Hat 9.2.1-1)
REM options -cpp -mtune=generic -march=x86-64 -g -O0 -fpre-include=/usr/include/finclude/math-vector-fortran.h
REM seed 1028863551 -1743726286 -968935901 -2058834868 1616116800 27188081 -413345083 2015887587 1033636766 1149391326 552653532 -470850427 -1139275975 -279249928 1818210991 -50621853 -324086901 -1080743482 1033417927 1968146988 -671840339 599297333 -1364991949 415219929 -1402060618 456278343 -1600907074 70204890 -1485555212 610254785 -1053349810 -671214082 -1219816481
REM
CELL 1.54180   50.00000   50.00000   50.00000   90.00000   90.00000   90.00000
LATT -1
SFAC C  
C      1  0.5671270000000  0.4465260000000  0.4461650000000 1.0
C      1  0.4110400000000  0.4612110000000  0.4380980000000 1.0
C      1  0.5144220000000  0.5880700000000  0.4410900000000 1.0
C      1  0.5267030000000  0.4277410000000  0.6194870000000 1.0
C      1  0.4451670000000  0.5080190000000  0.6283670000000 1.0
C      1  0.5407990000000  0.5465120000000  0.6337180000000 1.0
C      1  0.4887510000000  0.5414090000000  0.4745520000000 1.0
C      1  0.5398170000000  0.5068920000000  0.5030670000000 1.0
C      1  0.4695340000000  0.4828430000000  0.4930830000000 1.0
C      1  0.4258970000000  0.4049680000000  0.5750050000000 1.0
C      1  0.4373490000000  0.6080070000000  0.5796300000000 1.0
C      1  0.6253440000000  0.4920490000000  0.5877330000000 1.0
C      1  0.5225310000000  0.5343440000000  0.5694250000000 1.0
C      1  0.5113240000000  0.4670740000000  0.5630530000000 1.0
C      1  0.4786270000000  0.5088540000000  0.5667270000000 1.0
C      1  0.4784160000000  0.5762240000000  0.5815890000000 1.0
C      1  0.5761270000000  0.4767610000000  0.5846020000000 1.0
C      1  0.4496340000000  0.4505410000000  0.5821020000000 1.0
C      1  0.5706160000000  0.5344180000000  0.5796860000000 1.0
C      1  0.4939090000000  0.4200280000000  0.5667300000000 1.0
C      1  0.4376720000000  0.5378430000000  0.5734210000000 1.0
C      1  0.4450820000000  0.4998930000000  0.6026440000000 1.0
C      1  0.5389480000000  0.5572460000000  0.6089880000000 1.0
C      1  0.5321170000000  0.4337130000000  0.5936960000000 1.0
C      1  0.5741740000000  0.5531570000000  0.4569570000000 1.0
C      1  0.5041250000000  0.4221640000000  0.4605790000000 1.0
C      1  0.4259540000000  0.5239450000000  0.4627260000000 1.0
C      1  0.4428200000000  0.4390460000000  0.5163820000000 1.0
C      1  0.4614340000000  0.5829600000000  0.5187420000000 1.0
C      1  0.5950870000000  0.4933880000000  0.5206210000000 1.0
C      1  0.5986540000000  0.4956230000000  0.5899780000000 1.0
C      1  0.4472540000000  0.4207290000000  0.5799570000000 1.0
C      1  0.4495280000000  0.5841750000000  0.5832110000000 1.0
C      1  0.5778130000000  0.5268290000000  0.5532020000000 1.0
C      1  0.4824380000000  0.4226350000000  0.5407490000000 1.0
C      1  0.4389840000000  0.5474660000000  0.5464320000000 1.0
C      1  0.4724650000000  0.4569380000000  0.4829670000000 1.0
C      1  0.4639000000000  0.5487200000000  0.4852290000000 1.0
C      1  0.5638980000000  0.5168390000000  0.4917940000000 1.0
C      1  0.5517450000000  0.5224120000000  0.6391450000000 1.0
C      1  0.5015520000000  0.4256650000000  0.6291810000000 1.0
C      1  0.4510410000000  0.5332940000000  0.6358450000000 1.0
C      1  0.5359210000000  0.5892730000000  0.4598880000000 1.0
C      1  0.5543410000000  0.4327000000000  0.4675240000000 1.0
C      1  0.4034530000000  0.4770920000000  0.4602410000000 1.0
C      1  0.4479430000000  0.4742190000000  0.3867480000000 1.0
C      1  0.5001550000000  0.5478900000000  0.3909200000000 1.0
C      1  0.5400400000000  0.4718590000000  0.3933070000000 1.0
C      1  0.5805780000000  0.4909620000000  0.4247290000000 1.0
C      1  0.4479980000000  0.4316010000000  0.4193610000000 1.0
C      1  0.4680890000000  0.5723340000000  0.4249140000000 1.0
C      1  0.4628760000000  0.4429980000000  0.5361780000000 1.0
C      1  0.4621940000000  0.5621390000000  0.5383010000000 1.0
C      1  0.5783400000000  0.5004030000000  0.5425340000000 1.0
C      1  0.5833610000000  0.5186960000000  0.6004730000000 1.0
C      1  0.4749530000000  0.4133860000000  0.5878580000000 1.0
C      1  0.4384820000000  0.5587420000000  0.5939040000000 1.0
C      1  0.4817070000000  0.5650070000000  0.6084640000000 1.0
C      1  0.5607770000000  0.4799220000000  0.6093890000000 1.0
C      1  0.4624610000000  0.4523280000000  0.6084680000000 1.0
C      1  0.4951110000000  0.4706640000000  0.3714450000000 1.0
C      1  0.4737300000000  0.5127750000000  0.3669190000000 1.0
C      1  0.5211270000000  0.5100910000000  0.3686940000000 1.0
C      1  0.5414460000000  0.5198440000000  0.4486030000000 1.0
C      1  0.4996310000000  0.4624910000000  0.4401130000000 1.0
C      1  0.4684360000000  0.5097820000000  0.4169270000000 1.0
C      1  0.5208830000000  0.4825010000000  0.3755450000000 1.0
C      1  0.4701170000000  0.4847990000000  0.3722810000000 1.0
C      1  0.4981970000000  0.5266410000000  0.3725200000000 1.0
C      1  0.5808590000000  0.4721060000000  0.4472990000000 1.0
C      1  0.4297610000000  0.4392880000000  0.4406660000000 1.0
C      1  0.4851860000000  0.5866820000000  0.4445330000000 1.0
C      1  0.6196380000000  0.4820800000000  0.5247840000000 1.0
C      1  0.4165760000000  0.4356390000000  0.5232950000000 1.0
C      1  0.4595810000000  0.6092370000000  0.5261650000000 1.0
C      1  0.5920860000000  0.5422680000000  0.4373630000000 1.0
C      1  0.4976720000000  0.4182710000000  0.4314640000000 1.0
C      1  0.4323970000000  0.5326790000000  0.4358720000000 1.0
C      1  0.5263980000000  0.4974240000000  0.4578860000000 1.0
C      1  0.5057880000000  0.4891500000000  0.4409750000000 1.0
C      1  0.4896610000000  0.5104700000000  0.4338310000000 1.0
C      1  0.4919560000000  0.4487530000000  0.4647280000000 1.0
C      1  0.4449320000000  0.5277370000000  0.4841000000000 1.0
C      1  0.5596220000000  0.5312810000000  0.4677030000000 1.0
C      1  0.5652900000000  0.5061910000000  0.6208840000000 1.0
C      1  0.4785120000000  0.4285430000000  0.6135900000000 1.0
C      1  0.4563820000000  0.5538430000000  0.6176880000000 1.0
C      1  0.5442230000000  0.5445550000000  0.5842520000000 1.0
C      1  0.5137980000000  0.4398140000000  0.5730350000000 1.0
C      1  0.4523790000000  0.5135860000000  0.5790310000000 1.0
C      1  0.5094070000000  0.4432440000000  0.4204060000000 1.0
C      1  0.4405720000000  0.5123660000000  0.4166440000000 1.0
C      1  0.5362280000000  0.5324880000000  0.4234040000000 1.0
C      1  0.5904800000000  0.4818300000000  0.4721210000000 1.0
C      1  0.4355940000000  0.4307510000000  0.4670250000000 1.0
C      1  0.4730550000000  0.5923070000000  0.4699140000000 1.0
C      1  0.5607980000000  0.5780010000000  0.4603550000000 1.0
C      1  0.5305980000000  0.4198430000000  0.4705630000000 1.0
C      1  0.4072730000000  0.5030290000000  0.4662440000000 1.0
C      1  0.4505440000000  0.4397290000000  0.4890400000000 1.0
C      1  0.4630530000000  0.5762230000000  0.4912850000000 1.0
C      1  0.5857600000000  0.4986320000000  0.4943190000000 1.0
C      1  0.5639600000000  0.4813170000000  0.5588760000000 1.0
C      1  0.4621300000000  0.4620150000000  0.5584190000000 1.0
C      1  0.4830040000000  0.5592990000000  0.5583550000000 1.0
C      1  0.5344540000000  0.4478910000000  0.4079290000000 1.0
C      1  0.4290350000000  0.4906090000000  0.4018330000000 1.0
C      1  0.5235360000000  0.5519950000000  0.4070480000000 1.0
C      1  0.4439170000000  0.5587160000000  0.4322360000000 1.0
C      1  0.5927860000000  0.5168900000000  0.4271280000000 1.0
C      1  0.4704040000000  0.4144150000000  0.4240920000000 1.0
C      1  0.5245470000000  0.5787080000000  0.4162260000000 1.0
C      1  0.5574940000000  0.4377220000000  0.4209240000000 1.0
C      1  0.4085360000000  0.4751890000000  0.4135840000000 1.0
C      1  0.4951830000000  0.5330430000000  0.5627710000000 1.0
C      1  0.5361570000000  0.4780530000000  0.5554010000000 1.0
C      1  0.4850630000000  0.4805150000000  0.5616460000000 1.0
C      1  0.5632140000000  0.4856500000000  0.4026800000000 1.0
C      1  0.4483990000000  0.4471880000000  0.3956410000000 1.0
C      1  0.4786290000000  0.5642480000000  0.3996450000000 1.0
C      1  0.4539140000000  0.5041100000000  0.4966880000000 1.0
C      1  0.4933530000000  0.5327360000000  0.4500140000000 1.0
C      1  0.5240620000000  0.4933410000000  0.4857990000000 1.0
END
