TITL C-3201378-2706-2238 5.20790382976404e-07 125000 -1177.77010815839 0 0 190 (C1) n - 1
REM
REM in /home/nfs/bkarasulu/CARBON/AIRSS/Generating-Clusters/LCBOP/Higher-Symm/SD-CG/FIRE-CG
REM
REM
REM
REM
REM
REM ./C.cell (b20cbc046b6831c77cfcea5457e17084)
REM AIRSS Version 0.9.1 bugfix July 2018 build 013d7b7c2542+ Fri, 06 Jul 2018 19:26:36 +0100
REM compiler GCC version 9.2.1 20190827 (Red Hat 9.2.1-1)
REM options -cpp -mtune=generic -march=x86-64 -g -O0 -fpre-include=/usr/include/finclude/math-vector-fortran.h
REM seed -786522283 -1534419981 -235218940 879395570 1517531405 1662735449 -564644840 -730341966 -1099381005 684739458 -1962024569 -533948528 -167025591 -1396459765 -180326475 1331154985 -1292998858 -1934218116 -1659263635 -23341760 1928428647 678263528 751134085 -1761026156 1043968563 -1172575315 1012147320 754085677 -1757446010 523980643 581387082 1219961908 1887425674
REM
CELL 1.54180   50.00000   50.00000   50.00000   90.00000   90.00000   90.00000
LATT -1
SFAC C  
C      1  0.3851230000000  0.4127910000000  0.4992170000000 1.0
C      1  0.5024740000000  0.6148900000000  0.5470570000000 1.0
C      1  0.4330430000000  0.4422050000000  0.4703800000000 1.0
C      1  0.4097120000000  0.4824510000000  0.4337190000000 1.0
C      1  0.5721860000000  0.5778930000000  0.4705380000000 1.0
C      1  0.6036960000000  0.4851680000000  0.5145100000000 1.0
C      1  0.4270490000000  0.3839780000000  0.5047290000000 1.0
C      1  0.4402230000000  0.5202720000000  0.4414710000000 1.0
C      1  0.5160190000000  0.4736510000000  0.4287860000000 1.0
C      1  0.5906120000000  0.5618910000000  0.5145750000000 1.0
C      1  0.4857870000000  0.4267960000000  0.4070370000000 1.0
C      1  0.5181970000000  0.4155950000000  0.5169920000000 1.0
C      1  0.4190080000000  0.5541720000000  0.6127230000000 1.0
C      1  0.4395650000000  0.5301400000000  0.5064430000000 1.0
C      1  0.4892160000000  0.4212360000000  0.5902630000000 1.0
C      1  0.3850280000000  0.5193010000000  0.5072600000000 1.0
C      1  0.4720580000000  0.5415650000000  0.5432780000000 1.0
C      1  0.4910340000000  0.4688940000000  0.6113080000000 1.0
C      1  0.5953620000000  0.4267100000000  0.5135000000000 1.0
C      1  0.4131950000000  0.5704910000000  0.4436930000000 1.0
C      1  0.5633270000000  0.5043160000000  0.4714370000000 1.0
C      1  0.4332530000000  0.5291160000000  0.5336410000000 1.0
C      1  0.5237720000000  0.4953700000000  0.4450310000000 1.0
C      1  0.6024230000000  0.4006610000000  0.4591710000000 1.0
C      1  0.5800340000000  0.5612300000000  0.5656270000000 1.0
C      1  0.4785950000000  0.3890170000000  0.4543300000000 1.0
C      1  0.5085930000000  0.5968690000000  0.4332770000000 1.0
C      1  0.4822170000000  0.4858980000000  0.4703080000000 1.0
C      1  0.5839820000000  0.5089910000000  0.4527060000000 1.0
C      1  0.5317600000000  0.3909640000000  0.5041490000000 1.0
C      1  0.4472710000000  0.4888100000000  0.6000220000000 1.0
C      1  0.4034230000000  0.5645230000000  0.5251570000000 1.0
C      1  0.5257270000000  0.5448120000000  0.4847680000000 1.0
C      1  0.4715770000000  0.4292910000000  0.5345160000000 1.0
C      1  0.5422740000000  0.5314370000000  0.5051160000000 1.0
C      1  0.4580420000000  0.4049450000000  0.4393130000000 1.0
C      1  0.3799800000000  0.5660790000000  0.4808330000000 1.0
C      1  0.5305040000000  0.5967030000000  0.5335850000000 1.0
C      1  0.5154190000000  0.4869020000000  0.4017050000000 1.0
C      1  0.4840210000000  0.6203310000000  0.5254500000000 1.0
C      1  0.5618360000000  0.5087770000000  0.4087070000000 1.0
C      1  0.5341210000000  0.4357210000000  0.5019630000000 1.0
C      1  0.4280680000000  0.6160150000000  0.4873830000000 1.0
C      1  0.5413700000000  0.5653240000000  0.4124030000000 1.0
C      1  0.5076020000000  0.6096200000000  0.4813630000000 1.0
C      1  0.5870140000000  0.5086970000000  0.5152980000000 1.0
C      1  0.4672500000000  0.6167960000000  0.4543440000000 1.0
C      1  0.3941080000000  0.4377240000000  0.5367470000000 1.0
C      1  0.4961130000000  0.5737670000000  0.5141460000000 1.0
C      1  0.5602090000000  0.4828220000000  0.5542990000000 1.0
C      1  0.5588080000000  0.5357630000000  0.6021110000000 1.0
C      1  0.4798840000000  0.5468250000000  0.5696700000000 1.0
C      1  0.5618050000000  0.4546640000000  0.5437740000000 1.0
C      1  0.4742180000000  0.5108910000000  0.4831300000000 1.0
C      1  0.4435290000000  0.6216310000000  0.4660690000000 1.0
C      1  0.5264050000000  0.5394510000000  0.4569990000000 1.0
C      1  0.5031180000000  0.5614750000000  0.4880540000000 1.0
C      1  0.5364160000000  0.4914550000000  0.6120490000000 1.0
C      1  0.6224650000000  0.4801350000000  0.5853740000000 1.0
C      1  0.3876530000000  0.5509090000000  0.5026720000000 1.0
C      1  0.5865450000000  0.5209070000000  0.5412010000000 1.0
C      1  0.5835950000000  0.4986190000000  0.5597360000000 1.0
C      1  0.5730490000000  0.5583930000000  0.5928680000000 1.0
C      1  0.3689410000000  0.4025620000000  0.4798860000000 1.0
C      1  0.4979360000000  0.4185090000000  0.5383470000000 1.0
C      1  0.5057140000000  0.4202470000000  0.5666590000000 1.0
C      1  0.4848700000000  0.5717220000000  0.4679920000000 1.0
C      1  0.4830840000000  0.4414200000000  0.6079010000000 1.0
C      1  0.4847520000000  0.5188270000000  0.6061660000000 1.0
C      1  0.4887640000000  0.5189910000000  0.5057280000000 1.0
C      1  0.4089100000000  0.5408970000000  0.5412790000000 1.0
C      1  0.5088380000000  0.5431810000000  0.5726940000000 1.0
C      1  0.5001660000000  0.6070540000000  0.5953360000000 1.0
C      1  0.5354050000000  0.4949400000000  0.5389910000000 1.0
C      1  0.6127430000000  0.4692110000000  0.5374750000000 1.0
C      1  0.4813680000000  0.5162870000000  0.5334300000000 1.0
C      1  0.5591480000000  0.3931700000000  0.5187390000000 1.0
C      1  0.6284590000000  0.4616250000000  0.4514760000000 1.0
C      1  0.4972780000000  0.4742370000000  0.4913680000000 1.0
C      1  0.5845960000000  0.4006770000000  0.5065400000000 1.0
C      1  0.5380420000000  0.4262750000000  0.4741290000000 1.0
C      1  0.5339500000000  0.5249680000000  0.5326320000000 1.0
C      1  0.5791810000000  0.5211920000000  0.4278550000000 1.0
C      1  0.4047490000000  0.3976980000000  0.5147770000000 1.0
C      1  0.5786400000000  0.4470290000000  0.4094820000000 1.0
C      1  0.4228530000000  0.4085280000000  0.5622140000000 1.0
C      1  0.4279840000000  0.5105740000000  0.4650130000000 1.0
C      1  0.6186300000000  0.4431930000000  0.4327630000000 1.0
C      1  0.3843250000000  0.4410540000000  0.5095140000000 1.0
C      1  0.4493850000000  0.4773830000000  0.5030620000000 1.0
C      1  0.5176180000000  0.4732840000000  0.6015780000000 1.0
C      1  0.6003230000000  0.4691790000000  0.4912190000000 1.0
C      1  0.4881480000000  0.5240620000000  0.4260530000000 1.0
C      1  0.4935700000000  0.6031780000000  0.5053160000000 1.0
C      1  0.5113830000000  0.4822440000000  0.5533950000000 1.0
C      1  0.5484450000000  0.5904910000000  0.4594480000000 1.0
C      1  0.4599340000000  0.4715060000000  0.5579080000000 1.0
C      1  0.4666180000000  0.5384550000000  0.5936360000000 1.0
C      1  0.5818340000000  0.4486990000000  0.4994830000000 1.0
C      1  0.4859990000000  0.4211390000000  0.4841860000000 1.0
C      1  0.5485630000000  0.5979030000000  0.5091760000000 1.0
C      1  0.4418680000000  0.4255220000000  0.5710960000000 1.0
C      1  0.4303370000000  0.5344330000000  0.4184550000000 1.0
C      1  0.5660730000000  0.5167350000000  0.4969190000000 1.0
C      1  0.4739550000000  0.4922600000000  0.6098780000000 1.0
C      1  0.3927300000000  0.5005970000000  0.5580540000000 1.0
C      1  0.4781140000000  0.4744300000000  0.5135930000000 1.0
C      1  0.5270560000000  0.3982130000000  0.4729500000000 1.0
C      1  0.4005160000000  0.4556840000000  0.5567130000000 1.0
C      1  0.6106050000000  0.5486350000000  0.4977630000000 1.0
C      1  0.4663340000000  0.5110810000000  0.4386970000000 1.0
C      1  0.5995240000000  0.4228410000000  0.4426120000000 1.0
C      1  0.5356300000000  0.6045530000000  0.4822800000000 1.0
C      1  0.4825800000000  0.4866110000000  0.5419960000000 1.0
C      1  0.4754440000000  0.5286740000000  0.3996390000000 1.0
C      1  0.5862200000000  0.5494950000000  0.5409180000000 1.0
C      1  0.5129240000000  0.5213750000000  0.4405170000000 1.0
C      1  0.5022740000000  0.4523300000000  0.4440970000000 1.0
C      1  0.4215950000000  0.5882240000000  0.5311010000000 1.0
C      1  0.4743790000000  0.3942290000000  0.4826000000000 1.0
C      1  0.4582130000000  0.4666320000000  0.4248770000000 1.0
C      1  0.4055130000000  0.4484340000000  0.4682390000000 1.0
C      1  0.4322980000000  0.4775060000000  0.4149940000000 1.0
C      1  0.4916710000000  0.5999850000000  0.4573550000000 1.0
C      1  0.4883120000000  0.6062640000000  0.5706900000000 1.0
C      1  0.6057020000000  0.4529850000000  0.4085410000000 1.0
C      1  0.4057520000000  0.4112580000000  0.5401890000000 1.0
C      1  0.4544010000000  0.4308590000000  0.5126080000000 1.0
C      1  0.4383310000000  0.4825840000000  0.5738180000000 1.0
C      1  0.3890280000000  0.4915520000000  0.4860750000000 1.0
C      1  0.4565410000000  0.5710330000000  0.4224060000000 1.0
C      1  0.5341000000000  0.5843730000000  0.4339590000000 1.0
C      1  0.4426240000000  0.4502400000000  0.4960820000000 1.0
C      1  0.4534390000000  0.4306050000000  0.4535510000000 1.0
C      1  0.5080480000000  0.4121380000000  0.4222430000000 1.0
C      1  0.4324430000000  0.6101770000000  0.5145660000000 1.0
C      1  0.5526160000000  0.4347660000000  0.4520180000000 1.0
C      1  0.6182930000000  0.5290590000000  0.4802910000000 1.0
C      1  0.4558800000000  0.6238590000000  0.5251370000000 1.0
C      1  0.5729010000000  0.4318440000000  0.4333700000000 1.0
C      1  0.5881420000000  0.5634350000000  0.4523250000000 1.0
C      1  0.5284280000000  0.5413370000000  0.4007410000000 1.0
C      1  0.6073550000000  0.4823820000000  0.5623010000000 1.0
C      1  0.5341550000000  0.5116580000000  0.3995900000000 1.0
C      1  0.4410190000000  0.4927110000000  0.3912840000000 1.0
C      1  0.4425960000000  0.5474510000000  0.6039190000000 1.0
C      1  0.4525500000000  0.3833120000000  0.4963520000000 1.0
C      1  0.5279130000000  0.4374340000000  0.5698020000000 1.0
C      1  0.6362790000000  0.4781710000000  0.6073830000000 1.0
C      1  0.5947280000000  0.3901220000000  0.4825770000000 1.0
C      1  0.6157310000000  0.4789010000000  0.4694750000000 1.0
C      1  0.4376540000000  0.5887130000000  0.5559070000000 1.0
C      1  0.5074120000000  0.3953730000000  0.4477560000000 1.0
C      1  0.4081470000000  0.5512020000000  0.4233020000000 1.0
C      1  0.5551810000000  0.4545700000000  0.5136690000000 1.0
C      1  0.4520710000000  0.5550930000000  0.4986530000000 1.0
C      1  0.5842250000000  0.5495720000000  0.4277600000000 1.0
C      1  0.3894980000000  0.4614430000000  0.4895960000000 1.0
C      1  0.4042090000000  0.4956050000000  0.4603840000000 1.0
C      1  0.5242630000000  0.4815960000000  0.4901600000000 1.0
C      1  0.4776210000000  0.4554600000000  0.4043970000000 1.0
C      1  0.5114720000000  0.5278510000000  0.5969470000000 1.0
C      1  0.5234580000000  0.5465520000000  0.5484990000000 1.0
C      1  0.4702740000000  0.5612760000000  0.5217860000000 1.0
C      1  0.4698740000000  0.4835540000000  0.4451860000000 1.0
C      1  0.4447040000000  0.5060650000000  0.4897080000000 1.0
C      1  0.5800920000000  0.5780000000000  0.6106530000000 1.0
C      1  0.3899350000000  0.5188340000000  0.5372830000000 1.0
C      1  0.5366490000000  0.5189500000000  0.6058890000000 1.0
C      1  0.5569500000000  0.4053160000000  0.5455110000000 1.0
C      1  0.4630010000000  0.4091550000000  0.4116250000000 1.0
C      1  0.4536020000000  0.5474940000000  0.4054150000000 1.0
C      1  0.5696440000000  0.5642220000000  0.4085810000000 1.0
C      1  0.4610150000000  0.5968490000000  0.5676260000000 1.0
C      1  0.4890260000000  0.4802400000000  0.3910110000000 1.0
C      1  0.5521420000000  0.4313040000000  0.5568990000000 1.0
C      1  0.4416130000000  0.5724790000000  0.4481180000000 1.0
C      1  0.6125190000000  0.4403040000000  0.5328010000000 1.0
C      1  0.5201220000000  0.4645950000000  0.5747450000000 1.0
C      1  0.6101470000000  0.5066070000000  0.4641330000000 1.0
C      1  0.5386320000000  0.4911470000000  0.4677950000000 1.0
C      1  0.4688240000000  0.5020330000000  0.3875020000000 1.0
C      1  0.4569200000000  0.5659090000000  0.4719270000000 1.0
C      1  0.5392670000000  0.4796430000000  0.5130000000000 1.0
C      1  0.4107470000000  0.4802310000000  0.5650620000000 1.0
C      1  0.4820550000000  0.4385310000000  0.4610120000000 1.0
C      1  0.5184620000000  0.5707370000000  0.5343460000000 1.0
C      1  0.5723290000000  0.5800100000000  0.5005800000000 1.0
C      1  0.4597080000000  0.4424540000000  0.5570250000000 1.0
C      1  0.3922760000000  0.5777080000000  0.4602940000000 1.0
END
