TITL C-3201378-2706-1390 -2628.5964969673 125000 -871.20523014275 0 0 144 (C1) n - 1
REM
REM in /home/nfs/bkarasulu/CARBON/AIRSS/Generating-Clusters/LCBOP/Higher-Symm/SD-CG/FIRE-CG
REM
REM
REM
REM
REM
REM ./C.cell (b20cbc046b6831c77cfcea5457e17084)
REM AIRSS Version 0.9.1 bugfix July 2018 build 013d7b7c2542+ Fri, 06 Jul 2018 19:26:36 +0100
REM compiler GCC version 9.2.1 20190827 (Red Hat 9.2.1-1)
REM options -cpp -mtune=generic -march=x86-64 -g -O0 -fpre-include=/usr/include/finclude/math-vector-fortran.h
REM seed -315775912 -321876445 -755002882 -1114045555 585647630 1275218190 -1818372147 -1264415457 -828482173 -1011215940 -1880622759 -1195035510 89781675 2018062401 1388223057 244247502 -1268029588 936577818 -88236356 -2099408079 -1190289973 283662925 1952949854 992534321 1155868388 -1834843143 -331865952 329027973 -412360222 1632234368 1576327229 -835843117 -999041549
REM
CELL 1.54180   50.00000   50.00000   50.00000   90.00000   90.00000   90.00000
LATT -1
SFAC C  
C      1  0.5964580000000  0.5147890000000  0.5391810000000 1.0
C      1  0.4863350000000  0.5147530000000  0.3951840000000 1.0
C      1  0.4144530000000  0.5147320000000  0.5624040000000 1.0
C      1  0.5970950000000  0.4860570000000  0.5426160000000 1.0
C      1  0.4879790000000  0.4859070000000  0.3952130000000 1.0
C      1  0.4169870000000  0.4860280000000  0.5642760000000 1.0
C      1  0.4604900000000  0.6014090000000  0.4463640000000 1.0
C      1  0.4692320000000  0.6003790000000  0.5684530000000 1.0
C      1  0.5749050000000  0.6042340000000  0.4907200000000 1.0
C      1  0.4526770000000  0.3979770000000  0.4350750000000 1.0
C      1  0.4711440000000  0.3967990000000  0.5684450000000 1.0
C      1  0.5722880000000  0.4004560000000  0.4931260000000 1.0
C      1  0.5328160000000  0.4853720000000  0.5747450000000 1.0
C      1  0.5477000000000  0.4876030000000  0.4356460000000 1.0
C      1  0.4211810000000  0.4852950000000  0.4917930000000 1.0
C      1  0.5320200000000  0.5133490000000  0.5727000000000 1.0
C      1  0.5470350000000  0.5156110000000  0.4345490000000 1.0
C      1  0.4196990000000  0.5132950000000  0.4905210000000 1.0
C      1  0.5972740000000  0.5382310000000  0.4357760000000 1.0
C      1  0.3973390000000  0.5392330000000  0.4465920000000 1.0
C      1  0.5088430000000  0.5396050000000  0.6168180000000 1.0
C      1  0.5969790000000  0.4608280000000  0.4336710000000 1.0
C      1  0.3939090000000  0.4618870000000  0.4500060000000 1.0
C      1  0.5053600000000  0.4622900000000  0.6168020000000 1.0
C      1  0.5100780000000  0.5540250000000  0.5592900000000 1.0
C      1  0.5416250000000  0.5570190000000  0.4600480000000 1.0
C      1  0.4478330000000  0.5522680000000  0.4836850000000 1.0
C      1  0.5136250000000  0.4448830000000  0.5547450000000 1.0
C      1  0.5466220000000  0.4470770000000  0.4615270000000 1.0
C      1  0.4429170000000  0.4434310000000  0.4802720000000 1.0
C      1  0.5601710000000  0.4774960000000  0.5774290000000 1.0
C      1  0.5343260000000  0.4772240000000  0.4130620000000 1.0
C      1  0.4089000000000  0.4766480000000  0.5156020000000 1.0
C      1  0.5582440000000  0.5232710000000  0.5706880000000 1.0
C      1  0.5344190000000  0.5233810000000  0.4102580000000 1.0
C      1  0.4044960000000  0.5226780000000  0.5127670000000 1.0
C      1  0.4157160000000  0.5403800000000  0.4246690000000 1.0
C      1  0.4806670000000  0.5424430000000  0.6122310000000 1.0
C      1  0.6067370000000  0.5393330000000  0.4628920000000 1.0
C      1  0.4118310000000  0.4590980000000  0.4277330000000 1.0
C      1  0.4771390000000  0.4613790000000  0.6117470000000 1.0
C      1  0.6069460000000  0.4581980000000  0.4604100000000 1.0
C      1  0.5799550000000  0.5578290000000  0.4233370000000 1.0
C      1  0.3961160000000  0.5589580000000  0.4675370000000 1.0
C      1  0.5289780000000  0.5581620000000  0.6075530000000 1.0
C      1  0.5791890000000  0.4419590000000  0.4210120000000 1.0
C      1  0.3916820000000  0.4431190000000  0.4720290000000 1.0
C      1  0.5243700000000  0.4424610000000  0.6078480000000 1.0
C      1  0.4472910000000  0.5557560000000  0.5522160000000 1.0
C      1  0.5748470000000  0.5610250000000  0.5186540000000 1.0
C      1  0.4811300000000  0.5571530000000  0.4289430000000 1.0
C      1  0.4458670000000  0.4398240000000  0.5566410000000 1.0
C      1  0.5699730000000  0.4454870000000  0.5200200000000 1.0
C      1  0.4792800000000  0.4410790000000  0.4243010000000 1.0
C      1  0.4383180000000  0.4707350000000  0.4745560000000 1.0
C      1  0.5101250000000  0.4707620000000  0.5656710000000 1.0
C      1  0.5542130000000  0.4741970000000  0.4597260000000 1.0
C      1  0.4391340000000  0.5268510000000  0.4748620000000 1.0
C      1  0.5079530000000  0.5268910000000  0.5667760000000 1.0
C      1  0.5513350000000  0.5304840000000  0.4583650000000 1.0
C      1  0.4558300000000  0.5139920000000  0.4542630000000 1.0
C      1  0.4823550000000  0.5133410000000  0.5620470000000 1.0
C      1  0.5610840000000  0.5188600000000  0.4838010000000 1.0
C      1  0.4556460000000  0.4829800000000  0.4540020000000 1.0
C      1  0.4831180000000  0.4823990000000  0.5620600000000 1.0
C      1  0.5618430000000  0.4879290000000  0.4845420000000 1.0
C      1  0.4668370000000  0.5811440000000  0.4300810000000 1.0
C      1  0.4534540000000  0.5788670000000  0.5666220000000 1.0
C      1  0.5836870000000  0.5847250000000  0.5067830000000 1.0
C      1  0.4637370000000  0.4180760000000  0.4213500000000 1.0
C      1  0.4524260000000  0.4158990000000  0.5695410000000 1.0
C      1  0.5787220000000  0.4222100000000  0.5072790000000 1.0
C      1  0.5104600000000  0.5804850000000  0.5560100000000 1.0
C      1  0.5406010000000  0.5834310000000  0.4635470000000 1.0
C      1  0.4541770000000  0.5779030000000  0.4873870000000 1.0
C      1  0.5109070000000  0.4186100000000  0.5510410000000 1.0
C      1  0.5423920000000  0.4207680000000  0.4626520000000 1.0
C      1  0.4445930000000  0.4168920000000  0.4787000000000 1.0
C      1  0.3835410000000  0.5144990000000  0.4497340000000 1.0
C      1  0.5165060000000  0.5140120000000  0.6266820000000 1.0
C      1  0.6016150000000  0.5132320000000  0.4228020000000 1.0
C      1  0.3820510000000  0.4877500000000  0.4518530000000 1.0
C      1  0.5148580000000  0.4872120000000  0.6268190000000 1.0
C      1  0.6013790000000  0.4863940000000  0.4219270000000 1.0
C      1  0.4743890000000  0.4778800000000  0.5051210000000 1.0
C      1  0.5180950000000  0.4983890000000  0.5235420000000 1.0
C      1  0.5101380000000  0.4804050000000  0.4746710000000 1.0
C      1  0.4700370000000  0.5039310000000  0.5049640000000 1.0
C      1  0.5148600000000  0.5243040000000  0.5188690000000 1.0
C      1  0.5108170000000  0.5067620000000  0.4729220000000 1.0
C      1  0.5042080000000  0.4425990000000  0.4099550000000 1.0
C      1  0.4206990000000  0.4419140000000  0.5428070000000 1.0
C      1  0.5720540000000  0.4447730000000  0.5488280000000 1.0
C      1  0.5045580000000  0.5571130000000  0.4120920000000 1.0
C      1  0.4218480000000  0.5562440000000  0.5385840000000 1.0
C      1  0.5757190000000  0.5585510000000  0.5472440000000 1.0
C      1  0.4458520000000  0.3968750000000  0.4610030000000 1.0
C      1  0.4960120000000  0.3976430000000  0.5584030000000 1.0
C      1  0.5539670000000  0.3991580000000  0.4734940000000 1.0
C      1  0.4568900000000  0.6003330000000  0.4729760000000 1.0
C      1  0.4952290000000  0.6017640000000  0.5617720000000 1.0
C      1  0.5546410000000  0.6040820000000  0.4731320000000 1.0
C      1  0.5566580000000  0.5693330000000  0.4146530000000 1.0
C      1  0.4005210000000  0.5703010000000  0.4919170000000 1.0
C      1  0.5477120000000  0.5696630000000  0.5912860000000 1.0
C      1  0.5558250000000  0.4303480000000  0.4129440000000 1.0
C      1  0.3965310000000  0.4312250000000  0.4962830000000 1.0
C      1  0.5434980000000  0.4311310000000  0.5919300000000 1.0
C      1  0.4564400000000  0.5164180000000  0.3984830000000 1.0
C      1  0.4356490000000  0.5204640000000  0.5920380000000 1.0
C      1  0.6084910000000  0.5152730000000  0.5115820000000 1.0
C      1  0.4517530000000  0.4816950000000  0.3990900000000 1.0
C      1  0.4344520000000  0.4855680000000  0.5887090000000 1.0
C      1  0.6116210000000  0.4804610000000  0.5093310000000 1.0
C      1  0.4085190000000  0.4274180000000  0.5208170000000 1.0
C      1  0.5592780000000  0.4291560000000  0.5695150000000 1.0
C      1  0.5286540000000  0.4273420000000  0.4106290000000 1.0
C      1  0.4112980000000  0.5720990000000  0.5170190000000 1.0
C      1  0.5631090000000  0.5730850000000  0.5688010000000 1.0
C      1  0.5293550000000  0.5720830000000  0.4124300000000 1.0
C      1  0.5587820000000  0.5406400000000  0.5047540000000 1.0
C      1  0.4772460000000  0.5331550000000  0.4458520000000 1.0
C      1  0.4636650000000  0.5315210000000  0.5475610000000 1.0
C      1  0.5580780000000  0.4700050000000  0.5081690000000 1.0
C      1  0.4754420000000  0.4620300000000  0.4447320000000 1.0
C      1  0.4656950000000  0.4606470000000  0.5499560000000 1.0
C      1  0.5344450000000  0.4777400000000  0.5214430000000 1.0
C      1  0.4967150000000  0.4605350000000  0.4634440000000 1.0
C      1  0.4726640000000  0.4580190000000  0.5225060000000 1.0
C      1  0.5313860000000  0.5438050000000  0.5117500000000 1.0
C      1  0.4999010000000  0.5281030000000  0.4618650000000 1.0
C      1  0.4640460000000  0.5245390000000  0.5203000000000 1.0
C      1  0.4121400000000  0.4690580000000  0.5424130000000 1.0
C      1  0.5805040000000  0.4702780000000  0.5587960000000 1.0
C      1  0.5094300000000  0.4695500000000  0.4024600000000 1.0
C      1  0.4095870000000  0.5304650000000  0.5396070000000 1.0
C      1  0.5796560000000  0.5313600000000  0.5545040000000 1.0
C      1  0.5086270000000  0.5309640000000  0.4011850000000 1.0
C      1  0.6125830000000  0.4663650000000  0.4855510000000 1.0
C      1  0.4303590000000  0.4678990000000  0.4100450000000 1.0
C      1  0.4531420000000  0.4706430000000  0.6032740000000 1.0
C      1  0.6114150000000  0.5301190000000  0.4879650000000 1.0
C      1  0.4350940000000  0.5318220000000  0.4078790000000 1.0
C      1  0.4559530000000  0.5342650000000  0.6048500000000 1.0
END
