TITL C-3201373-1215-491 -2.82287655542928e-07 125000 -310.633380896022 0 0 51 (C1) n - 1
REM
REM in /home/nfs/bkarasulu/CARBON/AIRSS/Generating-Clusters/LCBOP/Higher-Symm/SD-CG/FIRE-CG
REM
REM
REM
REM
REM
REM ./C.cell (b20cbc046b6831c77cfcea5457e17084)
REM AIRSS Version 0.9.1 bugfix July 2018 build 013d7b7c2542+ Fri, 06 Jul 2018 19:26:36 +0100
REM compiler GCC version 9.2.1 20190827 (Red Hat 9.2.1-1)
REM options -cpp -mtune=generic -march=x86-64 -g -O0 -fpre-include=/usr/include/finclude/math-vector-fortran.h
REM seed -1914934534 1990053163 557432692 -737823078 -221467032 1156621182 845690002 844139511 -958241635 278842420 -1005484783 839818667 -376896112 830999054 966232931 -1282742396 1837485716 -142005077 -101724496 365449519 2068297013 -651679768 -648198628 -483991889 1378112146 -898777910 1227181933 -868090650 1529057223 -407230244 1017854367 2121059321 1404304897
REM
CELL 1.54180   50.00000   50.00000   50.00000   90.00000   90.00000   90.00000
LATT -1
SFAC C  
C      1  0.5141580000000  0.4704530000000  0.4221690000000 1.0
C      1  0.4856920000000  0.5300980000000  0.4214730000000 1.0
C      1  0.4852160000000  0.4705850000000  0.4220450000000 1.0
C      1  0.5145630000000  0.5300340000000  0.4220490000000 1.0
C      1  0.5135300000000  0.4463530000000  0.5156630000000 1.0
C      1  0.4840690000000  0.5523540000000  0.5158020000000 1.0
C      1  0.4842580000000  0.4470980000000  0.5160210000000 1.0
C      1  0.5141860000000  0.5514060000000  0.5176740000000 1.0
C      1  0.4676790000000  0.4843900000000  0.5567130000000 1.0
C      1  0.5297810000000  0.5109560000000  0.5582290000000 1.0
C      1  0.5347580000000  0.4809080000000  0.5559560000000 1.0
C      1  0.4633280000000  0.5157450000000  0.5549710000000 1.0
C      1  0.5548920000000  0.5130860000000  0.4824500000000 1.0
C      1  0.4519140000000  0.4876560000000  0.4879090000000 1.0
C      1  0.4439160000000  0.5142790000000  0.4810210000000 1.0
C      1  0.5449190000000  0.4871190000000  0.4885320000000 1.0
C      1  0.5251530000000  0.5139390000000  0.3998310000000 1.0
C      1  0.4752540000000  0.4864130000000  0.3993260000000 1.0
C      1  0.4757060000000  0.5140560000000  0.3989530000000 1.0
C      1  0.5246710000000  0.4862940000000  0.3997160000000 1.0
C      1  0.4715430000000  0.5277940000000  0.5803070000000 1.0
C      1  0.5390390000000  0.4645900000000  0.5786600000000 1.0
C      1  0.5179180000000  0.5198870000000  0.5829720000000 1.0
C      1  0.4825330000000  0.4807480000000  0.5816930000000 1.0
C      1  0.4675090000000  0.4742790000000  0.4447820000000 1.0
C      1  0.5314120000000  0.5267420000000  0.4453070000000 1.0
C      1  0.5314280000000  0.4740510000000  0.4450190000000 1.0
C      1  0.4681650000000  0.5267090000000  0.4439740000000 1.0
C      1  0.5249820000000  0.4438620000000  0.4882420000000 1.0
C      1  0.4723950000000  0.5540160000000  0.4891740000000 1.0
C      1  0.4724570000000  0.4447900000000  0.4887130000000 1.0
C      1  0.5279700000000  0.5527900000000  0.4919800000000 1.0
C      1  0.5203130000000  0.4520130000000  0.5934910000000 1.0
C      1  0.4851840000000  0.5527540000000  0.5851060000000 1.0
C      1  0.4939760000000  0.4579080000000  0.5929870000000 1.0
C      1  0.5124520000000  0.5481750000000  0.5872390000000 1.0
C      1  0.5226000000000  0.5274750000000  0.5337730000000 1.0
C      1  0.4698690000000  0.4677020000000  0.5322000000000 1.0
C      1  0.4725610000000  0.5297090000000  0.5307150000000 1.0
C      1  0.5282490000000  0.4667520000000  0.5310510000000 1.0
C      1  0.4657280000000  0.4875770000000  0.5120130000000 1.0
C      1  0.5115160000000  0.5070730000000  0.5164520000000 1.0
C      1  0.5298210000000  0.4873990000000  0.5116980000000 1.0
C      1  0.4838360000000  0.5080150000000  0.5152960000000 1.0
C      1  0.5357100000000  0.4651330000000  0.4716770000000 1.0
C      1  0.4609890000000  0.5357140000000  0.4703910000000 1.0
C      1  0.4621550000000  0.4657040000000  0.4714650000000 1.0
C      1  0.5385470000000  0.5351320000000  0.4721320000000 1.0
C      1  0.4555800000000  0.5004450000000  0.4403470000000 1.0
C      1  0.5436760000000  0.5001720000000  0.4414160000000 1.0
C      1  0.4916860000000  0.5068620000000  0.5897370000000 1.0
END
