TITL C-3201372-1405-599 -1.10529188505221e-06 125000 -880.33376274376 0 0 140 (C1) n - 1
REM
REM in /home/nfs/bkarasulu/CARBON/AIRSS/Generating-Clusters/LCBOP/Higher-Symm/SD-CG/FIRE-CG
REM
REM
REM
REM
REM
REM ./C.cell (b20cbc046b6831c77cfcea5457e17084)
REM AIRSS Version 0.9.1 bugfix July 2018 build 013d7b7c2542+ Fri, 06 Jul 2018 19:26:36 +0100
REM compiler GCC version 9.2.1 20190827 (Red Hat 9.2.1-1)
REM options -cpp -mtune=generic -march=x86-64 -g -O0 -fpre-include=/usr/include/finclude/math-vector-fortran.h
REM seed 1941656846 855552581 -1798224784 1511915782 -69573697 1250398195 2079234403 1554353325 641674082 -1069137453 -1478968765 1889414925 -1045769407 -723331727 2004863913 -1171516057 950242995 -1313035319 -1256868768 -390799934 -1640192650 806570424 372656849 -2086070239 -1857155955 1172527498 -581884953 -762836622 -343868104 24653878 888851362 1162521719 1140411671
REM
CELL 1.54180   50.00000   50.00000   50.00000   90.00000   90.00000   90.00000
LATT -1
SFAC C  
C      1  0.4411360000000  0.4565680000000  0.4961710000000 1.0
C      1  0.4757310000000  0.4546140000000  0.4437370000000 1.0
C      1  0.5067660000000  0.4583900000000  0.4446010000000 1.0
C      1  0.5537390000000  0.4558430000000  0.4779650000000 1.0
C      1  0.5438070000000  0.4568140000000  0.5370280000000 1.0
C      1  0.5232080000000  0.4541970000000  0.5611480000000 1.0
C      1  0.4612830000000  0.4563060000000  0.5460140000000 1.0
C      1  0.4365470000000  0.5707190000000  0.4888350000000 1.0
C      1  0.4688090000000  0.5718620000000  0.4430570000000 1.0
C      1  0.5248280000000  0.5714180000000  0.4402150000000 1.0
C      1  0.5619940000000  0.5705290000000  0.4822150000000 1.0
C      1  0.5528400000000  0.5716940000000  0.5374160000000 1.0
C      1  0.5037240000000  0.5716740000000  0.5643740000000 1.0
C      1  0.4519080000000  0.5709610000000  0.5427290000000 1.0
C      1  0.5596780000000  0.4674660000000  0.4075720000000 1.0
C      1  0.6093720000000  0.4656280000000  0.4921380000000 1.0
C      1  0.5783720000000  0.4676510000000  0.5810050000000 1.0
C      1  0.4860420000000  0.4671150000000  0.6096000000000 1.0
C      1  0.4045900000000  0.4662420000000  0.5565450000000 1.0
C      1  0.3976650000000  0.4664510000000  0.4584830000000 1.0
C      1  0.4647480000000  0.4671940000000  0.3934470000000 1.0
C      1  0.5781740000000  0.5727650000000  0.5253890000000 1.0
C      1  0.5287780000000  0.5740350000000  0.5768570000000 1.0
C      1  0.4578470000000  0.5728550000000  0.5701030000000 1.0
C      1  0.4187910000000  0.5726050000000  0.5104840000000 1.0
C      1  0.4407660000000  0.5730900000000  0.4428880000000 1.0
C      1  0.5077010000000  0.5737090000000  0.4180570000000 1.0
C      1  0.5686440000000  0.5726630000000  0.4550440000000 1.0
C      1  0.5285440000000  0.4143660000000  0.5190310000000 1.0
C      1  0.5027910000000  0.4169490000000  0.5332690000000 1.0
C      1  0.4748800000000  0.4159640000000  0.5226790000000 1.0
C      1  0.4659320000000  0.4152900000000  0.4939670000000 1.0
C      1  0.4822930000000  0.4138370000000  0.4696670000000 1.0
C      1  0.5118060000000  0.4155180000000  0.4689220000000 1.0
C      1  0.5325570000000  0.4143500000000  0.4900410000000 1.0
C      1  0.5699830000000  0.4767020000000  0.4674920000000 1.0
C      1  0.5665610000000  0.4775390000000  0.5371720000000 1.0
C      1  0.5191430000000  0.4783930000000  0.5762980000000 1.0
C      1  0.4507030000000  0.4773490000000  0.5620600000000 1.0
C      1  0.4215180000000  0.4770190000000  0.4986470000000 1.0
C      1  0.4570720000000  0.4769470000000  0.4385820000000 1.0
C      1  0.5159410000000  0.4789240000000  0.4248050000000 1.0
C      1  0.4283770000000  0.4223700000000  0.5481360000000 1.0
C      1  0.4181050000000  0.4226530000000  0.4726760000000 1.0
C      1  0.4617360000000  0.4210020000000  0.4176820000000 1.0
C      1  0.5400130000000  0.4258720000000  0.4260770000000 1.0
C      1  0.5850790000000  0.4216570000000  0.4870120000000 1.0
C      1  0.5702560000000  0.4232360000000  0.5551570000000 1.0
C      1  0.4926230000000  0.4247230000000  0.5840020000000 1.0
C      1  0.5297650000000  0.4655760000000  0.4888290000000 1.0
C      1  0.5259100000000  0.4676480000000  0.5161650000000 1.0
C      1  0.5022950000000  0.4769520000000  0.5270160000000 1.0
C      1  0.4769410000000  0.4671000000000  0.5256450000000 1.0
C      1  0.4667000000000  0.4668940000000  0.5000480000000 1.0
C      1  0.4838470000000  0.4774840000000  0.4815850000000 1.0
C      1  0.5086170000000  0.4703480000000  0.4716750000000 1.0
C      1  0.4563800000000  0.5191190000000  0.4052550000000 1.0
C      1  0.5453410000000  0.5179070000000  0.4085170000000 1.0
C      1  0.5998460000000  0.5165240000000  0.4796870000000 1.0
C      1  0.5804860000000  0.5194110000000  0.5665310000000 1.0
C      1  0.4991990000000  0.5183430000000  0.6027750000000 1.0
C      1  0.4185430000000  0.5178200000000  0.5628050000000 1.0
C      1  0.4010650000000  0.5170280000000  0.4745410000000 1.0
C      1  0.3903000000000  0.5309030000000  0.5245430000000 1.0
C      1  0.4113060000000  0.5316050000000  0.4290000000000 1.0
C      1  0.4997600000000  0.5329250000000  0.3860160000000 1.0
C      1  0.5877670000000  0.5305750000000  0.4301320000000 1.0
C      1  0.6106040000000  0.5313050000000  0.5251660000000 1.0
C      1  0.5499280000000  0.5334360000000  0.6026370000000 1.0
C      1  0.4515360000000  0.5315610000000  0.6018400000000 1.0
C      1  0.4712130000000  0.4949970000000  0.5712220000000 1.0
C      1  0.4262240000000  0.4943150000000  0.5211090000000 1.0
C      1  0.4405140000000  0.4926410000000  0.4560850000000 1.0
C      1  0.4955660000000  0.4984200000000  0.4216940000000 1.0
C      1  0.5562910000000  0.4942160000000  0.4495890000000 1.0
C      1  0.5731390000000  0.4929660000000  0.5138850000000 1.0
C      1  0.5380780000000  0.4981360000000  0.5687990000000 1.0
C      1  0.5615240000000  0.5383560000000  0.4217510000000 1.0
C      1  0.5996190000000  0.5377790000000  0.4996550000000 1.0
C      1  0.5638790000000  0.5404750000000  0.5785360000000 1.0
C      1  0.4788950000000  0.5389270000000  0.5975780000000 1.0
C      1  0.4102810000000  0.5384070000000  0.5436770000000 1.0
C      1  0.4100930000000  0.5382060000000  0.4566990000000 1.0
C      1  0.4766170000000  0.5401970000000  0.4014620000000 1.0
C      1  0.5241030000000  0.5243070000000  0.4794710000000 1.0
C      1  0.5308480000000  0.5241690000000  0.5065110000000 1.0
C      1  0.5146090000000  0.5253510000000  0.5291080000000 1.0
C      1  0.4867260000000  0.5247680000000  0.5297290000000 1.0
C      1  0.4689210000000  0.5243620000000  0.5082190000000 1.0
C      1  0.4743850000000  0.5249650000000  0.4808190000000 1.0
C      1  0.4989520000000  0.5256810000000  0.4676340000000 1.0
C      1  0.5822830000000  0.5611670000000  0.5000350000000 1.0
C      1  0.5518610000000  0.5632470000000  0.5647300000000 1.0
C      1  0.4819130000000  0.5622080000000  0.5802630000000 1.0
C      1  0.4258080000000  0.5617010000000  0.5355260000000 1.0
C      1  0.4259700000000  0.5615290000000  0.4639060000000 1.0
C      1  0.4815270000000  0.5631420000000  0.4189460000000 1.0
C      1  0.5513950000000  0.5619010000000  0.4355260000000 1.0
C      1  0.5578840000000  0.4279160000000  0.4825390000000 1.0
C      1  0.5508230000000  0.4272520000000  0.5342430000000 1.0
C      1  0.5062880000000  0.4302750000000  0.5598740000000 1.0
C      1  0.4550720000000  0.4286390000000  0.5411980000000 1.0
C      1  0.4401930000000  0.4289820000000  0.4891270000000 1.0
C      1  0.4698040000000  0.4260270000000  0.4449550000000 1.0
C      1  0.5200510000000  0.4310330000000  0.4452140000000 1.0
C      1  0.3877180000000  0.5235310000000  0.4987470000000 1.0
C      1  0.4292670000000  0.5251030000000  0.4101460000000 1.0
C      1  0.5253590000000  0.5251380000000  0.3896960000000 1.0
C      1  0.6013570000000  0.5229470000000  0.4521000000000 1.0
C      1  0.6026740000000  0.5253010000000  0.5501130000000 1.0
C      1  0.5254020000000  0.5256550000000  0.6107780000000 1.0
C      1  0.4293990000000  0.5246970000000  0.5880810000000 1.0
C      1  0.4235680000000  0.4891330000000  0.5514600000000 1.0
C      1  0.4134210000000  0.4887550000000  0.4709890000000 1.0
C      1  0.4672970000000  0.4910340000000  0.4123990000000 1.0
C      1  0.5450790000000  0.4892910000000  0.4216580000000 1.0
C      1  0.5899960000000  0.4883000000000  0.4884060000000 1.0
C      1  0.5678370000000  0.4912510000000  0.5651740000000 1.0
C      1  0.4937630000000  0.4894060000000  0.5910830000000 1.0
C      1  0.4009990000000  0.4395490000000  0.4601090000000 1.0
C      1  0.4614070000000  0.4402290000000  0.3978630000000 1.0
C      1  0.5563320000000  0.4408040000000  0.4107360000000 1.0
C      1  0.6057520000000  0.4387320000000  0.4912360000000 1.0
C      1  0.5792690000000  0.4411040000000  0.5739350000000 1.0
C      1  0.4852910000000  0.4404910000000  0.6046720000000 1.0
C      1  0.4081680000000  0.4393980000000  0.5543850000000 1.0
C      1  0.5334780000000  0.5755590000000  0.4905620000000 1.0
C      1  0.5283370000000  0.5759420000000  0.5202460000000 1.0
C      1  0.5018300000000  0.5759830000000  0.5345710000000 1.0
C      1  0.4740360000000  0.5757070000000  0.5227450000000 1.0
C      1  0.4658960000000  0.5756590000000  0.4936790000000 1.0
C      1  0.4834390000000  0.5760700000000  0.4691760000000 1.0
C      1  0.5135670000000  0.5759000000000  0.4678430000000 1.0
C      1  0.5447000000000  0.5164050000000  0.4623800000000 1.0
C      1  0.5570050000000  0.5159480000000  0.5117180000000 1.0
C      1  0.5275670000000  0.5191080000000  0.5532550000000 1.0
C      1  0.4757820000000  0.5169380000000  0.5542400000000 1.0
C      1  0.4429780000000  0.5161350000000  0.5148370000000 1.0
C      1  0.4533570000000  0.5162640000000  0.4646050000000 1.0
C      1  0.4977870000000  0.5196920000000  0.4401630000000 1.0
END
