TITL C-3201378-2706-372 827.030030682152 125000 -503.177261716367 0 0 83 (C1) n - 1
REM
REM in /home/nfs/bkarasulu/CARBON/AIRSS/Generating-Clusters/LCBOP/Higher-Symm/SD-CG/FIRE-CG
REM
REM
REM
REM
REM
REM ./C.cell (b20cbc046b6831c77cfcea5457e17084)
REM AIRSS Version 0.9.1 bugfix July 2018 build 013d7b7c2542+ Fri, 06 Jul 2018 19:26:36 +0100
REM compiler GCC version 9.2.1 20190827 (Red Hat 9.2.1-1)
REM options -cpp -mtune=generic -march=x86-64 -g -O0 -fpre-include=/usr/include/finclude/math-vector-fortran.h
REM seed -1193819969 -1754497638 317473950 107983416 -672725011 1959412375 -1437779373 708484501 521002611 -1581013467 -620719506 1863465779 1479429205 2136765480 -1107634472 1180477544 973815156 224891941 488704609 57708632 66582827 477330501 1406974838 1897779589 -939534697 51503964 -1413590062 61920832 -602119030 1517027889 -1860408813 -1599320808 1627022698
REM
CELL 1.54180   50.00000   50.00000   50.00000   90.00000   90.00000   90.00000
LATT -1
SFAC C  
C      1  0.4587540000000  0.4857770000000  0.5732640000000 1.0
C      1  0.4712580000000  0.4841750000000  0.4261270000000 1.0
C      1  0.4854510000000  0.5394420000000  0.4710890000000 1.0
C      1  0.4745600000000  0.5420960000000  0.5402860000000 1.0
C      1  0.5248210000000  0.5242180000000  0.4370400000000 1.0
C      1  0.5191410000000  0.5245130000000  0.5626500000000 1.0
C      1  0.5289880000000  0.5836060000000  0.5314690000000 1.0
C      1  0.5322460000000  0.5869770000000  0.4689480000000 1.0
C      1  0.4798480000000  0.4736840000000  0.5307920000000 1.0
C      1  0.4937390000000  0.4682980000000  0.4759360000000 1.0
C      1  0.4477920000000  0.4506300000000  0.4668590000000 1.0
C      1  0.4377070000000  0.4292930000000  0.5381060000000 1.0
C      1  0.4114700000000  0.4726590000000  0.5071280000000 1.0
C      1  0.4357460000000  0.4818600000000  0.5107050000000 1.0
C      1  0.5841770000000  0.4517580000000  0.5020280000000 1.0
C      1  0.5805740000000  0.4531950000000  0.4746940000000 1.0
C      1  0.4441070000000  0.4454820000000  0.4392230000000 1.0
C      1  0.4390570000000  0.4409760000000  0.5623890000000 1.0
C      1  0.5447110000000  0.4873550000000  0.4830970000000 1.0
C      1  0.5457320000000  0.4882560000000  0.5110900000000 1.0
C      1  0.5040910000000  0.4236080000000  0.4384950000000 1.0
C      1  0.5059770000000  0.4320850000000  0.5543810000000 1.0
C      1  0.4383110000000  0.5843920000000  0.4875230000000 1.0
C      1  0.4356230000000  0.5876100000000  0.5139490000000 1.0
C      1  0.4461700000000  0.5680270000000  0.4678540000000 1.0
C      1  0.4387340000000  0.5754260000000  0.5376490000000 1.0
C      1  0.5214630000000  0.4281990000000  0.5323060000000 1.0
C      1  0.5189130000000  0.4212270000000  0.4608340000000 1.0
C      1  0.5459450000000  0.4794930000000  0.4379470000000 1.0
C      1  0.5634180000000  0.4654800000000  0.5493690000000 1.0
C      1  0.5050660000000  0.5384540000000  0.4509960000000 1.0
C      1  0.4997120000000  0.5441270000000  0.5537410000000 1.0
C      1  0.5617250000000  0.5463410000000  0.4645250000000 1.0
C      1  0.5585180000000  0.5424420000000  0.5345140000000 1.0
C      1  0.4590330000000  0.4952870000000  0.4515770000000 1.0
C      1  0.4443330000000  0.5017290000000  0.5525430000000 1.0
C      1  0.4772440000000  0.4488190000000  0.5170250000000 1.0
C      1  0.4944600000000  0.4472060000000  0.4948210000000 1.0
C      1  0.4606000000000  0.4564000000000  0.5722820000000 1.0
C      1  0.4656070000000  0.4551280000000  0.4228970000000 1.0
C      1  0.4863640000000  0.4430090000000  0.5698730000000 1.0
C      1  0.4876680000000  0.4371390000000  0.4220130000000 1.0
C      1  0.4441430000000  0.5182310000000  0.4644430000000 1.0
C      1  0.4305050000000  0.5265860000000  0.5426490000000 1.0
C      1  0.5671580000000  0.5012090000000  0.4721690000000 1.0
C      1  0.5685710000000  0.5003820000000  0.5225270000000 1.0
C      1  0.4973360000000  0.4957700000000  0.3867250000000 1.0
C      1  0.4840860000000  0.5067350000000  0.6103340000000 1.0
C      1  0.5554050000000  0.5718880000000  0.4750570000000 1.0
C      1  0.5527120000000  0.5690930000000  0.5263630000000 1.0
C      1  0.4526810000000  0.4340440000000  0.5148360000000 1.0
C      1  0.4424420000000  0.4335790000000  0.4885020000000 1.0
C      1  0.4255300000000  0.5193390000000  0.4874820000000 1.0
C      1  0.4201650000000  0.5248660000000  0.5143500000000 1.0
C      1  0.5048060000000  0.4994920000000  0.5658990000000 1.0
C      1  0.5208560000000  0.4956400000000  0.4292090000000 1.0
C      1  0.5124620000000  0.5951630000000  0.5133560000000 1.0
C      1  0.5138780000000  0.5966660000000  0.4863750000000 1.0
C      1  0.4855930000000  0.5157740000000  0.6347290000000 1.0
C      1  0.4982020000000  0.4993440000000  0.3609270000000 1.0
C      1  0.4586580000000  0.4940620000000  0.5258070000000 1.0
C      1  0.4658710000000  0.4735580000000  0.4695630000000 1.0
C      1  0.5403560000000  0.4356250000000  0.5121120000000 1.0
C      1  0.5376030000000  0.4354070000000  0.4765670000000 1.0
C      1  0.5628420000000  0.4957390000000  0.5507760000000 1.0
C      1  0.5646070000000  0.5025070000000  0.4436130000000 1.0
C      1  0.5722750000000  0.5274500000000  0.4846090000000 1.0
C      1  0.5722280000000  0.5268870000000  0.5132370000000 1.0
C      1  0.5077840000000  0.5065880000000  0.4973940000000 1.0
C      1  0.5202330000000  0.4953310000000  0.5210420000000 1.0
C      1  0.4827210000000  0.4977680000000  0.5840550000000 1.0
C      1  0.4965310000000  0.4917290000000  0.4144550000000 1.0
C      1  0.5554900000000  0.4525850000000  0.4598600000000 1.0
C      1  0.5645040000000  0.4488060000000  0.5231360000000 1.0
C      1  0.5037430000000  0.4851960000000  0.5411520000000 1.0
C      1  0.5154790000000  0.4874250000000  0.4773610000000 1.0
C      1  0.4585290000000  0.5432910000000  0.4632760000000 1.0
C      1  0.4474700000000  0.5502360000000  0.5464010000000 1.0
C      1  0.4718590000000  0.5224910000000  0.5185140000000 1.0
C      1  0.4883080000000  0.5256380000000  0.4959150000000 1.0
C      1  0.5478080000000  0.5228210000000  0.5559780000000 1.0
C      1  0.5528060000000  0.5301290000000  0.4414150000000 1.0
C      1  0.5652720000000  0.5768010000000  0.5016150000000 1.0
END
