TITL C-3201376-6384-1246 -2.17402942123086e-07 125000 -426.233041547845 0 0 68 (D2h) n - 1
REM
REM in /home/nfs/bkarasulu/CARBON/AIRSS/Generating-Clusters/LCBOP/Higher-Symm/SD-CG/FIRE-CG
REM
REM
REM
REM
REM
REM ./C.cell (b20cbc046b6831c77cfcea5457e17084)
REM AIRSS Version 0.9.1 bugfix July 2018 build 013d7b7c2542+ Fri, 06 Jul 2018 19:26:36 +0100
REM compiler GCC version 9.2.1 20190827 (Red Hat 9.2.1-1)
REM options -cpp -mtune=generic -march=x86-64 -g -O0 -fpre-include=/usr/include/finclude/math-vector-fortran.h
REM seed -2117738478 972333073 -1141826624 460369513 -42946063 -425365651 90542197 1255944389 -1021537254 1738040427 1550830983 -148752051 -42922601 -2075689673 1473540018 1359855106 -791295749 -2020370068 -1212652688 -589103041 1323664517 -917616812 1111745424 -235190534 1662266004 -274030225 -1958233725 1769812192 -796238405 843605950 -1906096858 679643908 699232014
REM
CELL 1.54180   50.00000   50.00000   50.00000   90.00000   90.00000   90.00000
LATT -1
SFAC C  
C      1  0.4529460000000  0.4344970000000  0.4855230000000 1.0
C      1  0.5470540000000  0.5655040000000  0.4855240000000 1.0
C      1  0.4529460000000  0.4344960000000  0.5144760000000 1.0
C      1  0.5470540000000  0.5655030000000  0.5144770000000 1.0
C      1  0.5470540000000  0.4344970000000  0.4855230000000 1.0
C      1  0.4529460000000  0.5655030000000  0.4855250000000 1.0
C      1  0.5470540000000  0.4344970000000  0.5144750000000 1.0
C      1  0.4529460000000  0.5655030000000  0.5144770000000 1.0
C      1  0.5804220000000  0.5142360000000  0.4673230000000 1.0
C      1  0.4195780000000  0.4857650000000  0.4673240000000 1.0
C      1  0.5804220000000  0.5142350000000  0.5326760000000 1.0
C      1  0.4195780000000  0.4857640000000  0.5326770000000 1.0
C      1  0.4195780000000  0.5142350000000  0.4673240000000 1.0
C      1  0.5804220000000  0.4857650000000  0.4673230000000 1.0
C      1  0.4195780000000  0.5142350000000  0.5326770000000 1.0
C      1  0.5804220000000  0.4857650000000  0.5326760000000 1.0
C      1  0.4854870000000  0.5338050000000  0.5403930000000 1.0
C      1  0.5145130000000  0.4661940000000  0.5403920000000 1.0
C      1  0.4854870000000  0.5338060000000  0.4596080000000 1.0
C      1  0.5145130000000  0.4661950000000  0.4596070000000 1.0
C      1  0.5145130000000  0.5338050000000  0.5403930000000 1.0
C      1  0.4854870000000  0.4661940000000  0.5403920000000 1.0
C      1  0.5145130000000  0.5338060000000  0.4596080000000 1.0
C      1  0.4854870000000  0.4661950000000  0.4596070000000 1.0
C      1  0.5327490000000  0.5144060000000  0.4504830000000 1.0
C      1  0.4672510000000  0.4855950000000  0.4504840000000 1.0
C      1  0.5327490000000  0.5144050000000  0.5495160000000 1.0
C      1  0.4672510000000  0.4855940000000  0.5495170000000 1.0
C      1  0.4672500000000  0.5144060000000  0.4504840000000 1.0
C      1  0.5327490000000  0.4855960000000  0.4504830000000 1.0
C      1  0.4672510000000  0.5144040000000  0.5495170000000 1.0
C      1  0.5327500000000  0.4855940000000  0.5495160000000 1.0
C      1  0.4761250000000  0.5598700000000  0.5293970000000 1.0
C      1  0.5238750000000  0.4401290000000  0.5293960000000 1.0
C      1  0.4761250000000  0.5598710000000  0.4706040000000 1.0
C      1  0.5238750000000  0.4401300000000  0.4706030000000 1.0
C      1  0.5238750000000  0.5598700000000  0.5293970000000 1.0
C      1  0.4761250000000  0.4401290000000  0.5293960000000 1.0
C      1  0.5238750000000  0.5598710000000  0.4706040000000 1.0
C      1  0.4761250000000  0.4401300000000  0.4706030000000 1.0
C      1  0.4266080000000  0.5596960000000  0.4757990000000 1.0
C      1  0.5733910000000  0.4403050000000  0.4757960000000 1.0
C      1  0.4266090000000  0.5596950000000  0.5242040000000 1.0
C      1  0.5733920000000  0.4403040000000  0.5242010000000 1.0
C      1  0.5733910000000  0.5596960000000  0.4757980000000 1.0
C      1  0.4266090000000  0.4403040000000  0.4757970000000 1.0
C      1  0.5733910000000  0.5596960000000  0.5242030000000 1.0
C      1  0.4266090000000  0.4403040000000  0.5242020000000 1.0
C      1  0.4138670000000  0.4648510000000  0.4856070000000 1.0
C      1  0.5861330000000  0.5351500000000  0.4856070000000 1.0
C      1  0.4138670000000  0.4648500000000  0.5143930000000 1.0
C      1  0.5861330000000  0.5351490000000  0.5143930000000 1.0
C      1  0.5861330000000  0.4648510000000  0.4856060000000 1.0
C      1  0.4138670000000  0.5351490000000  0.4856080000000 1.0
C      1  0.5861330000000  0.4648510000000  0.5143920000000 1.0
C      1  0.4138670000000  0.5351490000000  0.5143940000000 1.0
C      1  0.5600590000000  0.4766010000000  0.4483570000000 1.0
C      1  0.4399400000000  0.5234010000000  0.4483580000000 1.0
C      1  0.5600600000000  0.4765990000000  0.5516420000000 1.0
C      1  0.4399410000000  0.5233990000000  0.5516430000000 1.0
C      1  0.4399400000000  0.4766010000000  0.4483580000000 1.0
C      1  0.5600590000000  0.5234010000000  0.4483580000000 1.0
C      1  0.4399410000000  0.4765990000000  0.5516420000000 1.0
C      1  0.5600600000000  0.5233990000000  0.5516420000000 1.0
C      1  0.5000000000000  0.5758740000000  0.4722270000000 1.0
C      1  0.5000000000000  0.4241270000000  0.4722250000000 1.0
C      1  0.5000000000000  0.5758730000000  0.5277750000000 1.0
C      1  0.5000000000000  0.4241260000000  0.5277730000000 1.0
END
