TITL C-3201378-2706-288 340973.575047635 125000 -1057.73603309068 0 0 171 (C1) n - 1
REM
REM in /home/nfs/bkarasulu/CARBON/AIRSS/Generating-Clusters/LCBOP/Higher-Symm/SD-CG/FIRE-CG
REM
REM
REM
REM
REM
REM ./C.cell (b20cbc046b6831c77cfcea5457e17084)
REM AIRSS Version 0.9.1 bugfix July 2018 build 013d7b7c2542+ Fri, 06 Jul 2018 19:26:36 +0100
REM compiler GCC version 9.2.1 20190827 (Red Hat 9.2.1-1)
REM options -cpp -mtune=generic -march=x86-64 -g -O0 -fpre-include=/usr/include/finclude/math-vector-fortran.h
REM seed 738693393 -1682842811 7887455 1782339886 1937087144 1325750637 615511850 668545163 1103260713 -1441984849 507324386 1619913962 1973686919 2084411523 769107116 1925939850 1171749929 -423073796 1645368500 -1645127339 -878544237 1180928162 592559946 927326834 461253812 160841728 307690202 653385994 491562624 -1134974911 -1463418406 348374333 1638344381
REM
CELL 1.54180   50.00000   50.00000   50.00000   90.00000   90.00000   90.00000
LATT -1
SFAC C  
C      1  0.6143040000000  0.5146080000000  0.5320010000000 1.0
C      1  0.5614240000000  0.5070480000000  0.6012170000000 1.0
C      1  0.5419930000000  0.5641980000000  0.4749830000000 1.0
C      1  0.5760580000000  0.4828110000000  0.5946530000000 1.0
C      1  0.3740090000000  0.5104750000000  0.4974110000000 1.0
C      1  0.5281030000000  0.5122550000000  0.4822810000000 1.0
C      1  0.4996680000000  0.4865510000000  0.5265140000000 1.0
C      1  0.4788160000000  0.5700940000000  0.5926900000000 1.0
C      1  0.4787600000000  0.4174590000000  0.5207670000000 1.0
C      1  0.4841490000000  0.6543930000000  0.5516210000000 1.0
C      1  0.5648400000000  0.5444900000000  0.5350100000000 1.0
C      1  0.5693910000000  0.4972790000000  0.4587470000000 1.0
C      1  0.5331420000000  0.5562970000000  0.5010910000000 1.0
C      1  0.5083150000000  0.5099730000000  0.4633800000000 1.0
C      1  0.5658070000000  0.5803940000000  0.4373650000000 1.0
C      1  0.5350500000000  0.5018370000000  0.6097500000000 1.0
C      1  0.4875120000000  0.4860110000000  0.5550700000000 1.0
C      1  0.4462020000000  0.5427480000000  0.5604270000000 1.0
C      1  0.5705330000000  0.4565890000000  0.6036240000000 1.0
C      1  0.5545110000000  0.5023450000000  0.4827370000000 1.0
C      1  0.6152570000000  0.4851890000000  0.4881280000000 1.0
C      1  0.4361480000000  0.5383660000000  0.6457090000000 1.0
C      1  0.4224480000000  0.5042620000000  0.4100710000000 1.0
C      1  0.4920690000000  0.4616910000000  0.4414690000000 1.0
C      1  0.5611680000000  0.4724270000000  0.4431870000000 1.0
C      1  0.4083810000000  0.5071360000000  0.4566510000000 1.0
C      1  0.5266190000000  0.5746390000000  0.5219170000000 1.0
C      1  0.3889770000000  0.4636160000000  0.5037340000000 1.0
C      1  0.4800560000000  0.5140540000000  0.4673750000000 1.0
C      1  0.5824960000000  0.4732370000000  0.4013140000000 1.0
C      1  0.5643920000000  0.4257110000000  0.5298750000000 1.0
C      1  0.4765370000000  0.4361250000000  0.3580890000000 1.0
C      1  0.5561450000000  0.5554980000000  0.5810040000000 1.0
C      1  0.5578990000000  0.5710280000000  0.4131260000000 1.0
C      1  0.4989500000000  0.5747620000000  0.5272390000000 1.0
C      1  0.4501770000000  0.5874650000000  0.4179490000000 1.0
C      1  0.4534630000000  0.4383310000000  0.5901260000000 1.0
C      1  0.4733670000000  0.5082320000000  0.6249310000000 1.0
C      1  0.5792740000000  0.4702800000000  0.5464980000000 1.0
C      1  0.5771250000000  0.4492400000000  0.4848950000000 1.0
C      1  0.4481380000000  0.5483000000000  0.4930040000000 1.0
C      1  0.5093510000000  0.5155460000000  0.5242630000000 1.0
C      1  0.5617850000000  0.4313320000000  0.6000890000000 1.0
C      1  0.4537220000000  0.5934970000000  0.5538700000000 1.0
C      1  0.4954290000000  0.4445040000000  0.3740210000000 1.0
C      1  0.4172740000000  0.4570950000000  0.6171780000000 1.0
C      1  0.5834540000000  0.4573460000000  0.4264650000000 1.0
C      1  0.5186710000000  0.4443910000000  0.4806620000000 1.0
C      1  0.5449640000000  0.3982680000000  0.5630590000000 1.0
C      1  0.4282850000000  0.6017150000000  0.5595520000000 1.0
C      1  0.5472450000000  0.4035890000000  0.5352950000000 1.0
C      1  0.5583370000000  0.4509210000000  0.4632420000000 1.0
C      1  0.5004880000000  0.4396380000000  0.5814070000000 1.0
C      1  0.4959490000000  0.5779760000000  0.4663540000000 1.0
C      1  0.4102200000000  0.4469310000000  0.4606860000000 1.0
C      1  0.5713830000000  0.5302720000000  0.5856720000000 1.0
C      1  0.5957100000000  0.5136960000000  0.5630910000000 1.0
C      1  0.5595040000000  0.3933570000000  0.4654400000000 1.0
C      1  0.4316970000000  0.5875420000000  0.4643350000000 1.0
C      1  0.5764150000000  0.5008800000000  0.4030650000000 1.0
C      1  0.5097140000000  0.4522860000000  0.3949670000000 1.0
C      1  0.4050690000000  0.5272740000000  0.4079300000000 1.0
C      1  0.5357230000000  0.4351550000000  0.4606470000000 1.0
C      1  0.4677080000000  0.5393090000000  0.4736630000000 1.0
C      1  0.4840150000000  0.5531160000000  0.4284850000000 1.0
C      1  0.5667690000000  0.5472950000000  0.4008080000000 1.0
C      1  0.5337010000000  0.4815180000000  0.4302090000000 1.0
C      1  0.4838920000000  0.5954340000000  0.5149230000000 1.0
C      1  0.6068280000000  0.4581230000000  0.4475750000000 1.0
C      1  0.5128420000000  0.5438910000000  0.4332740000000 1.0
C      1  0.4752590000000  0.4303310000000  0.5730410000000 1.0
C      1  0.5054320000000  0.5693240000000  0.6005180000000 1.0
C      1  0.5206320000000  0.5645600000000  0.4560230000000 1.0
C      1  0.5114370000000  0.6163830000000  0.5650700000000 1.0
C      1  0.5604730000000  0.5642000000000  0.5532880000000 1.0
C      1  0.4011470000000  0.5045500000000  0.5670820000000 1.0
C      1  0.4666540000000  0.5652330000000  0.4094330000000 1.0
C      1  0.3984500000000  0.4769940000000  0.5587790000000 1.0
C      1  0.6169900000000  0.4892110000000  0.5169730000000 1.0
C      1  0.5060670000000  0.4067630000000  0.4349950000000 1.0
C      1  0.5732400000000  0.4417880000000  0.5510400000000 1.0
C      1  0.5441160000000  0.3899540000000  0.4878260000000 1.0
C      1  0.5205420000000  0.5211040000000  0.5499790000000 1.0
C      1  0.6028950000000  0.4606540000000  0.4768840000000 1.0
C      1  0.6049220000000  0.4680390000000  0.5307770000000 1.0
C      1  0.4495720000000  0.3799210000000  0.4830410000000 1.0
C      1  0.5760430000000  0.5282320000000  0.5164500000000 1.0
C      1  0.5648660000000  0.5031740000000  0.5094070000000 1.0
C      1  0.4349470000000  0.5045030000000  0.5050730000000 1.0
C      1  0.5297430000000  0.5952790000000  0.5676320000000 1.0
C      1  0.5546520000000  0.4858860000000  0.5334670000000 1.0
C      1  0.4086440000000  0.4461760000000  0.4893030000000 1.0
C      1  0.4489400000000  0.5060910000000  0.3973830000000 1.0
C      1  0.5156740000000  0.4556740000000  0.4235000000000 1.0
C      1  0.3866360000000  0.5085350000000  0.5237090000000 1.0
C      1  0.5939440000000  0.5093560000000  0.4496230000000 1.0
C      1  0.4050260000000  0.5702370000000  0.4292000000000 1.0
C      1  0.4486850000000  0.4832750000000  0.5186440000000 1.0
C      1  0.3723100000000  0.4823660000000  0.4883650000000 1.0
C      1  0.5132730000000  0.4589130000000  0.5951760000000 1.0
C      1  0.4759880000000  0.4781560000000  0.5099330000000 1.0
C      1  0.5124730000000  0.4855800000000  0.6047250000000 1.0
C      1  0.4296050000000  0.3946700000000  0.5291940000000 1.0
C      1  0.4751410000000  0.4960310000000  0.4061260000000 1.0
C      1  0.4868960000000  0.4977790000000  0.6029320000000 1.0
C      1  0.4894600000000  0.5597200000000  0.5488070000000 1.0
C      1  0.5519600000000  0.4103510000000  0.5862630000000 1.0
C      1  0.4384480000000  0.4160010000000  0.5455870000000 1.0
C      1  0.5216220000000  0.5295920000000  0.5032610000000 1.0
C      1  0.4890550000000  0.6275330000000  0.5516240000000 1.0
C      1  0.4020910000000  0.5232050000000  0.5446070000000 1.0
C      1  0.4555240000000  0.5225170000000  0.6383720000000 1.0
C      1  0.5601450000000  0.4404940000000  0.5063890000000 1.0
C      1  0.4762190000000  0.5598100000000  0.4559910000000 1.0
C      1  0.4607950000000  0.5525000000000  0.3851630000000 1.0
C      1  0.4760980000000  0.4827810000000  0.4314100000000 1.0
C      1  0.4648220000000  0.4946070000000  0.4541060000000 1.0
C      1  0.5305260000000  0.3959610000000  0.5128200000000 1.0
C      1  0.4648130000000  0.5672850000000  0.5645710000000 1.0
C      1  0.6037130000000  0.5341470000000  0.5139750000000 1.0
C      1  0.4269290000000  0.4421920000000  0.5469410000000 1.0
C      1  0.4628730000000  0.4331340000000  0.5005130000000 1.0
C      1  0.4279910000000  0.4508410000000  0.5929290000000 1.0
C      1  0.4285700000000  0.5838100000000  0.4365430000000 1.0
C      1  0.5544510000000  0.5201510000000  0.3945850000000 1.0
C      1  0.5889080000000  0.4869270000000  0.5696120000000 1.0
C      1  0.4944800000000  0.4546620000000  0.4700840000000 1.0
C      1  0.5711290000000  0.4054340000000  0.4437200000000 1.0
C      1  0.4883640000000  0.5961170000000  0.4868890000000 1.0
C      1  0.5673350000000  0.5721020000000  0.4645670000000 1.0
C      1  0.5946230000000  0.5154530000000  0.4217640000000 1.0
C      1  0.5004390000000  0.5049090000000  0.3933260000000 1.0
C      1  0.5192050000000  0.5137050000000  0.4370320000000 1.0
C      1  0.4755320000000  0.4996030000000  0.5768650000000 1.0
C      1  0.4671080000000  0.3841900000000  0.4631940000000 1.0
C      1  0.4674820000000  0.4183210000000  0.5478060000000 1.0
C      1  0.5235440000000  0.4290560000000  0.4358690000000 1.0
C      1  0.4139670000000  0.4892830000000  0.4329680000000 1.0
C      1  0.4350420000000  0.4590140000000  0.5254310000000 1.0
C      1  0.3902640000000  0.4782760000000  0.5301780000000 1.0
C      1  0.5317060000000  0.5737800000000  0.5888640000000 1.0
C      1  0.5326120000000  0.4507250000000  0.5046430000000 1.0
C      1  0.4252600000000  0.4664310000000  0.4467400000000 1.0
C      1  0.4431750000000  0.4811240000000  0.4647120000000 1.0
C      1  0.4356780000000  0.3825390000000  0.5058840000000 1.0
C      1  0.6151340000000  0.5061300000000  0.4684350000000 1.0
C      1  0.5774370000000  0.4264110000000  0.4270740000000 1.0
C      1  0.4719220000000  0.6091780000000  0.5375330000000 1.0
C      1  0.4557950000000  0.5190450000000  0.5728650000000 1.0
C      1  0.5938520000000  0.5414260000000  0.4102490000000 1.0
C      1  0.3913810000000  0.5295560000000  0.4545050000000 1.0
C      1  0.5066180000000  0.5414680000000  0.5618030000000 1.0
C      1  0.4146690000000  0.4557160000000  0.5681970000000 1.0
C      1  0.5423010000000  0.5041920000000  0.5547160000000 1.0
C      1  0.4257260000000  0.4993660000000  0.4788410000000 1.0
C      1  0.4375700000000  0.5315620000000  0.5131140000000 1.0
C      1  0.4340820000000  0.4408800000000  0.5023270000000 1.0
C      1  0.5273270000000  0.4712830000000  0.5229860000000 1.0
C      1  0.4768240000000  0.4565790000000  0.4913240000000 1.0
C      1  0.6080460000000  0.5547040000000  0.4953280000000 1.0
C      1  0.4556230000000  0.6125890000000  0.4083500000000 1.0
C      1  0.4862340000000  0.3927450000000  0.4464650000000 1.0
C      1  0.4515500000000  0.5279590000000  0.3793860000000 1.0
C      1  0.5027100000000  0.4029950000000  0.5147120000000 1.0
C      1  0.3746800000000  0.5308630000000  0.4774920000000 1.0
C      1  0.4358330000000  0.5728900000000  0.4864490000000 1.0
C      1  0.5917340000000  0.5679260000000  0.4782260000000 1.0
C      1  0.5423010000000  0.5838250000000  0.5441790000000 1.0
C      1  0.4269480000000  0.5373400000000  0.5391930000000 1.0
C      1  0.3959480000000  0.5437280000000  0.4297350000000 1.0
C      1  0.5266610000000  0.5130940000000  0.3894670000000 1.0
END
