TITL C-3201373-1215-530 -7.85267773948963e-07 125000 -855.010714871206 0 0 138 (C1) n - 1
REM
REM in /home/nfs/bkarasulu/CARBON/AIRSS/Generating-Clusters/LCBOP/Higher-Symm/SD-CG/FIRE-CG
REM
REM
REM
REM
REM
REM ./C.cell (b20cbc046b6831c77cfcea5457e17084)
REM AIRSS Version 0.9.1 bugfix July 2018 build 013d7b7c2542+ Fri, 06 Jul 2018 19:26:36 +0100
REM compiler GCC version 9.2.1 20190827 (Red Hat 9.2.1-1)
REM options -cpp -mtune=generic -march=x86-64 -g -O0 -fpre-include=/usr/include/finclude/math-vector-fortran.h
REM seed 479900289 -1273515787 873806755 745307875 1295330669 605421887 189201778 740042338 1007170282 -710257523 -1075862223 800456471 998758706 -580657165 2016681585 -583340505 -1282838215 -467024242 1497906907 -748985990 -1135567087 1522915758 636132065 -1478238049 -5107511 235497942 -1039264265 1180697948 27403985 1208630427 -795361605 357159690 1357413750
REM
CELL 1.54180   50.00000   50.00000   50.00000   90.00000   90.00000   90.00000
LATT -1
SFAC C  
C      1  0.5283080000000  0.5175640000000  0.4789110000000 1.0
C      1  0.4972290000000  0.4660970000000  0.4858140000000 1.0
C      1  0.4550690000000  0.5129690000000  0.4773060000000 1.0
C      1  0.5054940000000  0.5285050000000  0.5966460000000 1.0
C      1  0.5279600000000  0.4842030000000  0.5998340000000 1.0
C      1  0.4776780000000  0.4874830000000  0.6012640000000 1.0
C      1  0.4768210000000  0.4187340000000  0.5537610000000 1.0
C      1  0.4501260000000  0.5665990000000  0.5426040000000 1.0
C      1  0.5813410000000  0.5116120000000  0.5420630000000 1.0
C      1  0.5508450000000  0.5820410000000  0.5435910000000 1.0
C      1  0.5549560000000  0.4107310000000  0.5477730000000 1.0
C      1  0.4079720000000  0.5024460000000  0.5401470000000 1.0
C      1  0.4336140000000  0.4744190000000  0.4567900000000 1.0
C      1  0.5141080000000  0.5588900000000  0.4611240000000 1.0
C      1  0.5383960000000  0.4553220000000  0.4650450000000 1.0
C      1  0.5758350000000  0.4613710000000  0.5536300000000 1.0
C      1  0.4322450000000  0.4531280000000  0.5620920000000 1.0
C      1  0.4983910000000  0.5795690000000  0.5522160000000 1.0
C      1  0.4363790000000  0.5185230000000  0.4131800000000 1.0
C      1  0.5523430000000  0.5602060000000  0.4105290000000 1.0
C      1  0.5288800000000  0.4361690000000  0.4151490000000 1.0
C      1  0.4783820000000  0.5421340000000  0.4285990000000 1.0
C      1  0.5423330000000  0.4872360000000  0.4041940000000 1.0
C      1  0.4626090000000  0.4689680000000  0.4044570000000 1.0
C      1  0.4815340000000  0.5518090000000  0.4992670000000 1.0
C      1  0.5508640000000  0.4842140000000  0.5040820000000 1.0
C      1  0.4517470000000  0.4526190000000  0.5045560000000 1.0
C      1  0.5514390000000  0.4807010000000  0.4576880000000 1.0
C      1  0.4397470000000  0.4469250000000  0.4525370000000 1.0
C      1  0.4900100000000  0.5626450000000  0.4442500000000 1.0
C      1  0.5420680000000  0.5559580000000  0.5948060000000 1.0
C      1  0.5360950000000  0.4392530000000  0.6024420000000 1.0
C      1  0.4351340000000  0.5066590000000  0.5962990000000 1.0
C      1  0.3853680000000  0.4720390000000  0.4507560000000 1.0
C      1  0.4995880000000  0.5954290000000  0.4875380000000 1.0
C      1  0.5826780000000  0.4537440000000  0.4855790000000 1.0
C      1  0.5600560000000  0.4003260000000  0.5204850000000 1.0
C      1  0.3978020000000  0.4987150000000  0.5133080000000 1.0
C      1  0.5558560000000  0.5966810000000  0.5192760000000 1.0
C      1  0.5265620000000  0.5506520000000  0.5213960000000 1.0
C      1  0.5365810000000  0.4459740000000  0.5268730000000 1.0
C      1  0.4500910000000  0.4890010000000  0.5387240000000 1.0
C      1  0.4920110000000  0.5237380000000  0.5396000000000 1.0
C      1  0.5198000000000  0.4851490000000  0.5433280000000 1.0
C      1  0.4770430000000  0.4623140000000  0.5614740000000 1.0
C      1  0.4742440000000  0.5859560000000  0.4508580000000 1.0
C      1  0.5792650000000  0.4838430000000  0.4503030000000 1.0
C      1  0.4525780000000  0.4236870000000  0.4574040000000 1.0
C      1  0.4508660000000  0.4791310000000  0.5129890000000 1.0
C      1  0.5014340000000  0.5366220000000  0.5143010000000 1.0
C      1  0.5344240000000  0.4734340000000  0.5231070000000 1.0
C      1  0.5232150000000  0.5781230000000  0.4835140000000 1.0
C      1  0.5563980000000  0.4387650000000  0.4845100000000 1.0
C      1  0.4070840000000  0.4804090000000  0.4669780000000 1.0
C      1  0.4648660000000  0.4964000000000  0.4971510000000 1.0
C      1  0.5077420000000  0.5144670000000  0.4965730000000 1.0
C      1  0.4924410000000  0.4917680000000  0.4955490000000 1.0
C      1  0.4411550000000  0.5425940000000  0.5606420000000 1.0
C      1  0.5697940000000  0.5312710000000  0.5623450000000 1.0
C      1  0.5014750000000  0.4205280000000  0.5727800000000 1.0
C      1  0.4106200000000  0.5392230000000  0.4482370000000 1.0
C      1  0.5688240000000  0.5642970000000  0.4532180000000 1.0
C      1  0.5291700000000  0.4061850000000  0.4516040000000 1.0
C      1  0.4322580000000  0.5694490000000  0.5176680000000 1.0
C      1  0.5775160000000  0.5250730000000  0.5142700000000 1.0
C      1  0.4899540000000  0.4139780000000  0.5259460000000 1.0
C      1  0.5475590000000  0.5676010000000  0.3847630000000 1.0
C      1  0.5366210000000  0.4608670000000  0.4032570000000 1.0
C      1  0.4479340000000  0.4929520000000  0.4037020000000 1.0
C      1  0.5076760000000  0.4400810000000  0.5942890000000 1.0
C      1  0.4524480000000  0.5273270000000  0.5841150000000 1.0
C      1  0.5527150000000  0.5297970000000  0.5857880000000 1.0
C      1  0.5164040000000  0.4248780000000  0.5287100000000 1.0
C      1  0.4116710000000  0.5499690000000  0.5233950000000 1.0
C      1  0.5552460000000  0.5431830000000  0.5198470000000 1.0
C      1  0.5862660000000  0.5111450000000  0.4616700000000 1.0
C      1  0.4763690000000  0.4118860000000  0.4689610000000 1.0
C      1  0.4476710000000  0.5782760000000  0.4626840000000 1.0
C      1  0.5002950000000  0.4302650000000  0.4225500000000 1.0
C      1  0.4505000000000  0.5420720000000  0.4251080000000 1.0
C      1  0.5617740000000  0.5333680000000  0.4190600000000 1.0
C      1  0.5814170000000  0.4792500000000  0.5045480000000 1.0
C      1  0.4474920000000  0.4274580000000  0.5173980000000 1.0
C      1  0.4770750000000  0.5815990000000  0.5044690000000 1.0
C      1  0.5714440000000  0.4665750000000  0.5811820000000 1.0
C      1  0.4377240000000  0.4574040000000  0.5903770000000 1.0
C      1  0.4982780000000  0.5751750000000  0.5801520000000 1.0
C      1  0.5129550000000  0.5565260000000  0.5951360000000 1.0
C      1  0.5493600000000  0.4645670000000  0.5983630000000 1.0
C      1  0.4488710000000  0.4812450000000  0.6011430000000 1.0
C      1  0.5006060000000  0.4683440000000  0.5534970000000 1.0
C      1  0.4679560000000  0.5100530000000  0.5436650000000 1.0
C      1  0.5154700000000  0.5115470000000  0.5497430000000 1.0
C      1  0.5302730000000  0.5119100000000  0.5946300000000 1.0
C      1  0.5011030000000  0.4701490000000  0.6004960000000 1.0
C      1  0.4797340000000  0.5169330000000  0.5937910000000 1.0
C      1  0.5853380000000  0.4825090000000  0.5359570000000 1.0
C      1  0.4484010000000  0.4302850000000  0.5474900000000 1.0
C      1  0.4750970000000  0.5806020000000  0.5358320000000 1.0
C      1  0.3872760000000  0.5063870000000  0.4170920000000 1.0
C      1  0.5257510000000  0.5973730000000  0.4412380000000 1.0
C      1  0.5739010000000  0.4346850000000  0.4397110000000 1.0
C      1  0.4172380000000  0.5304430000000  0.5449430000000 1.0
C      1  0.5649020000000  0.5561830000000  0.5460990000000 1.0
C      1  0.5256090000000  0.4119620000000  0.5548680000000 1.0
C      1  0.4341150000000  0.5568650000000  0.4462140000000 1.0
C      1  0.5762070000000  0.5357770000000  0.4457030000000 1.0
C      1  0.4999660000000  0.4128410000000  0.4486830000000 1.0
C      1  0.4702970000000  0.4106650000000  0.5047670000000 1.0
C      1  0.4466870000000  0.5818080000000  0.4935320000000 1.0
C      1  0.5887460000000  0.5083990000000  0.4921750000000 1.0
C      1  0.4791540000000  0.4950460000000  0.4408590000000 1.0
C      1  0.5195630000000  0.5197790000000  0.4324780000000 1.0
C      1  0.4936850000000  0.4708650000000  0.4401240000000 1.0
C      1  0.4537000000000  0.4957230000000  0.4545970000000 1.0
C      1  0.5253350000000  0.5335100000000  0.4569200000000 1.0
C      1  0.5104870000000  0.4617100000000  0.4617660000000 1.0
C      1  0.5472420000000  0.4226090000000  0.4336410000000 1.0
C      1  0.4093850000000  0.5220580000000  0.4240900000000 1.0
C      1  0.5491770000000  0.5776190000000  0.4340050000000 1.0
C      1  0.4012980000000  0.5277080000000  0.4724370000000 1.0
C      1  0.5711600000000  0.5772100000000  0.4777840000000 1.0
C      1  0.5402240000000  0.3952720000000  0.4751260000000 1.0
C      1  0.5604200000000  0.4395390000000  0.5433470000000 1.0
C      1  0.4253370000000  0.4804460000000  0.5503160000000 1.0
C      1  0.5228690000000  0.5731810000000  0.5399030000000 1.0
C      1  0.5449350000000  0.4966070000000  0.4797700000000 1.0
C      1  0.4748550000000  0.4505680000000  0.4886040000000 1.0
C      1  0.4632630000000  0.5388350000000  0.4820710000000 1.0
C      1  0.3767400000000  0.4842860000000  0.4283020000000 1.0
C      1  0.4957700000000  0.6038510000000  0.4593860000000 1.0
C      1  0.5883600000000  0.4561560000000  0.4555640000000 1.0
C      1  0.4918540000000  0.5173690000000  0.4289200000000 1.0
C      1  0.5418050000000  0.5127550000000  0.4163190000000 1.0
C      1  0.4833180000000  0.4538200000000  0.4192880000000 1.0
C      1  0.5538990000000  0.4111780000000  0.4941230000000 1.0
C      1  0.4015460000000  0.5021270000000  0.4852730000000 1.0
C      1  0.5494710000000  0.5863220000000  0.4932640000000 1.0
END
