TITL C-3201378-2706-1535 0.00604064876833703 125000 -751.531973212917 0 0 125 (C1) n - 1
REM
REM in /home/nfs/bkarasulu/CARBON/AIRSS/Generating-Clusters/LCBOP/Higher-Symm/SD-CG/FIRE-CG
REM
REM
REM
REM
REM
REM ./C.cell (b20cbc046b6831c77cfcea5457e17084)
REM AIRSS Version 0.9.1 bugfix July 2018 build 013d7b7c2542+ Fri, 06 Jul 2018 19:26:36 +0100
REM compiler GCC version 9.2.1 20190827 (Red Hat 9.2.1-1)
REM options -cpp -mtune=generic -march=x86-64 -g -O0 -fpre-include=/usr/include/finclude/math-vector-fortran.h
REM seed 1005606937 1681059121 1887946385 -1069896055 2078836460 -2101241774 1149667806 -1886754985 -929078501 2041837182 -2023830199 1378958697 1504085211 336830251 1782597802 1607201455 1492735119 1416474049 378942421 336100932 1057434291 1291287645 -572255303 -834514990 1002356783 1163999593 -490062597 173118804 -1938591833 -606042959 -1233948865 -1045896477 865607981
REM
CELL 1.54180   50.00000   50.00000   50.00000   90.00000   90.00000   90.00000
LATT -1
SFAC C  
C      1  0.4354850000000  0.5581020000000  0.5548400000000 1.0
C      1  0.5816530000000  0.5237560000000  0.5657880000000 1.0
C      1  0.4771430000000  0.4143090000000  0.5643430000000 1.0
C      1  0.4660110000000  0.4382910000000  0.5748270000000 1.0
C      1  0.4611390000000  0.5541230000000  0.5657300000000 1.0
C      1  0.5648980000000  0.5024040000000  0.5734910000000 1.0
C      1  0.4532130000000  0.4255600000000  0.4791120000000 1.0
C      1  0.4505340000000  0.5815980000000  0.4753540000000 1.0
C      1  0.5737290000000  0.4988110000000  0.4784460000000 1.0
C      1  0.4364190000000  0.4486030000000  0.5319520000000 1.0
C      1  0.4890600000000  0.5741490000000  0.5200340000000 1.0
C      1  0.5701650000000  0.4713080000000  0.5283830000000 1.0
C      1  0.5168680000000  0.5960190000000  0.4325260000000 1.0
C      1  0.5695300000000  0.4378670000000  0.4330370000000 1.0
C      1  0.4108290000000  0.4727970000000  0.4322150000000 1.0
C      1  0.4177070000000  0.5010020000000  0.4290830000000 1.0
C      1  0.5384720000000  0.5757910000000  0.4264370000000 1.0
C      1  0.5408820000000  0.4304110000000  0.4289550000000 1.0
C      1  0.5028450000000  0.4017210000000  0.5210340000000 1.0
C      1  0.4324810000000  0.5464630000000  0.5054890000000 1.0
C      1  0.5796080000000  0.5517720000000  0.5234180000000 1.0
C      1  0.4987500000000  0.4605540000000  0.4097040000000 1.0
C      1  0.4614530000000  0.5251760000000  0.4061910000000 1.0
C      1  0.5373460000000  0.5248450000000  0.4023460000000 1.0
C      1  0.4832690000000  0.5678890000000  0.5509360000000 1.0
C      1  0.5673810000000  0.4763440000000  0.5588060000000 1.0
C      1  0.4411920000000  0.4492010000000  0.5618830000000 1.0
C      1  0.5798460000000  0.4299410000000  0.5067150000000 1.0
C      1  0.3989810000000  0.4674030000000  0.5096000000000 1.0
C      1  0.5193670000000  0.6074020000000  0.5048050000000 1.0
C      1  0.5055810000000  0.4642720000000  0.5992860000000 1.0
C      1  0.4647230000000  0.5104400000000  0.5979610000000 1.0
C      1  0.5226450000000  0.5250170000000  0.5995150000000 1.0
C      1  0.4689780000000  0.5419560000000  0.4282530000000 1.0
C      1  0.5501050000000  0.5091490000000  0.4236650000000 1.0
C      1  0.4809280000000  0.4586330000000  0.4322040000000 1.0
C      1  0.5813800000000  0.4634610000000  0.4417700000000 1.0
C      1  0.4261680000000  0.4519240000000  0.4449820000000 1.0
C      1  0.4898420000000  0.5913260000000  0.4444690000000 1.0
C      1  0.5290910000000  0.6086540000000  0.5320380000000 1.0
C      1  0.5768680000000  0.4181980000000  0.5329090000000 1.0
C      1  0.3907840000000  0.4790820000000  0.5345480000000 1.0
C      1  0.5057800000000  0.5559090000000  0.5034080000000 1.0
C      1  0.5419720000000  0.4666130000000  0.5200510000000 1.0
C      1  0.4530180000000  0.4718530000000  0.5235490000000 1.0
C      1  0.5551530000000  0.4179210000000  0.5496160000000 1.0
C      1  0.4050580000000  0.4977210000000  0.5487080000000 1.0
C      1  0.5385960000000  0.5886940000000  0.5481860000000 1.0
C      1  0.4161150000000  0.4433720000000  0.5086010000000 1.0
C      1  0.4907260000000  0.5988260000000  0.5009080000000 1.0
C      1  0.5863570000000  0.4589300000000  0.5047480000000 1.0
C      1  0.4568880000000  0.4717330000000  0.4700660000000 1.0
C      1  0.5060050000000  0.5524200000000  0.4554530000000 1.0
C      1  0.5408340000000  0.4732100000000  0.4543090000000 1.0
C      1  0.5309140000000  0.5352950000000  0.5505360000000 1.0
C      1  0.5117020000000  0.4481590000000  0.5463100000000 1.0
C      1  0.4587130000000  0.5089070000000  0.5479900000000 1.0
C      1  0.4800820000000  0.5207360000000  0.4703460000000 1.0
C      1  0.5271740000000  0.5126100000000  0.4662340000000 1.0
C      1  0.4995540000000  0.4738890000000  0.4752600000000 1.0
C      1  0.4374390000000  0.4935350000000  0.5060990000000 1.0
C      1  0.5339790000000  0.5643140000000  0.5003310000000 1.0
C      1  0.5356980000000  0.4403620000000  0.5039560000000 1.0
C      1  0.5432020000000  0.5257880000000  0.4468700000000 1.0
C      1  0.4968990000000  0.4524390000000  0.4563560000000 1.0
C      1  0.4597170000000  0.5291550000000  0.4525600000000 1.0
C      1  0.4770940000000  0.5949160000000  0.4730850000000 1.0
C      1  0.5870600000000  0.4725880000000  0.4771170000000 1.0
C      1  0.4246460000000  0.4322810000000  0.4754830000000 1.0
C      1  0.5316700000000  0.4741550000000  0.5931110000000 1.0
C      1  0.4596890000000  0.4823430000000  0.5941540000000 1.0
C      1  0.5008780000000  0.5438890000000  0.5918090000000 1.0
C      1  0.4335100000000  0.5369290000000  0.4596650000000 1.0
C      1  0.5636780000000  0.5439900000000  0.4556470000000 1.0
C      1  0.5009960000000  0.4239400000000  0.4589540000000 1.0
C      1  0.5378280000000  0.5906550000000  0.4899520000000 1.0
C      1  0.5562140000000  0.4246630000000  0.4915780000000 1.0
C      1  0.4117380000000  0.4880350000000  0.4946850000000 1.0
C      1  0.4954680000000  0.5434360000000  0.4802460000000 1.0
C      1  0.5452890000000  0.4924130000000  0.4754220000000 1.0
C      1  0.4617170000000  0.4514070000000  0.4877690000000 1.0
C      1  0.5304960000000  0.5634790000000  0.5584270000000 1.0
C      1  0.5357210000000  0.4360680000000  0.5601350000000 1.0
C      1  0.4316380000000  0.4993840000000  0.5586780000000 1.0
C      1  0.5594010000000  0.4819940000000  0.4333660000000 1.0
C      1  0.4540620000000  0.4624320000000  0.4429400000000 1.0
C      1  0.4868540000000  0.5628160000000  0.4367730000000 1.0
C      1  0.5225630000000  0.4745200000000  0.5412260000000 1.0
C      1  0.4727550000000  0.4830990000000  0.5451580000000 1.0
C      1  0.5106500000000  0.5165890000000  0.5586950000000 1.0
C      1  0.5281710000000  0.4161490000000  0.4512410000000 1.0
C      1  0.4137410000000  0.5172500000000  0.4529380000000 1.0
C      1  0.5575170000000  0.5714930000000  0.4486290000000 1.0
C      1  0.5224790000000  0.4439320000000  0.4113120000000 1.0
C      1  0.4362580000000  0.5113830000000  0.4097270000000 1.0
C      1  0.5374330000000  0.5539440000000  0.4069810000000 1.0
C      1  0.4723480000000  0.5363890000000  0.5879610000000 1.0
C      1  0.5406680000000  0.5026450000000  0.5923110000000 1.0
C      1  0.4782590000000  0.4594390000000  0.5926240000000 1.0
C      1  0.4888070000000  0.4000370000000  0.5444570000000 1.0
C      1  0.4251550000000  0.5581670000000  0.5299420000000 1.0
C      1  0.5889370000000  0.5409390000000  0.5464070000000 1.0
C      1  0.4980410000000  0.4823870000000  0.3929770000000 1.0
C      1  0.4811330000000  0.5151110000000  0.3898310000000 1.0
C      1  0.5167580000000  0.5129310000000  0.3882110000000 1.0
C      1  0.4944800000000  0.4736810000000  0.5043710000000 1.0
C      1  0.4926620000000  0.5034060000000  0.5116780000000 1.0
C      1  0.5193920000000  0.5137210000000  0.5116750000000 1.0
C      1  0.5483680000000  0.4583230000000  0.5746790000000 1.0
C      1  0.4379220000000  0.4762660000000  0.5755110000000 1.0
C      1  0.5052190000000  0.5649280000000  0.5711260000000 1.0
C      1  0.5541310000000  0.5482540000000  0.5120650000000 1.0
C      1  0.5102890000000  0.4260670000000  0.5082740000000 1.0
C      1  0.4456200000000  0.5211950000000  0.5072680000000 1.0
C      1  0.5559800000000  0.5915000000000  0.4687440000000 1.0
C      1  0.5468850000000  0.4082150000000  0.4710420000000 1.0
C      1  0.4012840000000  0.5040830000000  0.4744920000000 1.0
C      1  0.5809720000000  0.5261510000000  0.4713920000000 1.0
C      1  0.4758560000000  0.4112770000000  0.4676180000000 1.0
C      1  0.4342380000000  0.5580080000000  0.4795130000000 1.0
C      1  0.4693750000000  0.5202360000000  0.5228330000000 1.0
C      1  0.5392500000000  0.5279900000000  0.5248360000000 1.0
C      1  0.4956600000000  0.4471250000000  0.5209810000000 1.0
C      1  0.5006110000000  0.5013240000000  0.4656960000000 1.0
C      1  0.5016680000000  0.4907480000000  0.5520080000000 1.0
END
