TITL C-3201373-1215-1494 0.00729609915575557 125000 -700.229141726172 0 0 118 (C1) n - 1
REM
REM in /home/nfs/bkarasulu/CARBON/AIRSS/Generating-Clusters/LCBOP/Higher-Symm/SD-CG/FIRE-CG
REM
REM
REM
REM
REM
REM ./C.cell (b20cbc046b6831c77cfcea5457e17084)
REM AIRSS Version 0.9.1 bugfix July 2018 build 013d7b7c2542+ Fri, 06 Jul 2018 19:26:36 +0100
REM compiler GCC version 9.2.1 20190827 (Red Hat 9.2.1-1)
REM options -cpp -mtune=generic -march=x86-64 -g -O0 -fpre-include=/usr/include/finclude/math-vector-fortran.h
REM seed -1438916978 1029031454 -1003639340 -1525776506 1399770318 -1390594779 745161458 2126718747 50932034 1389384426 -1946049363 -142401321 1831777956 -1676497010 -410294532 906616034 -2061672559 1364480586 1541394246 -1570875616 -525625585 -1721845627 589169222 -550235009 1390482036 -1987309870 -585044135 589701394 -1322970345 -1491178050 -2026545719 -1232872612 1275252995
REM
CELL 1.54180   50.00000   50.00000   50.00000   90.00000   90.00000   90.00000
LATT -1
SFAC C  
C      1  0.5331700000000  0.4705370000000  0.4542410000000 1.0
C      1  0.5129230000000  0.5595010000000  0.5153250000000 1.0
C      1  0.5282440000000  0.4764680000000  0.5461820000000 1.0
C      1  0.4450020000000  0.5449170000000  0.5585090000000 1.0
C      1  0.4430630000000  0.4294360000000  0.5054060000000 1.0
C      1  0.4409570000000  0.5313390000000  0.4325730000000 1.0
C      1  0.5179020000000  0.4320700000000  0.5808520000000 1.0
C      1  0.5107960000000  0.4753990000000  0.4059170000000 1.0
C      1  0.5726220000000  0.6029310000000  0.5662530000000 1.0
C      1  0.5487960000000  0.4427360000000  0.5131620000000 1.0
C      1  0.5515710000000  0.5222670000000  0.4607080000000 1.0
C      1  0.5480780000000  0.5327680000000  0.5370620000000 1.0
C      1  0.5691000000000  0.5001800000000  0.5642820000000 1.0
C      1  0.5761840000000  0.4506460000000  0.4648260000000 1.0
C      1  0.5787880000000  0.5623500000000  0.4752810000000 1.0
C      1  0.5877940000000  0.4797140000000  0.5241600000000 1.0
C      1  0.5914620000000  0.4940260000000  0.4732490000000 1.0
C      1  0.5882450000000  0.5278170000000  0.5067590000000 1.0
C      1  0.5298720000000  0.4666000000000  0.5172870000000 1.0
C      1  0.5266690000000  0.5066910000000  0.4633240000000 1.0
C      1  0.5217670000000  0.5329550000000  0.5254440000000 1.0
C      1  0.4223550000000  0.5668040000000  0.4975450000000 1.0
C      1  0.4250700000000  0.4647690000000  0.5645100000000 1.0
C      1  0.4115710000000  0.4691190000000  0.4396580000000 1.0
C      1  0.5742780000000  0.5070440000000  0.4514040000000 1.0
C      1  0.5704040000000  0.5434840000000  0.5232970000000 1.0
C      1  0.5734670000000  0.4522730000000  0.5307650000000 1.0
C      1  0.4055420000000  0.5342580000000  0.5417080000000 1.0
C      1  0.4066160000000  0.4546020000000  0.4932650000000 1.0
C      1  0.4107010000000  0.5147720000000  0.4600640000000 1.0
C      1  0.4545680000000  0.4527450000000  0.4256640000000 1.0
C      1  0.4836420000000  0.6323630000000  0.4875620000000 1.0
C      1  0.4720470000000  0.4266300000000  0.5984660000000 1.0
C      1  0.4506830000000  0.5026730000000  0.3987850000000 1.0
C      1  0.4682190000000  0.5796430000000  0.5340650000000 1.0
C      1  0.4748630000000  0.4152980000000  0.5390940000000 1.0
C      1  0.4240080000000  0.5404940000000  0.4539170000000 1.0
C      1  0.4232950000000  0.5253220000000  0.5625530000000 1.0
C      1  0.4270000000000  0.4384850000000  0.4806430000000 1.0
C      1  0.5021600000000  0.4176830000000  0.5333050000000 1.0
C      1  0.4765440000000  0.5123040000000  0.4089040000000 1.0
C      1  0.4966360000000  0.5747810000000  0.5343570000000 1.0
C      1  0.4835060000000  0.4322070000000  0.4836490000000 1.0
C      1  0.4814330000000  0.5427770000000  0.4524380000000 1.0
C      1  0.4772650000000  0.5155690000000  0.5670430000000 1.0
C      1  0.4737890000000  0.4960050000000  0.4592590000000 1.0
C      1  0.4579900000000  0.5253110000000  0.5152460000000 1.0
C      1  0.4667630000000  0.4695820000000  0.5174160000000 1.0
C      1  0.5076420000000  0.5745580000000  0.5604440000000 1.0
C      1  0.5300930000000  0.4180440000000  0.5226670000000 1.0
C      1  0.4987960000000  0.5232560000000  0.3956400000000 1.0
C      1  0.4312570000000  0.5171450000000  0.5051820000000 1.0
C      1  0.4397670000000  0.4768190000000  0.5221560000000 1.0
C      1  0.4489000000000  0.4896870000000  0.4710160000000 1.0
C      1  0.4428750000000  0.5689440000000  0.5425760000000 1.0
C      1  0.4453790000000  0.4226730000000  0.5346420000000 1.0
C      1  0.4284510000000  0.5095630000000  0.4159190000000 1.0
C      1  0.4901210000000  0.4411690000000  0.5839030000000 1.0
C      1  0.4831890000000  0.4574350000000  0.4179620000000 1.0
C      1  0.4839870000000  0.6065040000000  0.4843730000000 1.0
C      1  0.5368940000000  0.4859110000000  0.4099800000000 1.0
C      1  0.5729580000000  0.5887190000000  0.5444130000000 1.0
C      1  0.5441390000000  0.4325160000000  0.5722960000000 1.0
C      1  0.5532370000000  0.4771230000000  0.5614970000000 1.0
C      1  0.5604770000000  0.4660310000000  0.4468640000000 1.0
C      1  0.5745310000000  0.5822480000000  0.4952960000000 1.0
C      1  0.4929270000000  0.4775790000000  0.4731570000000 1.0
C      1  0.4829110000000  0.5252860000000  0.4997560000000 1.0
C      1  0.4903430000000  0.4860420000000  0.5185720000000 1.0
C      1  0.5650330000000  0.4884860000000  0.4302090000000 1.0
C      1  0.5724970000000  0.5724210000000  0.5219550000000 1.0
C      1  0.5628260000000  0.4501380000000  0.5588770000000 1.0
C      1  0.5319200000000  0.5662490000000  0.4617390000000 1.0
C      1  0.5199500000000  0.4892530000000  0.5918020000000 1.0
C      1  0.5324820000000  0.4179970000000  0.4502570000000 1.0
C      1  0.5991120000000  0.4668280000000  0.4688140000000 1.0
C      1  0.5979370000000  0.5434860000000  0.4846500000000 1.0
C      1  0.5926620000000  0.4947660000000  0.5490470000000 1.0
C      1  0.5230070000000  0.4441400000000  0.4445090000000 1.0
C      1  0.5113500000000  0.5616990000000  0.4844410000000 1.0
C      1  0.5094840000000  0.4782700000000  0.5675390000000 1.0
C      1  0.5007390000000  0.5318680000000  0.4746130000000 1.0
C      1  0.5009670000000  0.5132770000000  0.5197820000000 1.0
C      1  0.5089220000000  0.4749730000000  0.4989850000000 1.0
C      1  0.5553160000000  0.5505480000000  0.4642930000000 1.0
C      1  0.5546880000000  0.5247030000000  0.5637390000000 1.0
C      1  0.5625160000000  0.4385850000000  0.4864650000000 1.0
C      1  0.5158180000000  0.5154020000000  0.5981920000000 1.0
C      1  0.5210080000000  0.3997430000000  0.4687800000000 1.0
C      1  0.5215150000000  0.5674960000000  0.4347470000000 1.0
C      1  0.4679330000000  0.4438990000000  0.5033700000000 1.0
C      1  0.4699420000000  0.5197560000000  0.4380980000000 1.0
C      1  0.4643720000000  0.5284590000000  0.5447990000000 1.0
C      1  0.4354550000000  0.5587500000000  0.4731200000000 1.0
C      1  0.4353800000000  0.4916520000000  0.5692000000000 1.0
C      1  0.4324880000000  0.4504290000000  0.4464990000000 1.0
C      1  0.4952890000000  0.4073960000000  0.4784190000000 1.0
C      1  0.4937740000000  0.5628430000000  0.4341950000000 1.0
C      1  0.4947760000000  0.5299050000000  0.5845440000000 1.0
C      1  0.4145290000000  0.4704600000000  0.5139320000000 1.0
C      1  0.4277110000000  0.5043610000000  0.4805460000000 1.0
C      1  0.4066860000000  0.5192520000000  0.5191940000000 1.0
C      1  0.4105760000000  0.4972750000000  0.4357510000000 1.0
C      1  0.4204120000000  0.5658360000000  0.5257970000000 1.0
C      1  0.4313980000000  0.4399390000000  0.5538070000000 1.0
C      1  0.5209860000000  0.5385620000000  0.3956040000000 1.0
C      1  0.5112520000000  0.5531670000000  0.5772060000000 1.0
C      1  0.5395620000000  0.3930250000000  0.5126960000000 1.0
C      1  0.5365420000000  0.3849380000000  0.4870360000000 1.0
C      1  0.5334110000000  0.5570080000000  0.4112280000000 1.0
C      1  0.5418160000000  0.5373070000000  0.5847340000000 1.0
C      1  0.4958300000000  0.4449500000000  0.4394520000000 1.0
C      1  0.4849650000000  0.5790470000000  0.4809550000000 1.0
C      1  0.4835270000000  0.4676200000000  0.5729300000000 1.0
C      1  0.4851280000000  0.4515210000000  0.4641150000000 1.0
C      1  0.4638280000000  0.5621880000000  0.4696800000000 1.0
C      1  0.4645640000000  0.4901880000000  0.5730330000000 1.0
C      1  0.5886210000000  0.4995480000000  0.5016470000000 1.0
END
