TITL C-3201379-3821-1893 -29.9420703406849 125000 -278.222768998521 0 0 49 (C1) n - 1
REM
REM in /home/nfs/bkarasulu/CARBON/AIRSS/Generating-Clusters/LCBOP/Higher-Symm/SD-CG/FIRE-CG
REM
REM
REM
REM
REM
REM ./C.cell (b20cbc046b6831c77cfcea5457e17084)
REM AIRSS Version 0.9.1 bugfix July 2018 build 013d7b7c2542+ Fri, 06 Jul 2018 19:26:36 +0100
REM compiler GCC version 9.2.1 20190827 (Red Hat 9.2.1-1)
REM options -cpp -mtune=generic -march=x86-64 -g -O0 -fpre-include=/usr/include/finclude/math-vector-fortran.h
REM seed 2141280781 972455224 -114570859 -696007754 63438083 1333331865 2083826453 1268963338 879247294 2016070584 1616115609 -8827041 1629630307 1958990006 -2027416947 -1389096018 -173247916 -394780139 -666051433 1243765429 -1146147304 -1735529619 700831942 -159010377 925306958 -696190882 -1550052138 1357178545 1639830208 771303881 639781481 -1397175751 -2021664374
REM
CELL 1.54180   50.00000   50.00000   50.00000   90.00000   90.00000   90.00000
LATT -1
SFAC C  
C      1  0.4850020000000  0.4603210000000  0.4486930000000 1.0
C      1  0.4934120000000  0.5655610000000  0.4928440000000 1.0
C      1  0.4953730000000  0.4709330000000  0.5660010000000 1.0
C      1  0.4284410000000  0.5245200000000  0.4577920000000 1.0
C      1  0.4282060000000  0.5174910000000  0.5342730000000 1.0
C      1  0.4433660000000  0.4539440000000  0.4838490000000 1.0
C      1  0.4844420000000  0.5567930000000  0.5188660000000 1.0
C      1  0.4858840000000  0.4531090000000  0.5454050000000 1.0
C      1  0.4861800000000  0.4890920000000  0.4404430000000 1.0
C      1  0.4777300000000  0.5831780000000  0.4787110000000 1.0
C      1  0.4805190000000  0.4737120000000  0.5889640000000 1.0
C      1  0.4608940000000  0.4519820000000  0.4615180000000 1.0
C      1  0.5147270000000  0.4765920000000  0.5163680000000 1.0
C      1  0.5069690000000  0.4970930000000  0.4582020000000 1.0
C      1  0.5163070000000  0.5249270000000  0.5195850000000 1.0
C      1  0.5337260000000  0.4951090000000  0.4487200000000 1.0
C      1  0.5377120000000  0.5424680000000  0.5267170000000 1.0
C      1  0.5367850000000  0.4599260000000  0.5246370000000 1.0
C      1  0.5409800000000  0.5232920000000  0.4477560000000 1.0
C      1  0.5423200000000  0.5328990000000  0.5537480000000 1.0
C      1  0.5408810000000  0.4425390000000  0.5021130000000 1.0
C      1  0.4195390000000  0.4687380000000  0.4839160000000 1.0
C      1  0.4078330000000  0.5132020000000  0.4707300000000 1.0
C      1  0.4129510000000  0.5034600000000  0.5174820000000 1.0
C      1  0.5405440000000  0.5575310000000  0.5019320000000 1.0
C      1  0.5415860000000  0.4696420000000  0.5511950000000 1.0
C      1  0.5360550000000  0.4661820000000  0.4476500000000 1.0
C      1  0.5177480000000  0.4373840000000  0.4849410000000 1.0
C      1  0.5198780000000  0.5431630000000  0.4543500000000 1.0
C      1  0.5204680000000  0.5154630000000  0.5638830000000 1.0
C      1  0.4960080000000  0.4295840000000  0.5016690000000 1.0
C      1  0.4952020000000  0.5379630000000  0.4380070000000 1.0
C      1  0.4947090000000  0.5285620000000  0.5600650000000 1.0
C      1  0.4763940000000  0.5403050000000  0.5411790000000 1.0
C      1  0.4781090000000  0.4411190000000  0.5205690000000 1.0
C      1  0.4740980000000  0.5162850000000  0.4370250000000 1.0
C      1  0.4558820000000  0.5204920000000  0.4591330000000 1.0
C      1  0.4497250000000  0.5312690000000  0.5417710000000 1.0
C      1  0.4529360000000  0.4460420000000  0.5092030000000 1.0
C      1  0.5130320000000  0.4502710000000  0.4585850000000 1.0
C      1  0.5191800000000  0.5571610000000  0.4813500000000 1.0
C      1  0.5206610000000  0.4857230000000  0.5636520000000 1.0
C      1  0.5175350000000  0.5018600000000  0.5029750000000 1.0
C      1  0.5730760000000  0.5005260000000  0.4931720000000 1.0
C      1  0.5991140000000  0.4994240000000  0.4928750000000 1.0
C      1  0.4703920000000  0.5145170000000  0.4833650000000 1.0
C      1  0.4972050000000  0.5048050000000  0.4828830000000 1.0
C      1  0.5465680000000  0.5014020000000  0.4938650000000 1.0
C      1  0.4094670000000  0.4939620000000  0.4912600000000 1.0
END
