TITL C-3201377-4638-2164 -1.26458002575786e-07 125000 -306.113401648651 0 0 49 (C1) n - 1
REM
REM in /home/nfs/bkarasulu/CARBON/AIRSS/Generating-Clusters/LCBOP/Higher-Symm/SD-CG/FIRE-CG
REM
REM
REM
REM
REM
REM ./C.cell (b20cbc046b6831c77cfcea5457e17084)
REM AIRSS Version 0.9.1 bugfix July 2018 build 013d7b7c2542+ Fri, 06 Jul 2018 19:26:36 +0100
REM compiler GCC version 9.2.1 20190827 (Red Hat 9.2.1-1)
REM options -cpp -mtune=generic -march=x86-64 -g -O0 -fpre-include=/usr/include/finclude/math-vector-fortran.h
REM seed 2066257110 -672910093 1692073463 1663109118 -1640550833 -1216626519 -552212407 440192369 920405329 -1142035531 -1366093996 1939057640 2069166283 294415832 -918830589 -12305694 -123812852 -131315926 -1537193868 650712103 804516391 -294752570 -758247351 -1680341538 356597166 -1653088517 676508107 1641917114 -469006173 -1739282418 1238082607 88607716 -600974502
REM
CELL 1.54180   50.00000   50.00000   50.00000   90.00000   90.00000   90.00000
LATT -1
SFAC C  
C      1  0.4579180000000  0.5188760000000  0.4845990000000 1.0
C      1  0.5220800000000  0.5423860000000  0.4828300000000 1.0
C      1  0.5394160000000  0.4785540000000  0.4846940000000 1.0
C      1  0.4741060000000  0.4597900000000  0.4833920000000 1.0
C      1  0.4582320000000  0.5163680000000  0.5135680000000 1.0
C      1  0.5313500000000  0.5476390000000  0.5097610000000 1.0
C      1  0.5401680000000  0.4730590000000  0.5131300000000 1.0
C      1  0.4706110000000  0.4591280000000  0.5133790000000 1.0
C      1  0.4814360000000  0.5194720000000  0.5293480000000 1.0
C      1  0.5277230000000  0.5260120000000  0.5271170000000 1.0
C      1  0.5138080000000  0.4738410000000  0.5273420000000 1.0
C      1  0.4559360000000  0.4733820000000  0.5343100000000 1.0
C      1  0.4750220000000  0.5348770000000  0.4677630000000 1.0
C      1  0.5366280000000  0.5245390000000  0.4660340000000 1.0
C      1  0.5216810000000  0.4650630000000  0.4660340000000 1.0
C      1  0.4599570000000  0.4752600000000  0.4636090000000 1.0
C      1  0.5192260000000  0.4722010000000  0.4383650000000 1.0
C      1  0.4697470000000  0.4796150000000  0.4368950000000 1.0
C      1  0.4790730000000  0.5285620000000  0.4397890000000 1.0
C      1  0.5287420000000  0.5208160000000  0.4388020000000 1.0
C      1  0.5188010000000  0.4754790000000  0.5576690000000 1.0
C      1  0.4678220000000  0.4778200000000  0.5614220000000 1.0
C      1  0.4813010000000  0.5239710000000  0.5583120000000 1.0
C      1  0.5319160000000  0.5216070000000  0.5557870000000 1.0
C      1  0.5071010000000  0.4235550000000  0.4877940000000 1.0
C      1  0.4174570000000  0.4918900000000  0.4834490000000 1.0
C      1  0.4901760000000  0.5780140000000  0.4893880000000 1.0
C      1  0.5755440000000  0.5092500000000  0.4940830000000 1.0
C      1  0.5057410000000  0.4254040000000  0.5149320000000 1.0
C      1  0.4159690000000  0.4917170000000  0.5106440000000 1.0
C      1  0.5065680000000  0.5889220000000  0.5082460000000 1.0
C      1  0.5786450000000  0.5011660000000  0.5199970000000 1.0
C      1  0.5001520000000  0.4480530000000  0.4749600000000 1.0
C      1  0.4432740000000  0.4965670000000  0.4727160000000 1.0
C      1  0.4949450000000  0.5522170000000  0.4784060000000 1.0
C      1  0.5524230000000  0.5038990000000  0.4782410000000 1.0
C      1  0.4961900000000  0.4506490000000  0.5234160000000 1.0
C      1  0.4405260000000  0.4954730000000  0.5241900000000 1.0
C      1  0.5276330000000  0.5746080000000  0.5180310000000 1.0
C      1  0.5582840000000  0.4862320000000  0.5330320000000 1.0
C      1  0.4644310000000  0.5048550000000  0.5710630000000 1.0
C      1  0.5076040000000  0.5294940000000  0.5694020000000 1.0
C      1  0.5418280000000  0.4939390000000  0.5572820000000 1.0
C      1  0.4938030000000  0.4679570000000  0.5696630000000 1.0
C      1  0.4658790000000  0.5064520000000  0.4280880000000 1.0
C      1  0.5052610000000  0.5340230000000  0.4300160000000 1.0
C      1  0.5331420000000  0.4947180000000  0.4286650000000 1.0
C      1  0.4933460000000  0.4670620000000  0.4276820000000 1.0
C      1  0.5057780000000  0.5077050000000  0.5211430000000 1.0
END
