TITL C-3201372-1405-449 0.0496634399943111 125000 -465.494568770537 0 0 77 (C3) n - 1
REM
REM in /home/nfs/bkarasulu/CARBON/AIRSS/Generating-Clusters/LCBOP/Higher-Symm/SD-CG/FIRE-CG
REM
REM
REM
REM
REM
REM ./C.cell (b20cbc046b6831c77cfcea5457e17084)
REM AIRSS Version 0.9.1 bugfix July 2018 build 013d7b7c2542+ Fri, 06 Jul 2018 19:26:36 +0100
REM compiler GCC version 9.2.1 20190827 (Red Hat 9.2.1-1)
REM options -cpp -mtune=generic -march=x86-64 -g -O0 -fpre-include=/usr/include/finclude/math-vector-fortran.h
REM seed 898116328 -463347652 2040215013 893123061 -647251226 731938895 -574666975 265146048 -1961128322 -1399144308 458438704 1401247566 -92007020 499530433 -126771463 859295768 1450240368 -10666059 1312169363 -71310863 1451780817 -1439973985 -877510717 -916455768 154652863 1922299424 1892646593 86050626 489493000 -206920202 1472212260 -1805719370 253360646
REM
CELL 1.54180   50.00000   50.00000   50.00000   90.00000   90.00000   90.00000
LATT -1
SFAC C  
C      1  0.4218330000000  0.4792510000000  0.5177640000000 1.0
C      1  0.5545250000000  0.4791880000000  0.5586530000000 1.0
C      1  0.5235900000000  0.4792500000000  0.4232950000000 1.0
C      1  0.4218480000000  0.5071170000000  0.5177950000000 1.0
C      1  0.5545500000000  0.5070540000000  0.5586490000000 1.0
C      1  0.5235800000000  0.5071160000000  0.4232990000000 1.0
C      1  0.4460330000000  0.5376970000000  0.6130920000000 1.0
C      1  0.6249930000000  0.5376790000000  0.4900820000000 1.0
C      1  0.4289840000000  0.5377840000000  0.3966030000000 1.0
C      1  0.4368390000000  0.5156590000000  0.6016300000000 1.0
C      1  0.6196590000000  0.5156300000000  0.5037570000000 1.0
C      1  0.4434890000000  0.5157340000000  0.3943660000000 1.0
C      1  0.5222260000000  0.5525320000000  0.5404950000000 1.0
C      1  0.5240290000000  0.5525610000000  0.4604090000000 1.0
C      1  0.4537710000000  0.5525720000000  0.4988910000000 1.0
C      1  0.5221390000000  0.4337530000000  0.5404870000000 1.0
C      1  0.5240410000000  0.4337820000000  0.4603850000000 1.0
C      1  0.4537190000000  0.4337930000000  0.4987880000000 1.0
C      1  0.5473390000000  0.5227720000000  0.5114830000000 1.0
C      1  0.4863410000000  0.5228160000000  0.4531410000000 1.0
C      1  0.4663150000000  0.5227920000000  0.5351370000000 1.0
C      1  0.5473000000000  0.4634870000000  0.5114920000000 1.0
C      1  0.4863560000000  0.4635300000000  0.4531180000000 1.0
C      1  0.4662740000000  0.4635070000000  0.5350840000000 1.0
C      1  0.4187050000000  0.4713940000000  0.5983080000000 1.0
C      1  0.6258410000000  0.4713490000000  0.5210840000000 1.0
C      1  0.4553940000000  0.4714630000000  0.3803110000000 1.0
C      1  0.4706210000000  0.5805110000000  0.6311140000000 1.0
C      1  0.6283160000000  0.5805190000000  0.4598150000000 1.0
C      1  0.4011190000000  0.5806190000000  0.4088970000000 1.0
C      1  0.5652380000000  0.5161500000000  0.5330020000000 1.0
C      1  0.4960260000000  0.5162150000000  0.4268740000000 1.0
C      1  0.4387230000000  0.5161930000000  0.5398780000000 1.0
C      1  0.5652020000000  0.4700690000000  0.5330090000000 1.0
C      1  0.4960410000000  0.4701340000000  0.4268620000000 1.0
C      1  0.4386950000000  0.4701120000000  0.5398310000000 1.0
C      1  0.4148640000000  0.5595080000000  0.4021890000000 1.0
C      1  0.4579350000000  0.5594100000000  0.6225470000000 1.0
C      1  0.6272350000000  0.5594040000000  0.4750670000000 1.0
C      1  0.4599480000000  0.4932020000000  0.3962820000000 1.0
C      1  0.4302640000000  0.4931410000000  0.5863980000000 1.0
C      1  0.6097510000000  0.4931030000000  0.5170470000000 1.0
C      1  0.4381560000000  0.5455010000000  0.4781830000000 1.0
C      1  0.5120990000000  0.5454420000000  0.5643650000000 1.0
C      1  0.5497630000000  0.5454680000000  0.4572380000000 1.0
C      1  0.4381280000000  0.4408540000000  0.4780600000000 1.0
C      1  0.5119850000000  0.4407950000000  0.5643600000000 1.0
C      1  0.5497940000000  0.4408220000000  0.4572480000000 1.0
C      1  0.5522810000000  0.5077220000000  0.4874770000000 1.0
C      1  0.4630770000000  0.5077640000000  0.4608500000000 1.0
C      1  0.4846200000000  0.5077220000000  0.5514160000000 1.0
C      1  0.5523030000000  0.4785330000000  0.4875000000000 1.0
C      1  0.4630800000000  0.4785750000000  0.4607950000000 1.0
C      1  0.4845640000000  0.4785330000000  0.5514170000000 1.0
C      1  0.5017530000000  0.4475220000000  0.4711290000000 1.0
C      1  0.4741700000000  0.4475160000000  0.5127310000000 1.0
C      1  0.5239900000000  0.4474970000000  0.5158170000000 1.0
C      1  0.5017480000000  0.5388140000000  0.4711580000000 1.0
C      1  0.4742180000000  0.5388080000000  0.5128000000000 1.0
C      1  0.5240460000000  0.5387890000000  0.5158210000000 1.0
C      1  0.5044260000000  0.4795420000000  0.5952770000000 1.0
C      1  0.5803570000000  0.4795700000000  0.4483700000000 1.0
C      1  0.4151660000000  0.4796260000000  0.4560650000000 1.0
C      1  0.5045940000000  0.5066450000000  0.5952350000000 1.0
C      1  0.5802420000000  0.5066730000000  0.4482690000000 1.0
C      1  0.4151410000000  0.5067290000000  0.4562390000000 1.0
C      1  0.4993020000000  0.5217080000000  0.5719690000000 1.0
C      1  0.5627420000000  0.5217260000000  0.4644970000000 1.0
C      1  0.4379490000000  0.5217710000000  0.4632930000000 1.0
C      1  0.4991350000000  0.4644910000000  0.5720060000000 1.0
C      1  0.5628460000000  0.4645080000000  0.4645740000000 1.0
C      1  0.4379520000000  0.4645540000000  0.4631150000000 1.0
C      1  0.4356730000000  0.4931300000000  0.5589190000000 1.0
C      1  0.5832490000000  0.4930900000000  0.5261020000000 1.0
C      1  0.4810410000000  0.4931680000000  0.4147070000000 1.0
C      1  0.4999720000000  0.4484450000000  0.4998920000000 1.0
C      1  0.5000040000000  0.5378620000000  0.4999260000000 1.0
END
