TITL C-3201373-1215-2285 0.274211497016604 125000 -483.872899836686 0 0 81 (C1) n - 1
REM
REM in /home/nfs/bkarasulu/CARBON/AIRSS/Generating-Clusters/LCBOP/Higher-Symm/SD-CG/FIRE-CG
REM
REM
REM
REM
REM
REM ./C.cell (b20cbc046b6831c77cfcea5457e17084)
REM AIRSS Version 0.9.1 bugfix July 2018 build 013d7b7c2542+ Fri, 06 Jul 2018 19:26:36 +0100
REM compiler GCC version 9.2.1 20190827 (Red Hat 9.2.1-1)
REM options -cpp -mtune=generic -march=x86-64 -g -O0 -fpre-include=/usr/include/finclude/math-vector-fortran.h
REM seed 1724177544 1863697276 -1922854104 734813280 -1689811081 1925166329 1821887175 -688727592 -2122870774 -274461667 53564818 -156659216 1167721253 -867935250 314117552 614137713 -684576825 -1182395705 -546943038 -1285275502 -1831024104 -1195051738 295775042 1595474159 -1380660137 -1676746001 1354440487 2059774358 1614520289 499935572 -449746277 -2017992064 952184319
REM
CELL 1.54180   50.00000   50.00000   50.00000   90.00000   90.00000   90.00000
LATT -1
SFAC C  
C      1  0.4513410000000  0.5870480000000  0.4943720000000 1.0
C      1  0.4861640000000  0.3964440000000  0.3546830000000 1.0
C      1  0.5178640000000  0.4251520000000  0.6745720000000 1.0
C      1  0.4494510000000  0.4599650000000  0.4803420000000 1.0
C      1  0.4513160000000  0.5172290000000  0.5397470000000 1.0
C      1  0.4304070000000  0.5483460000000  0.4740490000000 1.0
C      1  0.4650460000000  0.6093900000000  0.4987500000000 1.0
C      1  0.4962980000000  0.4167870000000  0.3674520000000 1.0
C      1  0.5161340000000  0.4268410000000  0.6486140000000 1.0
C      1  0.5143750000000  0.4286590000000  0.6222420000000 1.0
C      1  0.4891320000000  0.6190250000000  0.5047460000000 1.0
C      1  0.5065760000000  0.4373610000000  0.3806050000000 1.0
C      1  0.5236550000000  0.6035380000000  0.5635610000000 1.0
C      1  0.5300700000000  0.5079370000000  0.3775120000000 1.0
C      1  0.5024380000000  0.3944060000000  0.5570460000000 1.0
C      1  0.5104160000000  0.5074500000000  0.5878710000000 1.0
C      1  0.5344860000000  0.5790100000000  0.4454500000000 1.0
C      1  0.5113110000000  0.4222760000000  0.4622970000000 1.0
C      1  0.5224750000000  0.5257510000000  0.5417480000000 1.0
C      1  0.5355020000000  0.5290380000000  0.4502960000000 1.0
C      1  0.5225860000000  0.4475750000000  0.5047520000000 1.0
C      1  0.5091100000000  0.3995530000000  0.5064230000000 1.0
C      1  0.5167990000000  0.5559180000000  0.5816460000000 1.0
C      1  0.5403970000000  0.5498470000000  0.4051710000000 1.0
C      1  0.4725200000000  0.5433570000000  0.4988250000000 1.0
C      1  0.4826910000000  0.4875580000000  0.4565050000000 1.0
C      1  0.4774550000000  0.4770060000000  0.5490790000000 1.0
C      1  0.5289440000000  0.5521670000000  0.5285070000000 1.0
C      1  0.5395330000000  0.5021200000000  0.4362860000000 1.0
C      1  0.5294620000000  0.4440590000000  0.5341060000000 1.0
C      1  0.5146020000000  0.6103350000000  0.5125270000000 1.0
C      1  0.5172590000000  0.4586960000000  0.3951780000000 1.0
C      1  0.5125710000000  0.4313870000000  0.5945020000000 1.0
C      1  0.4984530000000  0.5128890000000  0.5273470000000 1.0
C      1  0.5056770000000  0.5302620000000  0.4580520000000 1.0
C      1  0.4973570000000  0.4662610000000  0.5037140000000 1.0
C      1  0.5120960000000  0.4338080000000  0.4380550000000 1.0
C      1  0.5106040000000  0.4811600000000  0.5932250000000 1.0
C      1  0.5293940000000  0.5932620000000  0.4676910000000 1.0
C      1  0.5546360000000  0.5302920000000  0.4736850000000 1.0
C      1  0.5466720000000  0.4607460000000  0.4901070000000 1.0
C      1  0.5466920000000  0.5069580000000  0.5402280000000 1.0
C      1  0.5185400000000  0.4562190000000  0.5823010000000 1.0
C      1  0.5279140000000  0.5915470000000  0.4959970000000 1.0
C      1  0.5219350000000  0.4558460000000  0.4229770000000 1.0
C      1  0.5149830000000  0.4218080000000  0.4903760000000 1.0
C      1  0.5157840000000  0.5297880000000  0.5714010000000 1.0
C      1  0.5384590000000  0.5539170000000  0.4328320000000 1.0
C      1  0.5384090000000  0.5672570000000  0.5067290000000 1.0
C      1  0.5379180000000  0.4738940000000  0.4383930000000 1.0
C      1  0.5333930000000  0.4586330000000  0.5580230000000 1.0
C      1  0.5678080000000  0.5091720000000  0.4845990000000 1.0
C      1  0.5650230000000  0.4766460000000  0.5021470000000 1.0
C      1  0.5647990000000  0.5073760000000  0.5200770000000 1.0
C      1  0.4596510000000  0.4715880000000  0.4563210000000 1.0
C      1  0.4600140000000  0.4961670000000  0.5574300000000 1.0
C      1  0.4508780000000  0.5595020000000  0.4896890000000 1.0
C      1  0.5554300000000  0.5537100000000  0.4890570000000 1.0
C      1  0.5475380000000  0.4620770000000  0.4620740000000 1.0
C      1  0.5467580000000  0.4833040000000  0.5554680000000 1.0
C      1  0.4731040000000  0.5272650000000  0.5225910000000 1.0
C      1  0.4884440000000  0.5120510000000  0.4443960000000 1.0
C      1  0.4700540000000  0.4523430000000  0.4989670000000 1.0
C      1  0.4233130000000  0.5154790000000  0.5349000000000 1.0
C      1  0.4063370000000  0.5345340000000  0.4782830000000 1.0
C      1  0.4229440000000  0.4671820000000  0.4875710000000 1.0
C      1  0.4080750000000  0.4835580000000  0.4698900000000 1.0
C      1  0.4136950000000  0.4888810000000  0.5321880000000 1.0
C      1  0.3943850000000  0.5404760000000  0.5032240000000 1.0
C      1  0.5040600000000  0.3902020000000  0.5308290000000 1.0
C      1  0.5205300000000  0.5821390000000  0.5790970000000 1.0
C      1  0.5366310000000  0.5325310000000  0.3852770000000 1.0
C      1  0.4949110000000  0.4841490000000  0.5277510000000 1.0
C      1  0.4945710000000  0.5419950000000  0.4810120000000 1.0
C      1  0.4997510000000  0.4819580000000  0.4783680000000 1.0
C      1  0.4152970000000  0.4687340000000  0.5145910000000 1.0
C      1  0.4054800000000  0.5357040000000  0.5273340000000 1.0
C      1  0.4019710000000  0.5094440000000  0.4664630000000 1.0
C      1  0.5227620000000  0.6140160000000  0.5390820000000 1.0
C      1  0.5232940000000  0.4826290000000  0.3819340000000 1.0
C      1  0.5051900000000  0.4094100000000  0.5787970000000 1.0
END
