TITL C-3201377-4638-1649 347618.184020559 125000 -940.789810104764 0 0 152 (C1) n - 1
REM
REM in /home/nfs/bkarasulu/CARBON/AIRSS/Generating-Clusters/LCBOP/Higher-Symm/SD-CG/FIRE-CG
REM
REM
REM
REM
REM
REM ./C.cell (b20cbc046b6831c77cfcea5457e17084)
REM AIRSS Version 0.9.1 bugfix July 2018 build 013d7b7c2542+ Fri, 06 Jul 2018 19:26:36 +0100
REM compiler GCC version 9.2.1 20190827 (Red Hat 9.2.1-1)
REM options -cpp -mtune=generic -march=x86-64 -g -O0 -fpre-include=/usr/include/finclude/math-vector-fortran.h
REM seed 1266042729 501695516 -486125683 1236717199 1243746176 903267823 1258579695 -1053633342 -1592676344 1035958446 773169794 427453133 -1234585460 -1005637029 501073325 1048960469 1348149308 -1494276481 2095293116 -1471453549 -500353567 248884723 -774749723 740682850 -1046793523 -849152897 -1420864023 -914190629 -305819702 -1211902237 159132555 1197014141 -977836915
REM
CELL 1.54180   50.00000   50.00000   50.00000   90.00000   90.00000   90.00000
LATT -1
SFAC C  
C      1  0.6088480000000  0.5036760000000  0.4278980000000 1.0
C      1  0.4256850000000  0.5995570000000  0.4426340000000 1.0
C      1  0.4604440000000  0.3916530000000  0.4333210000000 1.0
C      1  0.3755130000000  0.5137140000000  0.5565570000000 1.0
C      1  0.5845790000000  0.5933210000000  0.5527260000000 1.0
C      1  0.5429660000000  0.3805160000000  0.5606340000000 1.0
C      1  0.3738090000000  0.4870830000000  0.5565900000000 1.0
C      1  0.5595460000000  0.4007030000000  0.5665480000000 1.0
C      1  0.5598670000000  0.5976580000000  0.5620990000000 1.0
C      1  0.6213950000000  0.4798580000000  0.4304800000000 1.0
C      1  0.4351690000000  0.4014230000000  0.4326470000000 1.0
C      1  0.4475700000000  0.6145370000000  0.4456780000000 1.0
C      1  0.4697320000000  0.6196490000000  0.4595900000000 1.0
C      1  0.4312010000000  0.4245410000000  0.4470220000000 1.0
C      1  0.6183350000000  0.4608080000000  0.4494270000000 1.0
C      1  0.5344870000000  0.5888290000000  0.5541690000000 1.0
C      1  0.5624880000000  0.4270270000000  0.5577340000000 1.0
C      1  0.3807070000000  0.4644850000000  0.5442040000000 1.0
C      1  0.5228870000000  0.3774940000000  0.5431840000000 1.0
C      1  0.5950550000000  0.5779290000000  0.5335420000000 1.0
C      1  0.3858120000000  0.5348800000000  0.5439480000000 1.0
C      1  0.4781800000000  0.4064030000000  0.4484040000000 1.0
C      1  0.4118500000000  0.5789810000000  0.4526610000000 1.0
C      1  0.5863580000000  0.5128340000000  0.4423220000000 1.0
C      1  0.5726580000000  0.5570710000000  0.4681850000000 1.0
C      1  0.4053300000000  0.5327950000000  0.4743490000000 1.0
C      1  0.5195550000000  0.4034330000000  0.4761070000000 1.0
C      1  0.4227900000000  0.5627340000000  0.5223690000000 1.0
C      1  0.5959200000000  0.5303220000000  0.5189160000000 1.0
C      1  0.4836140000000  0.4021930000000  0.5231270000000 1.0
C      1  0.4219970000000  0.4390550000000  0.5260550000000 1.0
C      1  0.5837990000000  0.4644510000000  0.5376600000000 1.0
C      1  0.4893400000000  0.5954170000000  0.5307510000000 1.0
C      1  0.5794420000000  0.4431750000000  0.4788600000000 1.0
C      1  0.4107020000000  0.4616640000000  0.4715730000000 1.0
C      1  0.5127210000000  0.5967510000000  0.4762280000000 1.0
C      1  0.4138360000000  0.5603090000000  0.4732930000000 1.0
C      1  0.4908940000000  0.4027070000000  0.4727080000000 1.0
C      1  0.5887140000000  0.5315340000000  0.4651150000000 1.0
C      1  0.5874510000000  0.5577440000000  0.5158630000000 1.0
C      1  0.5107500000000  0.3930550000000  0.5235540000000 1.0
C      1  0.4028900000000  0.5418720000000  0.5230840000000 1.0
C      1  0.5815380000000  0.4356150000000  0.5356870000000 1.0
C      1  0.5197230000000  0.6025320000000  0.5324580000000 1.0
C      1  0.3950290000000  0.4535230000000  0.5229300000000 1.0
C      1  0.4170830000000  0.4315390000000  0.4702570000000 1.0
C      1  0.4869380000000  0.6128570000000  0.4805130000000 1.0
C      1  0.6039960000000  0.4623200000000  0.4739180000000 1.0
C      1  0.5909570000000  0.5175860000000  0.5445050000000 1.0
C      1  0.4387380000000  0.5667920000000  0.5454480000000 1.0
C      1  0.4722410000000  0.4139890000000  0.5461280000000 1.0
C      1  0.4088830000000  0.5157650000000  0.4521940000000 1.0
C      1  0.5573960000000  0.5722370000000  0.4474090000000 1.0
C      1  0.5349190000000  0.4147100000000  0.4552410000000 1.0
C      1  0.4037530000000  0.4801000000000  0.4492980000000 1.0
C      1  0.5684590000000  0.4273070000000  0.4547210000000 1.0
C      1  0.5306360000000  0.5949060000000  0.4523570000000 1.0
C      1  0.5958670000000  0.4847270000000  0.5517290000000 1.0
C      1  0.4374210000000  0.4249470000000  0.5486240000000 1.0
C      1  0.4708670000000  0.5902350000000  0.5536340000000 1.0
C      1  0.5416400000000  0.5331460000000  0.4193430000000 1.0
C      1  0.4547860000000  0.5296460000000  0.4259240000000 1.0
C      1  0.4996860000000  0.4474830000000  0.4300560000000 1.0
C      1  0.4529040000000  0.5233920000000  0.5728170000000 1.0
C      1  0.5452700000000  0.5350270000000  0.5749850000000 1.0
C      1  0.5066550000000  0.4475630000000  0.5747980000000 1.0
C      1  0.4541700000000  0.4747500000000  0.5767530000000 1.0
C      1  0.5494590000000  0.4751550000000  0.5821680000000 1.0
C      1  0.5002560000000  0.5557480000000  0.5762150000000 1.0
C      1  0.5496570000000  0.4769850000000  0.4257410000000 1.0
C      1  0.4534580000000  0.4702910000000  0.4238370000000 1.0
C      1  0.4955050000000  0.5573200000000  0.4190190000000 1.0
C      1  0.5559980000000  0.4618370000000  0.4809100000000 1.0
C      1  0.5020310000000  0.5681590000000  0.4750520000000 1.0
C      1  0.4391700000000  0.4706280000000  0.4757510000000 1.0
C      1  0.4402220000000  0.4631950000000  0.5245780000000 1.0
C      1  0.4934390000000  0.5670900000000  0.5221130000000 1.0
C      1  0.5583140000000  0.4723270000000  0.5280660000000 1.0
C      1  0.4729200000000  0.5495040000000  0.5131560000000 1.0
C      1  0.4666210000000  0.4547600000000  0.5170320000000 1.0
C      1  0.5521990000000  0.4982010000000  0.5187660000000 1.0
C      1  0.5220400000000  0.5490040000000  0.4826590000000 1.0
C      1  0.5299370000000  0.4523030000000  0.4873410000000 1.0
C      1  0.4449760000000  0.4974490000000  0.4839930000000 1.0
C      1  0.4766830000000  0.4113990000000  0.4964100000000 1.0
C      1  0.5930900000000  0.5150070000000  0.4922590000000 1.0
C      1  0.4323370000000  0.5660860000000  0.4947820000000 1.0
C      1  0.5262040000000  0.4076650000000  0.5042040000000 1.0
C      1  0.4075900000000  0.5229940000000  0.5017730000000 1.0
C      1  0.5661410000000  0.5611350000000  0.4968770000000 1.0
C      1  0.5278470000000  0.6040680000000  0.5035910000000 1.0
C      1  0.3922900000000  0.4633010000000  0.4957910000000 1.0
C      1  0.5833460000000  0.4283670000000  0.5068600000000 1.0
C      1  0.4786490000000  0.6123390000000  0.5081320000000 1.0
C      1  0.6074420000000  0.4879340000000  0.4879080000000 1.0
C      1  0.4212900000000  0.4226140000000  0.4983640000000 1.0
C      1  0.4742590000000  0.5138660000000  0.4103010000000 1.0
C      1  0.5009530000000  0.4724710000000  0.4159250000000 1.0
C      1  0.5236020000000  0.5163440000000  0.4045550000000 1.0
C      1  0.5266460000000  0.5191150000000  0.5954540000000 1.0
C      1  0.5026610000000  0.4724980000000  0.5918690000000 1.0
C      1  0.4763130000000  0.5150280000000  0.5893400000000 1.0
C      1  0.5274910000000  0.4880770000000  0.5967370000000 1.0
C      1  0.4997580000000  0.5311940000000  0.5918710000000 1.0
C      1  0.4774610000000  0.4861070000000  0.5907050000000 1.0
C      1  0.4754750000000  0.4853050000000  0.4131490000000 1.0
C      1  0.4978170000000  0.5299670000000  0.4049340000000 1.0
C      1  0.5255750000000  0.4876810000000  0.4119690000000 1.0
C      1  0.5547900000000  0.4903290000000  0.4723410000000 1.0
C      1  0.4763230000000  0.5535390000000  0.4657180000000 1.0
C      1  0.4647670000000  0.4539790000000  0.4696770000000 1.0
C      1  0.4405440000000  0.4935770000000  0.5320080000000 1.0
C      1  0.5200650000000  0.5517680000000  0.5282530000000 1.0
C      1  0.5330120000000  0.4549990000000  0.5324800000000 1.0
C      1  0.4292830000000  0.5056020000000  0.5065840000000 1.0
C      1  0.5303720000000  0.4349290000000  0.5102020000000 1.0
C      1  0.5392180000000  0.5555980000000  0.5046510000000 1.0
C      1  0.5649960000000  0.5050740000000  0.4953710000000 1.0
C      1  0.4683830000000  0.4380910000000  0.4946200000000 1.0
C      1  0.4587830000000  0.5574330000000  0.4899430000000 1.0
C      1  0.5116660000000  0.4749540000000  0.5234970000000 1.0
C      1  0.5095570000000  0.5245280000000  0.5219790000000 1.0
C      1  0.4703890000000  0.4993650000000  0.5267890000000 1.0
C      1  0.4848440000000  0.4758090000000  0.4727980000000 1.0
C      1  0.4868240000000  0.5238740000000  0.4680860000000 1.0
C      1  0.5255620000000  0.4960780000000  0.4758340000000 1.0
C      1  0.4717670000000  0.5014810000000  0.4746660000000 1.0
C      1  0.5109990000000  0.4726630000000  0.4811620000000 1.0
C      1  0.5170270000000  0.5228760000000  0.4688970000000 1.0
C      1  0.5245810000000  0.5014250000000  0.5275250000000 1.0
C      1  0.4844850000000  0.4748020000000  0.5237310000000 1.0
C      1  0.4813540000000  0.5235840000000  0.5200810000000 1.0
C      1  0.5709120000000  0.4921130000000  0.5758290000000 1.0
C      1  0.4755310000000  0.5680440000000  0.5703380000000 1.0
C      1  0.4554910000000  0.4472680000000  0.5700740000000 1.0
C      1  0.4300870000000  0.4849980000000  0.4284050000000 1.0
C      1  0.5188250000000  0.5746750000000  0.4242580000000 1.0
C      1  0.5496200000000  0.4488440000000  0.4315180000000 1.0
C      1  0.4311220000000  0.5154990000000  0.4330690000000 1.0
C      1  0.5241670000000  0.4346450000000  0.4360460000000 1.0
C      1  0.5452800000000  0.5610360000000  0.4214150000000 1.0
C      1  0.5690160000000  0.5210780000000  0.5669490000000 1.0
C      1  0.4823430000000  0.4341070000000  0.5653590000000 1.0
C      1  0.4518690000000  0.5508320000000  0.5647970000000 1.0
C      1  0.4654240000000  0.4423240000000  0.4432530000000 1.0
C      1  0.5375500000000  0.4479100000000  0.5627230000000 1.0
C      1  0.5268580000000  0.5584650000000  0.5584050000000 1.0
C      1  0.4705990000000  0.5535100000000  0.4359170000000 1.0
C      1  0.5644730000000  0.4938440000000  0.4443360000000 1.0
C      1  0.4410600000000  0.4976950000000  0.5622020000000 1.0
C      1  0.5341290000000  0.5266630000000  0.4457100000000 1.0
C      1  0.5229730000000  0.5016260000000  0.5563390000000 1.0
END
