TITL C-3201379-3821-192 -6.86719283660071e-07 125000 -554.00752957549 0 0 94 (C1) n - 1
REM
REM in /home/nfs/bkarasulu/CARBON/AIRSS/Generating-Clusters/LCBOP/Higher-Symm/SD-CG/FIRE-CG
REM
REM
REM
REM
REM
REM ./C.cell (b20cbc046b6831c77cfcea5457e17084)
REM AIRSS Version 0.9.1 bugfix July 2018 build 013d7b7c2542+ Fri, 06 Jul 2018 19:26:36 +0100
REM compiler GCC version 9.2.1 20190827 (Red Hat 9.2.1-1)
REM options -cpp -mtune=generic -march=x86-64 -g -O0 -fpre-include=/usr/include/finclude/math-vector-fortran.h
REM seed 1735613047 590831041 809123466 -714806189 13152511 -982721860 -818939725 1154091266 -955725106 2120006292 -1237304340 1092756760 -1864791814 1506348615 -553082090 927453995 12327548 762271914 -473054657 2036903432 1984188641 236045421 1957905376 -239959878 372086899 1894200167 560088354 -1831654389 -1719179548 -1047595829 -221154140 -1323470388 2147482369
REM
CELL 1.54180   50.00000   50.00000   50.00000   90.00000   90.00000   90.00000
LATT -1
SFAC C  
C      1  0.4746290000000  0.5587710000000  0.5318510000000 1.0
C      1  0.4612570000000  0.4475570000000  0.5319250000000 1.0
C      1  0.5607130000000  0.4923200000000  0.5322230000000 1.0
C      1  0.5373860000000  0.4773990000000  0.4610790000000 1.0
C      1  0.5006670000000  0.5445910000000  0.4613230000000 1.0
C      1  0.4614650000000  0.4789050000000  0.4616060000000 1.0
C      1  0.5751230000000  0.4755270000000  0.4928240000000 1.0
C      1  0.4826180000000  0.5782910000000  0.4922650000000 1.0
C      1  0.4410200000000  0.4467540000000  0.4920330000000 1.0
C      1  0.5528520000000  0.4215480000000  0.4816670000000 1.0
C      1  0.5414740000000  0.5851120000000  0.4822700000000 1.0
C      1  0.4054010000000  0.4932160000000  0.4823390000000 1.0
C      1  0.4943380000000  0.5531850000000  0.4867320000000 1.0
C      1  0.4576440000000  0.4692360000000  0.4871840000000 1.0
C      1  0.5478780000000  0.4783290000000  0.4864330000000 1.0
C      1  0.5260920000000  0.4870890000000  0.5733200000000 1.0
C      1  0.5013860000000  0.5357360000000  0.5735620000000 1.0
C      1  0.4723970000000  0.4823130000000  0.5729170000000 1.0
C      1  0.5272200000000  0.4392610000000  0.5866230000000 1.0
C      1  0.5433750000000  0.5553810000000  0.5897030000000 1.0
C      1  0.4336910000000  0.5089340000000  0.5876470000000 1.0
C      1  0.5224850000000  0.4144510000000  0.5193370000000 1.0
C      1  0.5613880000000  0.5616110000000  0.5201230000000 1.0
C      1  0.4150150000000  0.5224530000000  0.5201060000000 1.0
C      1  0.4174360000000  0.4719530000000  0.5248540000000 1.0
C      1  0.5642430000000  0.4420640000000  0.5248800000000 1.0
C      1  0.5168010000000  0.5855420000000  0.5247090000000 1.0
C      1  0.4864640000000  0.4840890000000  0.4528740000000 1.0
C      1  0.5191980000000  0.4958260000000  0.4531610000000 1.0
C      1  0.4933480000000  0.5198530000000  0.4531960000000 1.0
C      1  0.4158430000000  0.4919410000000  0.4574340000000 1.0
C      1  0.5491850000000  0.4314850000000  0.4567470000000 1.0
C      1  0.5350530000000  0.5772120000000  0.4572080000000 1.0
C      1  0.5809230000000  0.5469740000000  0.5029790000000 1.0
C      1  0.4178880000000  0.5461800000000  0.5023610000000 1.0
C      1  0.5005010000000  0.4050610000000  0.5016590000000 1.0
C      1  0.4353720000000  0.4499850000000  0.5204350000000 1.0
C      1  0.5735340000000  0.4688620000000  0.5211200000000 1.0
C      1  0.4886700000000  0.5810140000000  0.5206680000000 1.0
C      1  0.4279370000000  0.5682810000000  0.5191230000000 1.0
C      1  0.4765720000000  0.4027570000000  0.5186130000000 1.0
C      1  0.5939310000000  0.5267880000000  0.5201150000000 1.0
C      1  0.5339240000000  0.5236340000000  0.3778530000000 1.0
C      1  0.4626190000000  0.5183480000000  0.3781700000000 1.0
C      1  0.5027730000000  0.4594350000000  0.3776470000000 1.0
C      1  0.4953720000000  0.4229850000000  0.4800050000000 1.0
C      1  0.5690510000000  0.5340530000000  0.4804390000000 1.0
C      1  0.4362650000000  0.5416990000000  0.4809200000000 1.0
C      1  0.4774210000000  0.5285080000000  0.5863190000000 1.0
C      1  0.4872090000000  0.4654910000000  0.5902100000000 1.0
C      1  0.5357710000000  0.5080490000000  0.5897870000000 1.0
C      1  0.5183270000000  0.5229880000000  0.4006190000000 1.0
C      1  0.4711190000000  0.5051030000000  0.4008520000000 1.0
C      1  0.5102570000000  0.4731860000000  0.4003810000000 1.0
C      1  0.5041190000000  0.4493520000000  0.4864170000000 1.0
C      1  0.5417620000000  0.5278740000000  0.4855820000000 1.0
C      1  0.4554170000000  0.5218090000000  0.4881680000000 1.0
C      1  0.4102290000000  0.4959120000000  0.5104620000000 1.0
C      1  0.5477880000000  0.4238190000000  0.5098090000000 1.0
C      1  0.5411250000000  0.5793740000000  0.5103510000000 1.0
C      1  0.5217880000000  0.5445740000000  0.4190440000000 1.0
C      1  0.4507860000000  0.4973150000000  0.4194030000000 1.0
C      1  0.5274480000000  0.4593440000000  0.4185730000000 1.0
C      1  0.4435870000000  0.5651570000000  0.4667390000000 1.0
C      1  0.4710020000000  0.4184080000000  0.4662610000000 1.0
C      1  0.5859540000000  0.5154390000000  0.4672720000000 1.0
C      1  0.5048930000000  0.5257880000000  0.5466580000000 1.0
C      1  0.4837500000000  0.4839360000000  0.5462850000000 1.0
C      1  0.5125230000000  0.4952640000000  0.5469640000000 1.0
C      1  0.4964590000000  0.5313120000000  0.5156040000000 1.0
C      1  0.4762300000000  0.4796790000000  0.5152240000000 1.0
C      1  0.5280440000000  0.4900460000000  0.5165320000000 1.0
C      1  0.4408100000000  0.4886360000000  0.4445750000000 1.0
C      1  0.5397530000000  0.4548560000000  0.4437920000000 1.0
C      1  0.5193790000000  0.5575720000000  0.4441950000000 1.0
C      1  0.4468690000000  0.5546560000000  0.5373920000000 1.0
C      1  0.4788250000000  0.4257080000000  0.5371220000000 1.0
C      1  0.5722040000000  0.5179810000000  0.5381420000000 1.0
C      1  0.4612310000000  0.5053700000000  0.5852320000000 1.0
C      1  0.5153810000000  0.4644220000000  0.5872110000000 1.0
C      1  0.5251130000000  0.5343030000000  0.5894740000000 1.0
C      1  0.5604280000000  0.5579850000000  0.5691960000000 1.0
C      1  0.4205010000000  0.5228620000000  0.5690040000000 1.0
C      1  0.5207700000000  0.4212500000000  0.5679720000000 1.0
C      1  0.5229880000000  0.5176430000000  0.5042710000000 1.0
C      1  0.4740780000000  0.5115690000000  0.5073800000000 1.0
C      1  0.5041130000000  0.4705990000000  0.5053160000000 1.0
C      1  0.5079790000000  0.4234100000000  0.5433370000000 1.0
C      1  0.5609050000000  0.5450030000000  0.5444340000000 1.0
C      1  0.4298930000000  0.5309340000000  0.5440060000000 1.0
C      1  0.5922220000000  0.4905990000000  0.4764530000000 1.0
C      1  0.4609280000000  0.5842430000000  0.4754740000000 1.0
C      1  0.4461190000000  0.4250800000000  0.4749650000000 1.0
C      1  0.4999060000000  0.5004110000000  0.4030750000000 1.0
END
