TITL C-3201372-1405-2089 2.54758407737031e-07 125000 -18.9723641415033 0 0 4 (D(inf)h) n - 1
REM
REM in /home/nfs/bkarasulu/CARBON/AIRSS/Generating-Clusters/LCBOP/Higher-Symm/SD-CG/FIRE-CG
REM
REM
REM
REM
REM
REM ./C.cell (b20cbc046b6831c77cfcea5457e17084)
REM AIRSS Version 0.9.1 bugfix July 2018 build 013d7b7c2542+ Fri, 06 Jul 2018 19:26:36 +0100
REM compiler GCC version 9.2.1 20190827 (Red Hat 9.2.1-1)
REM options -cpp -mtune=generic -march=x86-64 -g -O0 -fpre-include=/usr/include/finclude/math-vector-fortran.h
REM seed -2043197612 493307789 -1576466327 909212427 -899410016 -2019030838 49353542 -1007094972 -1695390482 -184937299 70704513 546739177 -1390317077 741850098 -936319076 1406237182 123947363 1972910594 -1329291458 -1389252063 -622788877 2053469187 505073305 1466327630 -1700727145 979947812 130579711 -1763367404 -1214418588 -1347042140 -573901867 242965392 -1813527367
REM
CELL 1.54180   50.00000   50.00000   50.00000   90.00000   90.00000   90.00000
LATT -1
SFAC C  
C      1  0.5008260000000  0.5393270000000  0.4978710000000 1.0
C      1  0.5008260000000  0.4606730000000  0.4978710000000 1.0
C      1  0.5008260000000  0.4867430000000  0.4978710000000 1.0
C      1  0.5008260000000  0.5132570000000  0.4978710000000 1.0
END
