TITL C-3201377-4638-721 -6.7422827357992e-07 125000 -866.011795822724 0 0 142 (T23) n - 1
REM
REM in /home/nfs/bkarasulu/CARBON/AIRSS/Generating-Clusters/LCBOP/Higher-Symm/SD-CG/FIRE-CG
REM
REM
REM
REM
REM
REM ./C.cell (b20cbc046b6831c77cfcea5457e17084)
REM AIRSS Version 0.9.1 bugfix July 2018 build 013d7b7c2542+ Fri, 06 Jul 2018 19:26:36 +0100
REM compiler GCC version 9.2.1 20190827 (Red Hat 9.2.1-1)
REM options -cpp -mtune=generic -march=x86-64 -g -O0 -fpre-include=/usr/include/finclude/math-vector-fortran.h
REM seed 26933445 -1896474026 1960010750 -281133470 -1992857835 -1914758077 -937184108 -1213494067 -206264912 1165831989 919834805 43696439 -1160577181 2074065345 36327489 899544291 -82698062 1262348659 2028047347 -1368565186 -978432862 -393609591 259492351 2137972672 561498739 -1728543296 -589800362 791174732 930681788 -165650062 -1636529840 -805717264 1953886415
REM
CELL 1.54180   50.00000   50.00000   50.00000   90.00000   90.00000   90.00000
LATT -1
SFAC C  
C      1  0.4446570000000  0.4156060000000  0.4564580000000 1.0
C      1  0.4155990000000  0.4563760000000  0.4447430000000 1.0
C      1  0.4563710000000  0.4446630000000  0.4156870000000 1.0
C      1  0.5564600000000  0.4156080000000  0.5448340000000 1.0
C      1  0.5564560000000  0.5855260000000  0.4564600000000 1.0
C      1  0.4446510000000  0.5855220000000  0.5448340000000 1.0
C      1  0.5855150000000  0.4563800000000  0.5565490000000 1.0
C      1  0.5855140000000  0.5447560000000  0.4447450000000 1.0
C      1  0.4155960000000  0.5447500000000  0.5565480000000 1.0
C      1  0.5447440000000  0.4446640000000  0.5856050000000 1.0
C      1  0.5447430000000  0.5564690000000  0.4156890000000 1.0
C      1  0.4563660000000  0.5564660000000  0.5856050000000 1.0
C      1  0.4711500000000  0.4457040000000  0.5191610000000 1.0
C      1  0.4456950000000  0.5190790000000  0.4712390000000 1.0
C      1  0.5190720000000  0.4711590000000  0.4457850000000 1.0
C      1  0.5299650000000  0.4457050000000  0.4821320000000 1.0
C      1  0.5299620000000  0.5554270000000  0.5191620000000 1.0
C      1  0.4711470000000  0.5554260000000  0.4821320000000 1.0
C      1  0.5554160000000  0.5190810000000  0.5300540000000 1.0
C      1  0.5554180000000  0.4820520000000  0.4712390000000 1.0
C      1  0.4456950000000  0.4820490000000  0.5300530000000 1.0
C      1  0.4820410000000  0.4711570000000  0.5555070000000 1.0
C      1  0.4820410000000  0.5299730000000  0.4457850000000 1.0
C      1  0.5190690000000  0.5299730000000  0.5555080000000 1.0
C      1  0.4737230000000  0.5386620000000  0.4188620000000 1.0
C      1  0.5386550000000  0.4187820000000  0.4738130000000 1.0
C      1  0.4187720000000  0.4737300000000  0.5387420000000 1.0
C      1  0.5273870000000  0.5386620000000  0.5824310000000 1.0
C      1  0.5273910000000  0.4624700000000  0.4188620000000 1.0
C      1  0.4737230000000  0.4624680000000  0.5824300000000 1.0
C      1  0.4624610000000  0.4187800000000  0.5274780000000 1.0
C      1  0.4624580000000  0.5823490000000  0.4738140000000 1.0
C      1  0.5386500000000  0.5823510000000  0.5274800000000 1.0
C      1  0.5823410000000  0.4737350000000  0.4625500000000 1.0
C      1  0.5823390000000  0.5274000000000  0.5387440000000 1.0
C      1  0.4187710000000  0.5273960000000  0.4625490000000 1.0
C      1  0.4441880000000  0.4701510000000  0.4839570000000 1.0
C      1  0.4701440000000  0.4838770000000  0.4442770000000 1.0
C      1  0.4838690000000  0.4441960000000  0.4702330000000 1.0
C      1  0.5569260000000  0.4701540000000  0.5173350000000 1.0
C      1  0.5569240000000  0.5309800000000  0.4839590000000 1.0
C      1  0.4441860000000  0.5309770000000  0.5173340000000 1.0
C      1  0.5309690000000  0.4838770000000  0.5570160000000 1.0
C      1  0.5309690000000  0.5172550000000  0.4442780000000 1.0
C      1  0.4701420000000  0.5172530000000  0.5570150000000 1.0
C      1  0.5172460000000  0.4441970000000  0.5310590000000 1.0
C      1  0.5172430000000  0.5569350000000  0.4702340000000 1.0
C      1  0.4838660000000  0.5569340000000  0.5310590000000 1.0
C      1  0.5791230000000  0.4344920000000  0.5375670000000 1.0
C      1  0.4344790000000  0.5374830000000  0.5792110000000 1.0
C      1  0.5374750000000  0.5791320000000  0.4345720000000 1.0
C      1  0.4219930000000  0.4344880000000  0.4637250000000 1.0
C      1  0.4219890000000  0.5666390000000  0.5375660000000 1.0
C      1  0.5791200000000  0.5666430000000  0.4637280000000 1.0
C      1  0.5666310000000  0.5374880000000  0.4220820000000 1.0
C      1  0.5666320000000  0.4636470000000  0.5792120000000 1.0
C      1  0.4344820000000  0.4636440000000  0.4220800000000 1.0
C      1  0.4636330000000  0.5791290000000  0.5667220000000 1.0
C      1  0.4636390000000  0.4220000000000  0.4345700000000 1.0
C      1  0.5374770000000  0.4220010000000  0.5667220000000 1.0
C      1  0.4486480000000  0.6011100000000  0.5202690000000 1.0
C      1  0.6011020000000  0.5201910000000  0.4487420000000 1.0
C      1  0.5201790000000  0.4486600000000  0.6011920000000 1.0
C      1  0.5524590000000  0.6011130000000  0.4810250000000 1.0
C      1  0.5524640000000  0.4000210000000  0.5202690000000 1.0
C      1  0.4486530000000  0.4000180000000  0.4810230000000 1.0
C      1  0.4000090000000  0.5201850000000  0.5525510000000 1.0
C      1  0.4000110000000  0.4809410000000  0.4487400000000 1.0
C      1  0.6011020000000  0.4809450000000  0.5525530000000 1.0
C      1  0.4809360000000  0.4486600000000  0.4001000000000 1.0
C      1  0.4809310000000  0.5524700000000  0.6011930000000 1.0
C      1  0.5201780000000  0.5524720000000  0.4001010000000 1.0
C      1  0.5016070000000  0.4194460000000  0.5700250000000 1.0
C      1  0.4194350000000  0.5699430000000  0.5016960000000 1.0
C      1  0.5699360000000  0.5016170000000  0.4195280000000 1.0
C      1  0.4995090000000  0.4194470000000  0.4312660000000 1.0
C      1  0.4995040000000  0.5816840000000  0.5700270000000 1.0
C      1  0.5016040000000  0.5816850000000  0.4312670000000 1.0
C      1  0.5816740000000  0.5699470000000  0.4995980000000 1.0
C      1  0.5816770000000  0.4311880000000  0.5016960000000 1.0
C      1  0.4194380000000  0.4311840000000  0.4995950000000 1.0
C      1  0.4311760000000  0.5016130000000  0.5817650000000 1.0
C      1  0.4311770000000  0.4995150000000  0.4195260000000 1.0
C      1  0.5699350000000  0.4995170000000  0.5817660000000 1.0
C      1  0.5453790000000  0.4661000000000  0.4920250000000 1.0
C      1  0.4660890000000  0.4919420000000  0.5454680000000 1.0
C      1  0.4919330000000  0.5453880000000  0.4661800000000 1.0
C      1  0.4557350000000  0.4660980000000  0.5092670000000 1.0
C      1  0.4557330000000  0.5350310000000  0.4920240000000 1.0
C      1  0.5453770000000  0.5350330000000  0.5092690000000 1.0
C      1  0.5350230000000  0.4919450000000  0.4558240000000 1.0
C      1  0.5350220000000  0.5091880000000  0.5454690000000 1.0
C      1  0.4660900000000  0.5091870000000  0.4558240000000 1.0
C      1  0.5091760000000  0.5453880000000  0.5351130000000 1.0
C      1  0.5091790000000  0.4557440000000  0.4661800000000 1.0
C      1  0.4919350000000  0.4557430000000  0.5351120000000 1.0
C      1  0.5070000000000  0.5596130000000  0.5893720000000 1.0
C      1  0.5596020000000  0.5892920000000  0.5070940000000 1.0
C      1  0.5892810000000  0.5070130000000  0.5596950000000 1.0
C      1  0.4941090000000  0.5596140000000  0.4119210000000 1.0
C      1  0.4941110000000  0.4415170000000  0.5893710000000 1.0
C      1  0.5070050000000  0.4415180000000  0.4119200000000 1.0
C      1  0.4415060000000  0.5892900000000  0.4942000000000 1.0
C      1  0.4415100000000  0.4118380000000  0.5070910000000 1.0
C      1  0.5596060000000  0.4118410000000  0.4942000000000 1.0
C      1  0.4118310000000  0.5070100000000  0.4415980000000 1.0
C      1  0.4118300000000  0.4941170000000  0.5596930000000 1.0
C      1  0.5892820000000  0.4941220000000  0.4415990000000 1.0
C      1  0.5089840000000  0.5850400000000  0.4760620000000 1.0
C      1  0.5850300000000  0.4759830000000  0.5090770000000 1.0
C      1  0.4759700000000  0.5089940000000  0.5851200000000 1.0
C      1  0.4921230000000  0.5850390000000  0.5252320000000 1.0
C      1  0.4921280000000  0.4160920000000  0.4760610000000 1.0
C      1  0.5089880000000  0.4160920000000  0.5252310000000 1.0
C      1  0.4160830000000  0.4759780000000  0.4922150000000 1.0
C      1  0.4160820000000  0.5251480000000  0.5090760000000 1.0
C      1  0.5850290000000  0.5251530000000  0.4922170000000 1.0
C      1  0.5251420000000  0.5089970000000  0.4161730000000 1.0
C      1  0.5251400000000  0.4921350000000  0.5851200000000 1.0
C      1  0.4759720000000  0.4921350000000  0.4161720000000 1.0
C      1  0.5138700000000  0.5900300000000  0.5454880000000 1.0
C      1  0.5900190000000  0.5454080000000  0.5139640000000 1.0
C      1  0.5453950000000  0.5138820000000  0.5901120000000 1.0
C      1  0.4872380000000  0.5900300000000  0.4558060000000 1.0
C      1  0.4872420000000  0.4111000000000  0.5454860000000 1.0
C      1  0.5138750000000  0.4111010000000  0.4558050000000 1.0
C      1  0.4110900000000  0.5454040000000  0.4873290000000 1.0
C      1  0.4110920000000  0.4557220000000  0.5139620000000 1.0
C      1  0.5900220000000  0.4557270000000  0.4873310000000 1.0
C      1  0.4557160000000  0.5138810000000  0.4111810000000 1.0
C      1  0.4557150000000  0.4872470000000  0.5901100000000 1.0
C      1  0.5453980000000  0.4872510000000  0.4111820000000 1.0
C      1  0.5005540000000  0.5954490000000  0.5006470000000 1.0
C      1  0.5005550000000  0.5005650000000  0.5955300000000 1.0
C      1  0.5005580000000  0.4056820000000  0.5006460000000 1.0
C      1  0.5005570000000  0.5005660000000  0.4057630000000 1.0
C      1  0.5954400000000  0.5005680000000  0.5006470000000 1.0
C      1  0.4056720000000  0.5005630000000  0.5006450000000 1.0
C      1  0.4633670000000  0.5377510000000  0.5378330000000 1.0
C      1  0.5377440000000  0.4633790000000  0.5378340000000 1.0
C      1  0.4633700000000  0.4633780000000  0.4634590000000 1.0
C      1  0.5377430000000  0.5377540000000  0.4634600000000 1.0
END
