TITL C-3201373-1215-1961 0.0017126775931101 125000 -675.544006471705 0 0 114 (C1) n - 1
REM
REM in /home/nfs/bkarasulu/CARBON/AIRSS/Generating-Clusters/LCBOP/Higher-Symm/SD-CG/FIRE-CG
REM
REM
REM
REM
REM
REM ./C.cell (b20cbc046b6831c77cfcea5457e17084)
REM AIRSS Version 0.9.1 bugfix July 2018 build 013d7b7c2542+ Fri, 06 Jul 2018 19:26:36 +0100
REM compiler GCC version 9.2.1 20190827 (Red Hat 9.2.1-1)
REM options -cpp -mtune=generic -march=x86-64 -g -O0 -fpre-include=/usr/include/finclude/math-vector-fortran.h
REM seed -524591485 517142172 535721947 -569811474 -933326486 -821297907 330228776 -1572850154 -384571127 -655514063 1617769709 2113781159 889377809 -1733268210 1239943370 371036280 1738301094 1614496680 2038578009 1797031155 732381665 -1749673107 -1440514375 -1463627413 -1594469653 1719188163 -53613265 394302236 1030177469 -1062528146 -1491797859 2114264895 -656312493
REM
CELL 1.54180   50.00000   50.00000   50.00000   90.00000   90.00000   90.00000
LATT -1
SFAC C  
C      1  0.5293820000000  0.6390100000000  0.4517470000000 1.0
C      1  0.5383160000000  0.4021660000000  0.5377190000000 1.0
C      1  0.4855510000000  0.4981750000000  0.4324720000000 1.0
C      1  0.5370240000000  0.5014390000000  0.5333620000000 1.0
C      1  0.5583630000000  0.4836140000000  0.5259450000000 1.0
C      1  0.4377250000000  0.5215720000000  0.4889400000000 1.0
C      1  0.4272560000000  0.4603140000000  0.6072450000000 1.0
C      1  0.5851060000000  0.5268130000000  0.4170930000000 1.0
C      1  0.5768500000000  0.4483820000000  0.5615210000000 1.0
C      1  0.4273150000000  0.5575150000000  0.4563130000000 1.0
C      1  0.4246460000000  0.4559590000000  0.4174580000000 1.0
C      1  0.5530810000000  0.5546880000000  0.5659700000000 1.0
C      1  0.5052670000000  0.5769500000000  0.4886670000000 1.0
C      1  0.4874330000000  0.4492810000000  0.4916280000000 1.0
C      1  0.4733420000000  0.5193390000000  0.6163650000000 1.0
C      1  0.5340850000000  0.4882520000000  0.3776010000000 1.0
C      1  0.4508050000000  0.4718770000000  0.5974630000000 1.0
C      1  0.5579330000000  0.5204360000000  0.4162780000000 1.0
C      1  0.4233710000000  0.5623620000000  0.5206220000000 1.0
C      1  0.5858440000000  0.4429170000000  0.5021400000000 1.0
C      1  0.4652850000000  0.4426850000000  0.4784130000000 1.0
C      1  0.5011470000000  0.5792960000000  0.5171020000000 1.0
C      1  0.4458500000000  0.5650430000000  0.4368500000000 1.0
C      1  0.5597420000000  0.4380670000000  0.5808790000000 1.0
C      1  0.5745800000000  0.5755510000000  0.4982610000000 1.0
C      1  0.3959210000000  0.4400830000000  0.4798390000000 1.0
C      1  0.5479870000000  0.5030810000000  0.3968240000000 1.0
C      1  0.4614080000000  0.4943080000000  0.6107780000000 1.0
C      1  0.6047650000000  0.4921280000000  0.5084660000000 1.0
C      1  0.3906150000000  0.5248640000000  0.5022500000000 1.0
C      1  0.5127320000000  0.5350210000000  0.5188480000000 1.0
C      1  0.4769700000000  0.4496070000000  0.4327700000000 1.0
C      1  0.5001440000000  0.3968620000000  0.5716040000000 1.0
C      1  0.5282640000000  0.5953210000000  0.4225850000000 1.0
C      1  0.4883180000000  0.5427650000000  0.4208570000000 1.0
C      1  0.5122320000000  0.4505790000000  0.5714930000000 1.0
C      1  0.5677000000000  0.4746830000000  0.5525950000000 1.0
C      1  0.4294260000000  0.5284560000000  0.4618550000000 1.0
C      1  0.4893900000000  0.5300450000000  0.5953750000000 1.0
C      1  0.5422230000000  0.4628030000000  0.3716310000000 1.0
C      1  0.5371320000000  0.5233120000000  0.5149020000000 1.0
C      1  0.4757520000000  0.4756800000000  0.4214770000000 1.0
C      1  0.5221870000000  0.4629640000000  0.4384510000000 1.0
C      1  0.4746650000000  0.5155770000000  0.5546390000000 1.0
C      1  0.5106430000000  0.5120030000000  0.5856940000000 1.0
C      1  0.5042540000000  0.4407780000000  0.4357800000000 1.0
C      1  0.5508340000000  0.5665450000000  0.5404050000000 1.0
C      1  0.4288090000000  0.4510600000000  0.4452630000000 1.0
C      1  0.3891920000000  0.5031270000000  0.4859290000000 1.0
C      1  0.5997280000000  0.5178460000000  0.5151930000000 1.0
C      1  0.5478380000000  0.5275800000000  0.4635360000000 1.0
C      1  0.4510900000000  0.4673220000000  0.5484010000000 1.0
C      1  0.5210350000000  0.3923980000000  0.5556130000000 1.0
C      1  0.5289530000000  0.6177700000000  0.4366390000000 1.0
C      1  0.5173380000000  0.5476090000000  0.4226470000000 1.0
C      1  0.4855360000000  0.4424800000000  0.5779620000000 1.0
C      1  0.5309390000000  0.4733810000000  0.4836640000000 1.0
C      1  0.4683950000000  0.5132830000000  0.5276850000000 1.0
C      1  0.5315020000000  0.5699680000000  0.3818440000000 1.0
C      1  0.4622850000000  0.4057540000000  0.6003460000000 1.0
C      1  0.5366080000000  0.4082360000000  0.4581720000000 1.0
C      1  0.4741300000000  0.5640870000000  0.5567210000000 1.0
C      1  0.5147170000000  0.4597580000000  0.5446390000000 1.0
C      1  0.4994890000000  0.5315010000000  0.4663620000000 1.0
C      1  0.5155490000000  0.4162930000000  0.4435440000000 1.0
C      1  0.4750750000000  0.5398460000000  0.5711470000000 1.0
C      1  0.5942480000000  0.5424830000000  0.5285410000000 1.0
C      1  0.3965360000000  0.4866610000000  0.4635860000000 1.0
C      1  0.5259350000000  0.5712360000000  0.4086190000000 1.0
C      1  0.4819740000000  0.4146930000000  0.5836780000000 1.0
C      1  0.5144190000000  0.4881080000000  0.5436430000000 1.0
C      1  0.5035340000000  0.5054890000000  0.4533270000000 1.0
C      1  0.4512170000000  0.5633120000000  0.5134150000000 1.0
C      1  0.5631650000000  0.4256920000000  0.5006980000000 1.0
C      1  0.4745710000000  0.5724220000000  0.5291310000000 1.0
C      1  0.5555170000000  0.4131600000000  0.4765020000000 1.0
C      1  0.4348060000000  0.4799280000000  0.5279050000000 1.0
C      1  0.5500290000000  0.5156540000000  0.4897820000000 1.0
C      1  0.6115030000000  0.5497100000000  0.5488010000000 1.0
C      1  0.3975010000000  0.4997360000000  0.4382330000000 1.0
C      1  0.4599130000000  0.5415170000000  0.4261580000000 1.0
C      1  0.5371380000000  0.4561270000000  0.5852790000000 1.0
C      1  0.3845560000000  0.4201550000000  0.4922080000000 1.0
C      1  0.5774260000000  0.5878710000000  0.4754760000000 1.0
C      1  0.4981590000000  0.5010920000000  0.5620040000000 1.0
C      1  0.5215310000000  0.4830400000000  0.4586590000000 1.0
C      1  0.4559530000000  0.4445090000000  0.4520880000000 1.0
C      1  0.5258970000000  0.5787550000000  0.5324140000000 1.0
C      1  0.5399660000000  0.5322870000000  0.4354150000000 1.0
C      1  0.4628110000000  0.4603950000000  0.5738930000000 1.0
C      1  0.5140430000000  0.4552460000000  0.4977280000000 1.0
C      1  0.4893130000000  0.5226270000000  0.5115050000000 1.0
C      1  0.5095900000000  0.5587490000000  0.4687190000000 1.0
C      1  0.4090370000000  0.4710590000000  0.5251680000000 1.0
C      1  0.6101820000000  0.5335320000000  0.4193630000000 1.0
C      1  0.4051510000000  0.4493160000000  0.6155850000000 1.0
C      1  0.4445460000000  0.5034020000000  0.5136670000000 1.0
C      1  0.5543460000000  0.4860020000000  0.4956850000000 1.0
C      1  0.4564160000000  0.5441950000000  0.4930170000000 1.0
C      1  0.5432060000000  0.4244970000000  0.5214640000000 1.0
C      1  0.5531900000000  0.5328410000000  0.5814660000000 1.0
C      1  0.4257900000000  0.4805410000000  0.4059740000000 1.0
C      1  0.4698290000000  0.5323170000000  0.6400730000000 1.0
C      1  0.5124340000000  0.4993450000000  0.3650350000000 1.0
C      1  0.4078380000000  0.4596800000000  0.4637440000000 1.0
C      1  0.5729100000000  0.5611510000000  0.5222230000000 1.0
C      1  0.4210070000000  0.5031380000000  0.4220530000000 1.0
C      1  0.5390720000000  0.5087890000000  0.5854880000000 1.0
C      1  0.4021660000000  0.5461290000000  0.5147170000000 1.0
C      1  0.6002450000000  0.4657730000000  0.5040190000000 1.0
C      1  0.5235890000000  0.4451980000000  0.5223070000000 1.0
C      1  0.4806130000000  0.5314340000000  0.4868560000000 1.0
C      1  0.4405000000000  0.5194890000000  0.4351280000000 1.0
C      1  0.5496130000000  0.4830520000000  0.5770840000000 1.0
END
