TITL C-3201375-1262-1179 7.50131416386714 125000 -200.75907206681 0 0 35 (C1) n - 1
REM
REM in /home/nfs/bkarasulu/CARBON/AIRSS/Generating-Clusters/LCBOP/Higher-Symm/SD-CG/FIRE-CG
REM
REM
REM
REM
REM
REM ./C.cell (b20cbc046b6831c77cfcea5457e17084)
REM AIRSS Version 0.9.1 bugfix July 2018 build 013d7b7c2542+ Fri, 06 Jul 2018 19:26:36 +0100
REM compiler GCC version 9.2.1 20190827 (Red Hat 9.2.1-1)
REM options -cpp -mtune=generic -march=x86-64 -g -O0 -fpre-include=/usr/include/finclude/math-vector-fortran.h
REM seed -1999836693 -2122702278 -1945136760 -920192045 -960976148 967077327 -668235200 -1245037220 -342617685 1491338295 -835694742 1743286607 1638712629 -1482489579 1003757116 -372346805 -396862947 2029437872 1195687476 1822249402 -1143673176 -1735625742 1121188143 477300486 -956334256 -204634558 2086641997 307065357 -1580428134 316599358 1534393677 -708549848 -320045430
REM
CELL 1.54180   50.00000   50.00000   50.00000   90.00000   90.00000   90.00000
LATT -1
SFAC C  
C      1  0.4903220000000  0.5228740000000  0.4396320000000 1.0
C      1  0.4911060000000  0.4359070000000  0.5099510000000 1.0
C      1  0.4927210000000  0.5421350000000  0.5511320000000 1.0
C      1  0.5121030000000  0.5232280000000  0.5605170000000 1.0
C      1  0.5137120000000  0.4342880000000  0.4921760000000 1.0
C      1  0.5105970000000  0.5406360000000  0.4495540000000 1.0
C      1  0.5020100000000  0.5635670000000  0.4650150000000 1.0
C      1  0.5210830000000  0.4107350000000  0.4804350000000 1.0
C      1  0.5020410000000  0.4983850000000  0.5716640000000 1.0
C      1  0.4900130000000  0.5670330000000  0.5619470000000 1.0
C      1  0.4839390000000  0.4146980000000  0.5257020000000 1.0
C      1  0.4989270000000  0.4978670000000  0.4276850000000 1.0
C      1  0.5295140000000  0.4834440000000  0.5375710000000 1.0
C      1  0.5289210000000  0.5409700000000  0.4947690000000 1.0
C      1  0.5243630000000  0.4745010000000  0.4621060000000 1.0
C      1  0.4736870000000  0.4844470000000  0.4633940000000 1.0
C      1  0.4776700000000  0.5449630000000  0.5030360000000 1.0
C      1  0.4794660000000  0.4788180000000  0.5331680000000 1.0
C      1  0.5309900000000  0.4765180000000  0.5095680000000 1.0
C      1  0.5397250000000  0.5316160000000  0.5196740000000 1.0
C      1  0.5392450000000  0.5003040000000  0.4610580000000 1.0
C      1  0.4655720000000  0.4696070000000  0.4861350000000 1.0
C      1  0.4622780000000  0.5327150000000  0.4811090000000 1.0
C      1  0.4671010000000  0.5051480000000  0.5321420000000 1.0
C      1  0.5331070000000  0.5140040000000  0.5415580000000 1.0
C      1  0.5320170000000  0.5279550000000  0.4667540000000 1.0
C      1  0.5278890000000  0.4584050000000  0.4870570000000 1.0
C      1  0.4693800000000  0.5144140000000  0.4597700000000 1.0
C      1  0.4760400000000  0.5326810000000  0.5294700000000 1.0
C      1  0.4762700000000  0.4604670000000  0.5109790000000 1.0
C      1  0.5028530000000  0.5566170000000  0.4934000000000 1.0
C      1  0.5028380000000  0.4780540000000  0.5508000000000 1.0
C      1  0.4987190000000  0.4770220000000  0.4482490000000 1.0
C      1  0.5179550000000  0.4991470000000  0.4987650000000 1.0
C      1  0.4937030000000  0.5059810000000  0.4950360000000 1.0
END
