TITL C-3201373-1215-310 -1.14787512215597e-06 125000 -881.690139795713 0 0 142 (C1) n - 1
REM
REM in /home/nfs/bkarasulu/CARBON/AIRSS/Generating-Clusters/LCBOP/Higher-Symm/SD-CG/FIRE-CG
REM
REM
REM
REM
REM
REM ./C.cell (b20cbc046b6831c77cfcea5457e17084)
REM AIRSS Version 0.9.1 bugfix July 2018 build 013d7b7c2542+ Fri, 06 Jul 2018 19:26:36 +0100
REM compiler GCC version 9.2.1 20190827 (Red Hat 9.2.1-1)
REM options -cpp -mtune=generic -march=x86-64 -g -O0 -fpre-include=/usr/include/finclude/math-vector-fortran.h
REM seed -1576272129 1265948143 345875041 -972321410 -207078750 129357682 -2059368488 1003824801 798527429 -1072454916 1567839450 1339580398 -98584393 8401783 1806323086 1414530519 619354576 1149081764 -851144413 -1523651169 -2077136359 -1484720347 -1243834809 1292565945 -313248932 -2124196961 -1877540171 -1782432210 1287118277 480480811 -542310780 -524144810 -1638317863
REM
CELL 1.54180   50.00000   50.00000   50.00000   90.00000   90.00000   90.00000
LATT -1
SFAC C  
C      1  0.3911870000000  0.5309240000000  0.5205230000000 1.0
C      1  0.5835580000000  0.5790720000000  0.5208680000000 1.0
C      1  0.5245260000000  0.3930060000000  0.5207480000000 1.0
C      1  0.5285860000000  0.5987590000000  0.5122720000000 1.0
C      1  0.5687560000000  0.4274550000000  0.5120760000000 1.0
C      1  0.3995500000000  0.4728170000000  0.5101230000000 1.0
C      1  0.4466410000000  0.4358630000000  0.4166980000000 1.0
C      1  0.4702120000000  0.5790250000000  0.4197890000000 1.0
C      1  0.5838460000000  0.4866370000000  0.4205430000000 1.0
C      1  0.5053750000000  0.4496900000000  0.3959990000000 1.0
C      1  0.4551900000000  0.5204390000000  0.3977910000000 1.0
C      1  0.5421820000000  0.5280880000000  0.3969440000000 1.0
C      1  0.5690710000000  0.5351840000000  0.4042000000000 1.0
C      1  0.4968550000000  0.4229100000000  0.4022530000000 1.0
C      1  0.4359340000000  0.5408420000000  0.4038320000000 1.0
C      1  0.4530490000000  0.4323180000000  0.5134860000000 1.0
C      1  0.4744730000000  0.5572610000000  0.5254680000000 1.0
C      1  0.5609850000000  0.4946510000000  0.5283270000000 1.0
C      1  0.4108740000000  0.5809050000000  0.5309580000000 1.0
C      1  0.6169220000000  0.5371960000000  0.5305110000000 1.0
C      1  0.4726010000000  0.3843900000000  0.5316780000000 1.0
C      1  0.5141130000000  0.4035880000000  0.4181910000000 1.0
C      1  0.4104230000000  0.5343690000000  0.4186740000000 1.0
C      1  0.5757260000000  0.5606130000000  0.4190040000000 1.0
C      1  0.5327200000000  0.5258700000000  0.5533350000000 1.0
C      1  0.5105140000000  0.4672770000000  0.5592320000000 1.0
C      1  0.4647650000000  0.5174490000000  0.5546730000000 1.0
C      1  0.5554300000000  0.4341790000000  0.5720110000000 1.0
C      1  0.4171670000000  0.4840700000000  0.5677530000000 1.0
C      1  0.5311890000000  0.5800810000000  0.5714070000000 1.0
C      1  0.5441450000000  0.5001460000000  0.5520410000000 1.0
C      1  0.4843840000000  0.4758610000000  0.5539030000000 1.0
C      1  0.4863210000000  0.5340180000000  0.5424630000000 1.0
C      1  0.4043310000000  0.4820950000000  0.4627730000000 1.0
C      1  0.5328100000000  0.5918760000000  0.4640960000000 1.0
C      1  0.5611970000000  0.4271090000000  0.4641630000000 1.0
C      1  0.5206140000000  0.4469770000000  0.5429510000000 1.0
C      1  0.4414330000000  0.5132210000000  0.5403180000000 1.0
C      1  0.5421910000000  0.5475450000000  0.5389790000000 1.0
C      1  0.4720670000000  0.4949360000000  0.5707390000000 1.0
C      1  0.5073500000000  0.5322510000000  0.5645910000000 1.0
C      1  0.5314350000000  0.4825700000000  0.5708440000000 1.0
C      1  0.4002050000000  0.5424680000000  0.4732860000000 1.0
C      1  0.5882040000000  0.5659100000000  0.4734100000000 1.0
C      1  0.5095360000000  0.3920840000000  0.4734460000000 1.0
C      1  0.4849490000000  0.4040420000000  0.5485670000000 1.0
C      1  0.4204250000000  0.5612330000000  0.5497150000000 1.0
C      1  0.5956750000000  0.5385820000000  0.5499890000000 1.0
C      1  0.4298950000000  0.4534810000000  0.4284620000000 1.0
C      1  0.4941430000000  0.5859140000000  0.4302660000000 1.0
C      1  0.5760250000000  0.4633270000000  0.4314690000000 1.0
C      1  0.4471520000000  0.5694750000000  0.5620780000000 1.0
C      1  0.5905060000000  0.5111830000000  0.5624740000000 1.0
C      1  0.4657820000000  0.4242160000000  0.5588770000000 1.0
C      1  0.4302980000000  0.4849360000000  0.5932500000000 1.0
C      1  0.5241360000000  0.5652640000000  0.5949200000000 1.0
C      1  0.5491550000000  0.4465470000000  0.5970720000000 1.0
C      1  0.4781020000000  0.4531810000000  0.4782120000000 1.0
C      1  0.4725920000000  0.5406320000000  0.4791580000000 1.0
C      1  0.5483470000000  0.5044800000000  0.4800680000000 1.0
C      1  0.5808010000000  0.5555680000000  0.4475950000000 1.0
C      1  0.5052570000000  0.4019170000000  0.4464080000000 1.0
C      1  0.4124600000000  0.5414590000000  0.4472040000000 1.0
C      1  0.5406760000000  0.4725110000000  0.5956880000000 1.0
C      1  0.4571500000000  0.4893120000000  0.5939580000000 1.0
C      1  0.5084110000000  0.5433060000000  0.5906550000000 1.0
C      1  0.5062800000000  0.4713760000000  0.4148090000000 1.0
C      1  0.4731910000000  0.5083060000000  0.4165860000000 1.0
C      1  0.5223460000000  0.5189080000000  0.4155880000000 1.0
C      1  0.4580680000000  0.4839730000000  0.5066630000000 1.0
C      1  0.5141890000000  0.5373220000000  0.5008600000000 1.0
C      1  0.5192930000000  0.4743040000000  0.5011530000000 1.0
C      1  0.4014000000000  0.5687250000000  0.4849950000000 1.0
C      1  0.6105850000000  0.5519130000000  0.4847420000000 1.0
C      1  0.4858050000000  0.3801600000000  0.4853570000000 1.0
C      1  0.4477740000000  0.5621580000000  0.4210970000000 1.0
C      1  0.5814260000000  0.5145100000000  0.4218480000000 1.0
C      1  0.4716730000000  0.4231580000000  0.4183630000000 1.0
C      1  0.4125390000000  0.4528910000000  0.5262500000000 1.0
C      1  0.5065720000000  0.5936550000000  0.5299680000000 1.0
C      1  0.5769790000000  0.4484370000000  0.5297240000000 1.0
C      1  0.5759440000000  0.5265250000000  0.4478600000000 1.0
C      1  0.4833260000000  0.4212580000000  0.4449280000000 1.0
C      1  0.4400560000000  0.5516280000000  0.4471530000000 1.0
C      1  0.4380330000000  0.5999430000000  0.4968670000000 1.0
C      1  0.6162210000000  0.5042580000000  0.4962170000000 1.0
C      1  0.4369790000000  0.3845580000000  0.4992870000000 1.0
C      1  0.5343430000000  0.4652390000000  0.4552080000000 1.0
C      1  0.4512350000000  0.4861470000000  0.4564000000000 1.0
C      1  0.5134700000000  0.5495510000000  0.4539680000000 1.0
C      1  0.5278180000000  0.5285620000000  0.4421780000000 1.0
C      1  0.5100750000000  0.4619790000000  0.4416580000000 1.0
C      1  0.4626880000000  0.5084030000000  0.4435540000000 1.0
C      1  0.4268600000000  0.4741480000000  0.4475540000000 1.0
C      1  0.5148230000000  0.5772440000000  0.4475660000000 1.0
C      1  0.5578740000000  0.4505800000000  0.4488560000000 1.0
C      1  0.4600590000000  0.5468630000000  0.5031910000000 1.0
C      1  0.5577340000000  0.5111390000000  0.5053930000000 1.0
C      1  0.4748580000000  0.4349190000000  0.4987750000000 1.0
C      1  0.4905130000000  0.4464530000000  0.4549140000000 1.0
C      1  0.4587040000000  0.5331220000000  0.4569180000000 1.0
C      1  0.5504300000000  0.5196810000000  0.4572840000000 1.0
C      1  0.4398800000000  0.4368160000000  0.5661320000000 1.0
C      1  0.4726840000000  0.5841380000000  0.5709810000000 1.0
C      1  0.5910410000000  0.4809940000000  0.5703900000000 1.0
C      1  0.3975450000000  0.4922000000000  0.4886640000000 1.0
C      1  0.5457910000000  0.5924410000000  0.4897080000000 1.0
C      1  0.5543350000000  0.4162940000000  0.4895220000000 1.0
C      1  0.3947090000000  0.5211990000000  0.4931550000000 1.0
C      1  0.5728000000000  0.5810500000000  0.4935860000000 1.0
C      1  0.5305900000000  0.3994390000000  0.4931820000000 1.0
C      1  0.5003210000000  0.5431540000000  0.4776790000000 1.0
C      1  0.5338540000000  0.4807200000000  0.4784610000000 1.0
C      1  0.4622520000000  0.4760020000000  0.4801640000000 1.0
C      1  0.4791360000000  0.4793090000000  0.5256630000000 1.0
C      1  0.5016970000000  0.5193730000000  0.5185610000000 1.0
C      1  0.5016200000000  0.4921610000000  0.5135450000000 1.0
C      1  0.5810770000000  0.5655490000000  0.5470560000000 1.0
C      1  0.5149200000000  0.4032240000000  0.5460700000000 1.0
C      1  0.4043710000000  0.5352310000000  0.5463480000000 1.0
C      1  0.4819980000000  0.5845840000000  0.5195360000000 1.0
C      1  0.5804590000000  0.4745890000000  0.5198690000000 1.0
C      1  0.4250560000000  0.4298300000000  0.5142630000000 1.0
C      1  0.4146350000000  0.5855810000000  0.5033460000000 1.0
C      1  0.6178260000000  0.5315840000000  0.5028540000000 1.0
C      1  0.4647600000000  0.3801970000000  0.5046580000000 1.0
C      1  0.5531820000000  0.5679800000000  0.5554590000000 1.0
C      1  0.5319530000000  0.4245870000000  0.5564980000000 1.0
C      1  0.4171860000000  0.5104510000000  0.5547180000000 1.0
C      1  0.5067010000000  0.5894120000000  0.5579420000000 1.0
C      1  0.5759600000000  0.4498540000000  0.5579540000000 1.0
C      1  0.4225740000000  0.4583510000000  0.5532490000000 1.0
C      1  0.5232680000000  0.4509390000000  0.5156270000000 1.0
C      1  0.4410600000000  0.5041050000000  0.5142540000000 1.0
C      1  0.5358390000000  0.5502260000000  0.5121360000000 1.0
C      1  0.4282910000000  0.4256460000000  0.5889620000000 1.0
C      1  0.4703310000000  0.5979790000000  0.5943390000000 1.0
C      1  0.6071280000000  0.4750600000000  0.5915000000000 1.0
C      1  0.4183150000000  0.4037900000000  0.5050290000000 1.0
C      1  0.4637130000000  0.6000450000000  0.5047570000000 1.0
C      1  0.6022390000000  0.4827970000000  0.5041070000000 1.0
C      1  0.5006420000000  0.4997400000000  0.4122650000000 1.0
END
