TITL C-3201373-1215-850 0.0823139546283846 125000 -331.481557133876 0 0 55 (C1) n - 1
REM
REM in /home/nfs/bkarasulu/CARBON/AIRSS/Generating-Clusters/LCBOP/Higher-Symm/SD-CG/FIRE-CG
REM
REM
REM
REM
REM
REM ./C.cell (b20cbc046b6831c77cfcea5457e17084)
REM AIRSS Version 0.9.1 bugfix July 2018 build 013d7b7c2542+ Fri, 06 Jul 2018 19:26:36 +0100
REM compiler GCC version 9.2.1 20190827 (Red Hat 9.2.1-1)
REM options -cpp -mtune=generic -march=x86-64 -g -O0 -fpre-include=/usr/include/finclude/math-vector-fortran.h
REM seed -2076775015 1667251914 55708018 -2042744557 -778011122 1074124633 322119409 327315337 -693117181 1887667719 -1027588077 -875253496 684929504 465028227 1830703238 -1699216372 -887413346 -1909939386 -1949580317 586446618 -1825644127 -581005072 -2127556112 1877753787 1091255710 -1164771618 -632836807 -693541815 1867097405 -1787134567 2061641594 746159818 1706333409
REM
CELL 1.54180   50.00000   50.00000   50.00000   90.00000   90.00000   90.00000
LATT -1
SFAC C  
C      1  0.4945730000000  0.4772190000000  0.4536330000000 1.0
C      1  0.5656800000000  0.4746800000000  0.5265220000000 1.0
C      1  0.5478560000000  0.4799870000000  0.4817700000000 1.0
C      1  0.4852090000000  0.5643800000000  0.4408050000000 1.0
C      1  0.5323080000000  0.4751140000000  0.6160590000000 1.0
C      1  0.4971720000000  0.4220020000000  0.5227230000000 1.0
C      1  0.4366720000000  0.4732460000000  0.4839240000000 1.0
C      1  0.5345050000000  0.5276020000000  0.4821020000000 1.0
C      1  0.4710400000000  0.4525550000000  0.5853390000000 1.0
C      1  0.5540780000000  0.4791730000000  0.6013170000000 1.0
C      1  0.5233320000000  0.5245410000000  0.4082930000000 1.0
C      1  0.4836420000000  0.4614190000000  0.6070640000000 1.0
C      1  0.4546640000000  0.5588070000000  0.5275570000000 1.0
C      1  0.5012690000000  0.4781680000000  0.5012860000000 1.0
C      1  0.4461580000000  0.4909660000000  0.5039130000000 1.0
C      1  0.4670720000000  0.4753350000000  0.4451730000000 1.0
C      1  0.4965900000000  0.4267750000000  0.5512650000000 1.0
C      1  0.5635940000000  0.4164580000000  0.5150400000000 1.0
C      1  0.4591710000000  0.4505240000000  0.5344600000000 1.0
C      1  0.5176590000000  0.5303210000000  0.5044710000000 1.0
C      1  0.5064820000000  0.4691100000000  0.6183880000000 1.0
C      1  0.5097340000000  0.5095810000000  0.5679920000000 1.0
C      1  0.4483130000000  0.4623960000000  0.4620650000000 1.0
C      1  0.4656320000000  0.5355060000000  0.5160560000000 1.0
C      1  0.5075310000000  0.4363380000000  0.4788450000000 1.0
C      1  0.5448490000000  0.4351970000000  0.5079110000000 1.0
C      1  0.5389620000000  0.5297570000000  0.3875500000000 1.0
C      1  0.5708390000000  0.4799750000000  0.5520290000000 1.0
C      1  0.4491930000000  0.5611360000000  0.4713170000000 1.0
C      1  0.5002670000000  0.4632440000000  0.4772940000000 1.0
C      1  0.5529860000000  0.4629210000000  0.5042620000000 1.0
C      1  0.5673410000000  0.4810160000000  0.5783490000000 1.0
C      1  0.5176820000000  0.4270180000000  0.5035900000000 1.0
C      1  0.4613120000000  0.5230970000000  0.4459550000000 1.0
C      1  0.4514630000000  0.5190310000000  0.4968880000000 1.0
C      1  0.5544280000000  0.5350020000000  0.3672300000000 1.0
C      1  0.5437860000000  0.5520520000000  0.4716670000000 1.0
C      1  0.5345980000000  0.5020250000000  0.4689480000000 1.0
C      1  0.4497560000000  0.5323130000000  0.4707370000000 1.0
C      1  0.4694840000000  0.4301710000000  0.5155980000000 1.0
C      1  0.4863070000000  0.5929500000000  0.4807960000000 1.0
C      1  0.4937540000000  0.5345070000000  0.5152120000000 1.0
C      1  0.4852050000000  0.5364630000000  0.4368710000000 1.0
C      1  0.4564130000000  0.4985780000000  0.4335730000000 1.0
C      1  0.5142910000000  0.5934070000000  0.4773600000000 1.0
C      1  0.4888220000000  0.4853690000000  0.5251880000000 1.0
C      1  0.4599060000000  0.5849280000000  0.5235530000000 1.0
C      1  0.4736930000000  0.4430600000000  0.5593950000000 1.0
C      1  0.4716050000000  0.5766420000000  0.4625700000000 1.0
C      1  0.5353020000000  0.5775530000000  0.4721650000000 1.0
C      1  0.4737830000000  0.5990130000000  0.5053000000000 1.0
C      1  0.5136130000000  0.4984450000000  0.4487760000000 1.0
C      1  0.4611780000000  0.4777330000000  0.5251110000000 1.0
C      1  0.5015460000000  0.4951950000000  0.5478560000000 1.0
C      1  0.5076970000000  0.5199990000000  0.4308880000000 1.0
END
