TITL C-3201375-1262-107 -1.54737376486349e-06 125000 -801.955750002322 0 0 128 (C1) n - 1
REM
REM in /home/nfs/bkarasulu/CARBON/AIRSS/Generating-Clusters/LCBOP/Higher-Symm/SD-CG/FIRE-CG
REM
REM
REM
REM
REM
REM ./C.cell (b20cbc046b6831c77cfcea5457e17084)
REM AIRSS Version 0.9.1 bugfix July 2018 build 013d7b7c2542+ Fri, 06 Jul 2018 19:26:36 +0100
REM compiler GCC version 9.2.1 20190827 (Red Hat 9.2.1-1)
REM options -cpp -mtune=generic -march=x86-64 -g -O0 -fpre-include=/usr/include/finclude/math-vector-fortran.h
REM seed -1965064283 -2025533641 1568559946 -390015381 -793467328 1057764338 -502503154 -2056596386 1214000175 -255783329 558822051 -1972256140 -891030234 -1790747419 -492748477 -597941979 1042494091 -1235214373 1965028964 1266436886 1178798424 -1682948202 1371024772 -1583466331 -2028757299 283868453 -2122611753 1006391767 1309389308 -48906603 -123023011 -2081291000 1404488831
REM
CELL 1.54180   50.00000   50.00000   50.00000   90.00000   90.00000   90.00000
LATT -1
SFAC C  
C      1  0.5020860000000  0.4673120000000  0.3851890000000 1.0
C      1  0.5177340000000  0.5059900000000  0.6165690000000 1.0
C      1  0.4797300000000  0.5216800000000  0.4004560000000 1.0
C      1  0.4664460000000  0.4825930000000  0.5974300000000 1.0
C      1  0.4048040000000  0.5349940000000  0.5283560000000 1.0
C      1  0.4687380000000  0.4006630000000  0.4753480000000 1.0
C      1  0.5925920000000  0.4663040000000  0.5295720000000 1.0
C      1  0.5441020000000  0.5952830000000  0.4644960000000 1.0
C      1  0.5009790000000  0.4887080000000  0.6319220000000 1.0
C      1  0.4842960000000  0.5117810000000  0.3739730000000 1.0
C      1  0.4752770000000  0.4837310000000  0.6245970000000 1.0
C      1  0.4879210000000  0.4854180000000  0.3681180000000 1.0
C      1  0.5479510000000  0.6069060000000  0.5121250000000 1.0
C      1  0.4037360000000  0.5412970000000  0.4790200000000 1.0
C      1  0.4763620000000  0.4111520000000  0.5239070000000 1.0
C      1  0.5937300000000  0.4752830000000  0.4791210000000 1.0
C      1  0.5071730000000  0.5172780000000  0.4898540000000 1.0
C      1  0.4832440000000  0.5002560000000  0.4957510000000 1.0
C      1  0.4960680000000  0.4745600000000  0.5050930000000 1.0
C      1  0.5319190000000  0.5058220000000  0.4838160000000 1.0
C      1  0.5192180000000  0.3915120000000  0.5230340000000 1.0
C      1  0.6168980000000  0.5164050000000  0.4784620000000 1.0
C      1  0.5049490000000  0.6241460000000  0.5207300000000 1.0
C      1  0.3943390000000  0.4958310000000  0.4681850000000 1.0
C      1  0.6224620000000  0.5156430000000  0.5285470000000 1.0
C      1  0.4946080000000  0.6277720000000  0.4723060000000 1.0
C      1  0.3793150000000  0.4851180000000  0.5156620000000 1.0
C      1  0.5204900000000  0.3760810000000  0.4750490000000 1.0
C      1  0.5990030000000  0.5246410000000  0.5415350000000 1.0
C      1  0.4831770000000  0.6035460000000  0.4634990000000 1.0
C      1  0.3978920000000  0.4763540000000  0.5351260000000 1.0
C      1  0.5265230000000  0.3979740000000  0.4581060000000 1.0
C      1  0.4895930000000  0.5457060000000  0.5630400000000 1.0
C      1  0.4706210000000  0.4795690000000  0.4505190000000 1.0
C      1  0.5135860000000  0.4874160000000  0.5464250000000 1.0
C      1  0.5338320000000  0.4900410000000  0.4389730000000 1.0
C      1  0.5462540000000  0.5023250000000  0.4599980000000 1.0
C      1  0.4993320000000  0.5683100000000  0.5528400000000 1.0
C      1  0.4646800000000  0.4975810000000  0.4703550000000 1.0
C      1  0.5078640000000  0.4664410000000  0.5294800000000 1.0
C      1  0.5821960000000  0.4599830000000  0.5023460000000 1.0
C      1  0.5586340000000  0.5956410000000  0.4888850000000 1.0
C      1  0.4183810000000  0.5465210000000  0.5049830000000 1.0
C      1  0.4595230000000  0.4156580000000  0.4992570000000 1.0
C      1  0.4538210000000  0.5136110000000  0.4097000000000 1.0
C      1  0.4728670000000  0.4577580000000  0.5854470000000 1.0
C      1  0.5299680000000  0.4745380000000  0.3861360000000 1.0
C      1  0.5087920000000  0.5332260000000  0.6189300000000 1.0
C      1  0.5086680000000  0.4963350000000  0.4293170000000 1.0
C      1  0.4886320000000  0.5187300000000  0.5707250000000 1.0
C      1  0.4897280000000  0.4762870000000  0.4307370000000 1.0
C      1  0.5117540000000  0.5031980000000  0.5688480000000 1.0
C      1  0.4208740000000  0.4931480000000  0.5411050000000 1.0
C      1  0.5070300000000  0.4193490000000  0.4559200000000 1.0
C      1  0.5755480000000  0.5073980000000  0.5435680000000 1.0
C      1  0.4989330000000  0.5789570000000  0.4618070000000 1.0
C      1  0.4846800000000  0.5459160000000  0.6193270000000 1.0
C      1  0.4392260000000  0.4906760000000  0.4086230000000 1.0
C      1  0.4953730000000  0.4430640000000  0.5884760000000 1.0
C      1  0.5443640000000  0.4976520000000  0.3879220000000 1.0
C      1  0.5652200000000  0.4240350000000  0.5294450000000 1.0
C      1  0.5820390000000  0.5608310000000  0.4675100000000 1.0
C      1  0.4288880000000  0.5803400000000  0.5387760000000 1.0
C      1  0.4200280000000  0.4171010000000  0.4707950000000 1.0
C      1  0.4469980000000  0.5287050000000  0.5900050000000 1.0
C      1  0.4617560000000  0.4447300000000  0.4134580000000 1.0
C      1  0.5394080000000  0.4685390000000  0.5856070000000 1.0
C      1  0.5284020000000  0.5373590000000  0.4167280000000 1.0
C      1  0.4874330000000  0.4579980000000  0.4087610000000 1.0
C      1  0.5274440000000  0.4949150000000  0.5913030000000 1.0
C      1  0.5031380000000  0.5221730000000  0.4179800000000 1.0
C      1  0.4652100000000  0.5075710000000  0.5832500000000 1.0
C      1  0.4168220000000  0.5202150000000  0.5494400000000 1.0
C      1  0.4793310000000  0.4132300000000  0.4516880000000 1.0
C      1  0.5768270000000  0.4793290000000  0.5496170000000 1.0
C      1  0.5265200000000  0.5762190000000  0.4521820000000 1.0
C      1  0.4648850000000  0.4456290000000  0.4956340000000 1.0
C      1  0.5523940000000  0.4684880000000  0.4994650000000 1.0
C      1  0.5249240000000  0.5547870000000  0.5153360000000 1.0
C      1  0.4466710000000  0.5320110000000  0.4977180000000 1.0
C      1  0.4037320000000  0.4486470000000  0.5333190000000 1.0
C      1  0.5533380000000  0.4069660000000  0.4607950000000 1.0
C      1  0.5931790000000  0.5520260000000  0.5356400000000 1.0
C      1  0.4561040000000  0.6000890000000  0.4725800000000 1.0
C      1  0.5943930000000  0.5022510000000  0.4688010000000 1.0
C      1  0.5231880000000  0.6031860000000  0.5252050000000 1.0
C      1  0.4127980000000  0.5169110000000  0.4663450000000 1.0
C      1  0.5042720000000  0.4146210000000  0.5299570000000 1.0
C      1  0.4897120000000  0.5593630000000  0.4806060000000 1.0
C      1  0.4442330000000  0.4871680000000  0.5246390000000 1.0
C      1  0.5124570000000  0.4420060000000  0.4735260000000 1.0
C      1  0.5547290000000  0.5144800000000  0.5248030000000 1.0
C      1  0.5458090000000  0.4951470000000  0.5057200000000 1.0
C      1  0.5078580000000  0.5445310000000  0.4953930000000 1.0
C      1  0.4606740000000  0.5096420000000  0.5149870000000 1.0
C      1  0.4907480000000  0.4531880000000  0.4877380000000 1.0
C      1  0.4630360000000  0.5564680000000  0.4890020000000 1.0
C      1  0.4453650000000  0.4607780000000  0.5116920000000 1.0
C      1  0.5391440000000  0.4478270000000  0.4827160000000 1.0
C      1  0.5500660000000  0.5425170000000  0.5194730000000 1.0
C      1  0.5664300000000  0.5435780000000  0.4512890000000 1.0
C      1  0.4299270000000  0.5650130000000  0.5611390000000 1.0
C      1  0.4322180000000  0.4215810000000  0.4467580000000 1.0
C      1  0.5463770000000  0.4398980000000  0.5447070000000 1.0
C      1  0.4409060000000  0.5143330000000  0.4724310000000 1.0
C      1  0.5181930000000  0.4398450000000  0.5355790000000 1.0
C      1  0.5709780000000  0.5155390000000  0.4573600000000 1.0
C      1  0.5159190000000  0.5764470000000  0.5318600000000 1.0
C      1  0.4476630000000  0.5809490000000  0.4911920000000 1.0
C      1  0.4236290000000  0.4408000000000  0.5153140000000 1.0
C      1  0.5589990000000  0.4259980000000  0.4804150000000 1.0
C      1  0.5737830000000  0.5584600000000  0.5162730000000 1.0
C      1  0.4584720000000  0.4251720000000  0.4349480000000 1.0
C      1  0.5559370000000  0.4627650000000  0.5618720000000 1.0
C      1  0.5400700000000  0.5529160000000  0.4390370000000 1.0
C      1  0.4295130000000  0.5374120000000  0.5691360000000 1.0
C      1  0.5760860000000  0.5733560000000  0.4920870000000 1.0
C      1  0.4276520000000  0.5750640000000  0.5108390000000 1.0
C      1  0.4287950000000  0.4178490000000  0.4982110000000 1.0
C      1  0.5765730000000  0.4295700000000  0.5032280000000 1.0
C      1  0.6291120000000  0.5169570000000  0.5024530000000 1.0
C      1  0.4982190000000  0.6362400000000  0.4976290000000 1.0
C      1  0.3793650000000  0.4873660000000  0.4888760000000 1.0
C      1  0.5212450000000  0.3749530000000  0.5019690000000 1.0
C      1  0.5217270000000  0.4471690000000  0.5928260000000 1.0
C      1  0.5451790000000  0.5231510000000  0.3977250000000 1.0
C      1  0.4588810000000  0.5450480000000  0.6104170000000 1.0
C      1  0.4404630000000  0.4634850000000  0.4081510000000 1.0
END
