TITL C-3201372-1405-458 2.99525191853727e-07 125000 -1224.69064978256 0 0 200 (C1) n - 1
REM
REM in /home/nfs/bkarasulu/CARBON/AIRSS/Generating-Clusters/LCBOP/Higher-Symm/SD-CG/FIRE-CG
REM
REM
REM
REM
REM
REM ./C.cell (b20cbc046b6831c77cfcea5457e17084)
REM AIRSS Version 0.9.1 bugfix July 2018 build 013d7b7c2542+ Fri, 06 Jul 2018 19:26:36 +0100
REM compiler GCC version 9.2.1 20190827 (Red Hat 9.2.1-1)
REM options -cpp -mtune=generic -march=x86-64 -g -O0 -fpre-include=/usr/include/finclude/math-vector-fortran.h
REM seed 494346940 459424179 2132043059 1187482712 -1771322850 -803300595 -384823178 -260956859 404296267 1763789059 54968306 -1331915847 770254477 -1610100371 1031698983 1276506719 1056327721 124900194 -1002621642 1380670794 1654031070 2073306944 579603826 2124777037 184268400 2053025226 2132056095 -853558455 -1845690424 -1856068765 -492597578 1131309225 1629243315
REM
CELL 1.54180   50.00000   50.00000   50.00000   90.00000   90.00000   90.00000
LATT -1
SFAC C  
C      1  0.5831340000000  0.4801980000000  0.5712700000000 1.0
C      1  0.4157730000000  0.4790810000000  0.4400750000000 1.0
C      1  0.5934840000000  0.5224680000000  0.4385520000000 1.0
C      1  0.4064860000000  0.5063050000000  0.5801680000000 1.0
C      1  0.5587740000000  0.4734450000000  0.5837450000000 1.0
C      1  0.4241630000000  0.4894970000000  0.4150220000000 1.0
C      1  0.4303070000000  0.5209830000000  0.5854880000000 1.0
C      1  0.5715560000000  0.5307070000000  0.4219530000000 1.0
C      1  0.5156190000000  0.5290980000000  0.4230720000000 1.0
C      1  0.4776430000000  0.5325410000000  0.5676190000000 1.0
C      1  0.5123200000000  0.4695230000000  0.5672280000000 1.0
C      1  0.4696650000000  0.4715490000000  0.4207640000000 1.0
C      1  0.4014640000000  0.5315500000000  0.5390310000000 1.0
C      1  0.5861480000000  0.5395680000000  0.4852940000000 1.0
C      1  0.5777170000000  0.4660590000000  0.5246490000000 1.0
C      1  0.4286300000000  0.4792770000000  0.4911810000000 1.0
C      1  0.4488660000000  0.5402050000000  0.4277650000000 1.0
C      1  0.5546700000000  0.5290140000000  0.5747950000000 1.0
C      1  0.4454600000000  0.4653390000000  0.5680490000000 1.0
C      1  0.5549350000000  0.4745130000000  0.4337860000000 1.0
C      1  0.4264090000000  0.5462910000000  0.4457100000000 1.0
C      1  0.5792180000000  0.5300470000000  0.5586990000000 1.0
C      1  0.5764700000000  0.4722090000000  0.4536030000000 1.0
C      1  0.4198360000000  0.4584470000000  0.5575440000000 1.0
C      1  0.4954410000000  0.6245690000000  0.5396440000000 1.0
C      1  0.4931460000000  0.6208370000000  0.4412630000000 1.0
C      1  0.5034670000000  0.3798890000000  0.4507260000000 1.0
C      1  0.4871160000000  0.3690210000000  0.5501250000000 1.0
C      1  0.5503930000000  0.6298410000000  0.4807790000000 1.0
C      1  0.4482940000000  0.6090730000000  0.4990370000000 1.0
C      1  0.4460470000000  0.3719570000000  0.5094050000000 1.0
C      1  0.5448200000000  0.3760260000000  0.4914690000000 1.0
C      1  0.5275770000000  0.3738100000000  0.5136730000000 1.0
C      1  0.4627920000000  0.3727040000000  0.4866820000000 1.0
C      1  0.5429090000000  0.6324950000000  0.4527370000000 1.0
C      1  0.4483630000000  0.6067690000000  0.5280570000000 1.0
C      1  0.5093800000000  0.3695780000000  0.5327410000000 1.0
C      1  0.4815900000000  0.3772350000000  0.4682970000000 1.0
C      1  0.4736520000000  0.6058070000000  0.5418740000000 1.0
C      1  0.5226990000000  0.6209460000000  0.4351380000000 1.0
C      1  0.6061600000000  0.4787910000000  0.5864640000000 1.0
C      1  0.3980250000000  0.4582050000000  0.4406570000000 1.0
C      1  0.6186720000000  0.5224200000000  0.4270880000000 1.0
C      1  0.3939790000000  0.4920790000000  0.5998910000000 1.0
C      1  0.5593990000000  0.4547040000000  0.6040610000000 1.0
C      1  0.4073890000000  0.4941110000000  0.3940130000000 1.0
C      1  0.4284880000000  0.5391440000000  0.6061590000000 1.0
C      1  0.5773290000000  0.5468420000000  0.4002090000000 1.0
C      1  0.4671960000000  0.3258730000000  0.5732420000000 1.0
C      1  0.5225280000000  0.3402120000000  0.4215700000000 1.0
C      1  0.4536030000000  0.6085770000000  0.4112030000000 1.0
C      1  0.5369000000000  0.6341920000000  0.5683580000000 1.0
C      1  0.5692390000000  0.3352700000000  0.4683830000000 1.0
C      1  0.4201720000000  0.3293690000000  0.5271110000000 1.0
C      1  0.4107580000000  0.6048790000000  0.4651250000000 1.0
C      1  0.5852920000000  0.6199570000000  0.5159690000000 1.0
C      1  0.5222730000000  0.4012540000000  0.4539060000000 1.0
C      1  0.4691490000000  0.3913980000000  0.5499000000000 1.0
C      1  0.5087060000000  0.6287460000000  0.5147940000000 1.0
C      1  0.4888470000000  0.6090220000000  0.4672370000000 1.0
C      1  0.4484460000000  0.3930880000000  0.5286340000000 1.0
C      1  0.5438390000000  0.3989960000000  0.4743640000000 1.0
C      1  0.5271140000000  0.6203570000000  0.4956130000000 1.0
C      1  0.4719750000000  0.5990060000000  0.4879870000000 1.0
C      1  0.4535820000000  0.5053700000000  0.4638400000000 1.0
C      1  0.5722660000000  0.5160610000000  0.5312610000000 1.0
C      1  0.4553360000000  0.4973120000000  0.5260150000000 1.0
C      1  0.5703470000000  0.4942020000000  0.4766180000000 1.0
C      1  0.4621690000000  0.5146430000000  0.4370600000000 1.0
C      1  0.5309280000000  0.5130320000000  0.5604730000000 1.0
C      1  0.5412650000000  0.4981540000000  0.4442630000000 1.0
C      1  0.4610580000000  0.4881520000000  0.5541030000000 1.0
C      1  0.5109880000000  0.5394420000000  0.3963480000000 1.0
C      1  0.4927520000000  0.5640170000000  0.5984910000000 1.0
C      1  0.5006470000000  0.4610330000000  0.6193050000000 1.0
C      1  0.4969250000000  0.4718680000000  0.3797680000000 1.0
C      1  0.3804410000000  0.5506930000000  0.5380000000000 1.0
C      1  0.6371100000000  0.5550430000000  0.5191190000000 1.0
C      1  0.6233000000000  0.4558220000000  0.5087520000000 1.0
C      1  0.3840760000000  0.4627440000000  0.4925010000000 1.0
C      1  0.3559670000000  0.5445240000000  0.5280380000000 1.0
C      1  0.6550350000000  0.5433320000000  0.5028310000000 1.0
C      1  0.3815150000000  0.4922470000000  0.4896790000000 1.0
C      1  0.6286430000000  0.4836610000000  0.5167000000000 1.0
C      1  0.5272690000000  0.5222700000000  0.3789790000000 1.0
C      1  0.4808640000000  0.5560890000000  0.6231620000000 1.0
C      1  0.4810310000000  0.4956330000000  0.3715770000000 1.0
C      1  0.5064630000000  0.4896620000000  0.6213460000000 1.0
C      1  0.5265210000000  0.5937050000000  0.4226820000000 1.0
C      1  0.4742360000000  0.5630150000000  0.5728010000000 1.0
C      1  0.5163870000000  0.4416310000000  0.5711550000000 1.0
C      1  0.4732550000000  0.4434190000000  0.4238990000000 1.0
C      1  0.4278070000000  0.5857780000000  0.5326730000000 1.0
C      1  0.5709040000000  0.5630350000000  0.4760410000000 1.0
C      1  0.5754620000000  0.4377540000000  0.5247410000000 1.0
C      1  0.4324590000000  0.4513050000000  0.4870820000000 1.0
C      1  0.5426710000000  0.5026970000000  0.3955960000000 1.0
C      1  0.4644120000000  0.4936490000000  0.6012000000000 1.0
C      1  0.5284710000000  0.5022790000000  0.6068190000000 1.0
C      1  0.4638530000000  0.5116670000000  0.3897920000000 1.0
C      1  0.3837820000000  0.4880640000000  0.5389260000000 1.0
C      1  0.6165320000000  0.4934360000000  0.4709760000000 1.0
C      1  0.6154530000000  0.4973060000000  0.5400160000000 1.0
C      1  0.4000640000000  0.5102190000000  0.4723110000000 1.0
C      1  0.5439230000000  0.3250340000000  0.4266390000000 1.0
C      1  0.4452770000000  0.3121520000000  0.5665190000000 1.0
C      1  0.5622910000000  0.6326290000000  0.5601910000000 1.0
C      1  0.4279400000000  0.6109110000000  0.4179450000000 1.0
C      1  0.4262040000000  0.3135880000000  0.5478080000000 1.0
C      1  0.5627500000000  0.3230330000000  0.4455380000000 1.0
C      1  0.5803400000000  0.6276550000000  0.5411360000000 1.0
C      1  0.4116220000000  0.6097380000000  0.4389810000000 1.0
C      1  0.5819920000000  0.4293210000000  0.4971700000000 1.0
C      1  0.4210430000000  0.4343330000000  0.5075900000000 1.0
C      1  0.5566480000000  0.5823450000000  0.4948320000000 1.0
C      1  0.4184930000000  0.5751760000000  0.5063780000000 1.0
C      1  0.4920170000000  0.4295080000000  0.5815490000000 1.0
C      1  0.5024510000000  0.4377460000000  0.4200200000000 1.0
C      1  0.4823110000000  0.5784530000000  0.5469700000000 1.0
C      1  0.4962420000000  0.5782970000000  0.4214420000000 1.0
C      1  0.4939830000000  0.5670340000000  0.5229510000000 1.0
C      1  0.5099270000000  0.5877500000000  0.4668350000000 1.0
C      1  0.5153630000000  0.4275510000000  0.4436400000000 1.0
C      1  0.4806200000000  0.4164970000000  0.5586100000000 1.0
C      1  0.5284000000000  0.5924040000000  0.4865280000000 1.0
C      1  0.4798030000000  0.5713010000000  0.4972100000000 1.0
C      1  0.4424300000000  0.4195040000000  0.5186990000000 1.0
C      1  0.5575530000000  0.4231710000000  0.4828190000000 1.0
C      1  0.5255550000000  0.5071430000000  0.5320850000000 1.0
C      1  0.5003920000000  0.5080220000000  0.4658100000000 1.0
C      1  0.5277530000000  0.5048500000000  0.4681920000000 1.0
C      1  0.5011860000000  0.4943530000000  0.5269440000000 1.0
C      1  0.5472400000000  0.5119700000000  0.5158290000000 1.0
C      1  0.4769870000000  0.5037480000000  0.4816590000000 1.0
C      1  0.4791480000000  0.4997140000000  0.5096280000000 1.0
C      1  0.5464560000000  0.5077870000000  0.4881770000000 1.0
C      1  0.4458710000000  0.5712500000000  0.5767300000000 1.0
C      1  0.5499620000000  0.5798880000000  0.4297220000000 1.0
C      1  0.4567860000000  0.4313190000000  0.4428640000000 1.0
C      1  0.5380250000000  0.4277020000000  0.5600320000000 1.0
C      1  0.5658360000000  0.5697870000000  0.4488930000000 1.0
C      1  0.4262580000000  0.5768720000000  0.5591500000000 1.0
C      1  0.4441830000000  0.4382280000000  0.4652980000000 1.0
C      1  0.5590650000000  0.4254160000000  0.5436740000000 1.0
C      1  0.4817370000000  0.5545960000000  0.4733030000000 1.0
C      1  0.5479700000000  0.5688800000000  0.5202180000000 1.0
C      1  0.4669030000000  0.4341790000000  0.5161090000000 1.0
C      1  0.5395190000000  0.4452310000000  0.4815680000000 1.0
C      1  0.4968520000000  0.5665450000000  0.4518220000000 1.0
C      1  0.5219610000000  0.5620390000000  0.5249570000000 1.0
C      1  0.5196750000000  0.4472930000000  0.4636150000000 1.0
C      1  0.4856090000000  0.4321490000000  0.5350660000000 1.0
C      1  0.6349490000000  0.4983150000000  0.4924340000000 1.0
C      1  0.3694130000000  0.4989410000000  0.5153590000000 1.0
C      1  0.6539610000000  0.5188220000000  0.4918810000000 1.0
C      1  0.3507080000000  0.5199210000000  0.5179890000000 1.0
C      1  0.4818660000000  0.5044320000000  0.6210410000000 1.0
C      1  0.4928160000000  0.5088330000000  0.3492580000000 1.0
C      1  0.4784290000000  0.5303660000000  0.6315590000000 1.0
C      1  0.5177860000000  0.5189900000000  0.3526750000000 1.0
C      1  0.5763780000000  0.4768850000000  0.4994020000000 1.0
C      1  0.4310750000000  0.5000670000000  0.5123400000000 1.0
C      1  0.5906030000000  0.5350350000000  0.5131870000000 1.0
C      1  0.4182630000000  0.5266820000000  0.5162330000000 1.0
C      1  0.4915190000000  0.4807250000000  0.5511040000000 1.0
C      1  0.4961240000000  0.4839760000000  0.4242330000000 1.0
C      1  0.5066190000000  0.5297980000000  0.5702230000000 1.0
C      1  0.4939580000000  0.5117260000000  0.4364450000000 1.0
C      1  0.6133480000000  0.5446100000000  0.5292430000000 1.0
C      1  0.4171960000000  0.5481670000000  0.4966760000000 1.0
C      1  0.6058500000000  0.4453090000000  0.4870660000000 1.0
C      1  0.3968150000000  0.4480580000000  0.5146340000000 1.0
C      1  0.5163020000000  0.5474990000000  0.5927820000000 1.0
C      1  0.4885970000000  0.5569600000000  0.4005300000000 1.0
C      1  0.4811210000000  0.4474760000000  0.6017580000000 1.0
C      1  0.5125320000000  0.4649390000000  0.4061550000000 1.0
C      1  0.3958640000000  0.5085550000000  0.5545260000000 1.0
C      1  0.5920870000000  0.5146120000000  0.4679920000000 1.0
C      1  0.4254520000000  0.4932360000000  0.4650050000000 1.0
C      1  0.5855670000000  0.4872170000000  0.5422090000000 1.0
C      1  0.5441430000000  0.5186830000000  0.4232270000000 1.0
C      1  0.4577190000000  0.5110950000000  0.5762720000000 1.0
C      1  0.4529000000000  0.4951880000000  0.4139350000000 1.0
C      1  0.5328030000000  0.4878250000000  0.5787300000000 1.0
C      1  0.3975840000000  0.4625610000000  0.5395170000000 1.0
C      1  0.6041370000000  0.4648180000000  0.4640500000000 1.0
C      1  0.4111230000000  0.5381900000000  0.4700160000000 1.0
C      1  0.6105780000000  0.5273870000000  0.5536170000000 1.0
C      1  0.5417410000000  0.4741840000000  0.4063740000000 1.0
C      1  0.4593050000000  0.4650960000000  0.5943560000000 1.0
C      1  0.4629180000000  0.5420060000000  0.4006570000000 1.0
C      1  0.5398310000000  0.5314770000000  0.6015470000000 1.0
C      1  0.5710490000000  0.6113470000000  0.4933620000000 1.0
C      1  0.4239500000000  0.5974560000000  0.4882330000000 1.0
C      1  0.5620260000000  0.3549300000000  0.4848470000000 1.0
C      1  0.4281890000000  0.3508910000000  0.5136290000000 1.0
C      1  0.5109650000000  0.6317520000000  0.5620820000000 1.0
C      1  0.4790300000000  0.6044570000000  0.4211640000000 1.0
C      1  0.4819990000000  0.3469620000000  0.5664950000000 1.0
C      1  0.5081030000000  0.3605140000000  0.4310280000000 1.0
END
