TITL C-3201376-6384-1919 3.82406762872161e-07 125000 -799.823307228468 0 0 130 (C1) n - 1
REM
REM in /home/nfs/bkarasulu/CARBON/AIRSS/Generating-Clusters/LCBOP/Higher-Symm/SD-CG/FIRE-CG
REM
REM
REM
REM
REM
REM ./C.cell (b20cbc046b6831c77cfcea5457e17084)
REM AIRSS Version 0.9.1 bugfix July 2018 build 013d7b7c2542+ Fri, 06 Jul 2018 19:26:36 +0100
REM compiler GCC version 9.2.1 20190827 (Red Hat 9.2.1-1)
REM options -cpp -mtune=generic -march=x86-64 -g -O0 -fpre-include=/usr/include/finclude/math-vector-fortran.h
REM seed 1828611841 -2080162312 -1001337879 1341652097 2071975747 1408588182 1821468052 397407153 -1674588743 -877613594 -986971304 498223237 2098863296 2010841716 1044603667 1418481732 -259107245 -351256531 544960989 914883927 -1726497558 -258021959 -1689566745 1492958776 -1709763027 1358791360 563011200 38269253 -197897801 -2081319991 190681469 -217375570 72255934
REM
CELL 1.54180   50.00000   50.00000   50.00000   90.00000   90.00000   90.00000
LATT -1
SFAC C  
C      1  0.4597370000000  0.4500880000000  0.4769570000000 1.0
C      1  0.5471510000000  0.5455720000000  0.4798020000000 1.0
C      1  0.5331090000000  0.4337050000000  0.5761530000000 1.0
C      1  0.4416590000000  0.5609230000000  0.5802020000000 1.0
C      1  0.5112390000000  0.4973080000000  0.6404970000000 1.0
C      1  0.5070740000000  0.5233110000000  0.6369450000000 1.0
C      1  0.5368910000000  0.4175870000000  0.5216270000000 1.0
C      1  0.4533720000000  0.5974160000000  0.5145100000000 1.0
C      1  0.4981840000000  0.5441800000000  0.6231080000000 1.0
C      1  0.5114020000000  0.4720260000000  0.6323250000000 1.0
C      1  0.4694410000000  0.5538300000000  0.5798730000000 1.0
C      1  0.5079970000000  0.4445490000000  0.5868760000000 1.0
C      1  0.4534890000000  0.3837070000000  0.4900210000000 1.0
C      1  0.5591770000000  0.6108190000000  0.4780950000000 1.0
C      1  0.5615340000000  0.4158140000000  0.5366720000000 1.0
C      1  0.4170800000000  0.5718670000000  0.5382490000000 1.0
C      1  0.5679940000000  0.4287950000000  0.4731060000000 1.0
C      1  0.4164010000000  0.5768960000000  0.4717940000000 1.0
C      1  0.5791540000000  0.5924440000000  0.4773270000000 1.0
C      1  0.4290440000000  0.3974090000000  0.4887410000000 1.0
C      1  0.5674480000000  0.5276210000000  0.5789170000000 1.0
C      1  0.4636640000000  0.4732660000000  0.5770610000000 1.0
C      1  0.4129330000000  0.5285820000000  0.5546580000000 1.0
C      1  0.5792780000000  0.4538800000000  0.5607760000000 1.0
C      1  0.5693950000000  0.4800160000000  0.5668220000000 1.0
C      1  0.4376270000000  0.5130820000000  0.5539490000000 1.0
C      1  0.4764410000000  0.4381290000000  0.5487590000000 1.0
C      1  0.5435010000000  0.5523130000000  0.5402270000000 1.0
C      1  0.5868480000000  0.5141760000000  0.4873890000000 1.0
C      1  0.4177010000000  0.4741450000000  0.4821410000000 1.0
C      1  0.5604440000000  0.4764360000000  0.4562980000000 1.0
C      1  0.4417750000000  0.5127290000000  0.4518450000000 1.0
C      1  0.4645570000000  0.5803500000000  0.4480470000000 1.0
C      1  0.5279620000000  0.4211830000000  0.4474120000000 1.0
C      1  0.5888950000000  0.4431430000000  0.4310530000000 1.0
C      1  0.3820910000000  0.6010550000000  0.4374050000000 1.0
C      1  0.6015990000000  0.4715960000000  0.5138070000000 1.0
C      1  0.3972370000000  0.5119680000000  0.5066170000000 1.0
C      1  0.5800070000000  0.4959260000000  0.4668450000000 1.0
C      1  0.4245670000000  0.4935490000000  0.4628700000000 1.0
C      1  0.5037640000000  0.5153240000000  0.4646730000000 1.0
C      1  0.4934270000000  0.4871680000000  0.4671940000000 1.0
C      1  0.5019810000000  0.5276350000000  0.5481220000000 1.0
C      1  0.5005370000000  0.4992890000000  0.5495070000000 1.0
C      1  0.5374670000000  0.5684110000000  0.4949200000000 1.0
C      1  0.4771370000000  0.4279240000000  0.4814260000000 1.0
C      1  0.5887820000000  0.5669580000000  0.4794930000000 1.0
C      1  0.4207180000000  0.4227940000000  0.4845420000000 1.0
C      1  0.3984460000000  0.5895120000000  0.4540910000000 1.0
C      1  0.5727130000000  0.4486450000000  0.4524870000000 1.0
C      1  0.5505890000000  0.4858110000000  0.4282970000000 1.0
C      1  0.4479480000000  0.5098230000000  0.4236150000000 1.0
C      1  0.5100270000000  0.5729430000000  0.4925840000000 1.0
C      1  0.5032760000000  0.4337140000000  0.4924830000000 1.0
C      1  0.5422340000000  0.4161200000000  0.4719570000000 1.0
C      1  0.4441890000000  0.5849260000000  0.4686710000000 1.0
C      1  0.4213390000000  0.4688360000000  0.5523030000000 1.0
C      1  0.6064930000000  0.5106390000000  0.5585310000000 1.0
C      1  0.5030470000000  0.3874630000000  0.4923590000000 1.0
C      1  0.4816890000000  0.6159860000000  0.4742460000000 1.0
C      1  0.4934510000000  0.3626390000000  0.5038400000000 1.0
C      1  0.5074970000000  0.6240420000000  0.4831500000000 1.0
C      1  0.5353130000000  0.3894050000000  0.4044480000000 1.0
C      1  0.5044960000000  0.5997130000000  0.4309810000000 1.0
C      1  0.5467020000000  0.5128690000000  0.4212300000000 1.0
C      1  0.4515220000000  0.4842990000000  0.4119430000000 1.0
C      1  0.5100760000000  0.4437160000000  0.4460760000000 1.0
C      1  0.4848140000000  0.5589720000000  0.4413560000000 1.0
C      1  0.5874750000000  0.4300200000000  0.4935450000000 1.0
C      1  0.4041280000000  0.5580720000000  0.4902010000000 1.0
C      1  0.4047950000000  0.4843700000000  0.5057380000000 1.0
C      1  0.5999440000000  0.5006510000000  0.5102020000000 1.0
C      1  0.6050110000000  0.4534850000000  0.4914560000000 1.0
C      1  0.3980240000000  0.5302480000000  0.4837480000000 1.0
C      1  0.5200610000000  0.4891110000000  0.5669310000000 1.0
C      1  0.4783150000000  0.5395360000000  0.5566950000000 1.0
C      1  0.5439830000000  0.4815520000000  0.5547460000000 1.0
C      1  0.4567090000000  0.5300290000000  0.5406530000000 1.0
C      1  0.4412950000000  0.4859800000000  0.5631760000000 1.0
C      1  0.5826460000000  0.5046710000000  0.5724090000000 1.0
C      1  0.4067280000000  0.4697910000000  0.5297680000000 1.0
C      1  0.6103940000000  0.5147560000000  0.5322310000000 1.0
C      1  0.4634960000000  0.5435530000000  0.4933360000000 1.0
C      1  0.5257660000000  0.4872460000000  0.5092200000000 1.0
C      1  0.3994040000000  0.5584010000000  0.5194690000000 1.0
C      1  0.5841320000000  0.4266940000000  0.5220630000000 1.0
C      1  0.4682450000000  0.4510570000000  0.5265780000000 1.0
C      1  0.5242720000000  0.5333810000000  0.5310990000000 1.0
C      1  0.5272140000000  0.5249580000000  0.4799440000000 1.0
C      1  0.4727040000000  0.4753310000000  0.4838090000000 1.0
C      1  0.5308850000000  0.5276370000000  0.4054490000000 1.0
C      1  0.4685400000000  0.4714160000000  0.3957430000000 1.0
C      1  0.4190420000000  0.5566750000000  0.5634490000000 1.0
C      1  0.5591940000000  0.4311280000000  0.5629450000000 1.0
C      1  0.3974840000000  0.5297750000000  0.5298180000000 1.0
C      1  0.5933240000000  0.4522430000000  0.5353560000000 1.0
C      1  0.4844530000000  0.5338630000000  0.4544260000000 1.0
C      1  0.5136120000000  0.4677750000000  0.4614900000000 1.0
C      1  0.4656700000000  0.3606150000000  0.5025460000000 1.0
C      1  0.5344760000000  0.6214770000000  0.4814880000000 1.0
C      1  0.4809290000000  0.5357120000000  0.3940990000000 1.0
C      1  0.5195210000000  0.4633040000000  0.3927520000000 1.0
C      1  0.5071310000000  0.5724030000000  0.4288900000000 1.0
C      1  0.4869730000000  0.4397010000000  0.4317380000000 1.0
C      1  0.4981910000000  0.4871500000000  0.5232800000000 1.0
C      1  0.4868830000000  0.5600670000000  0.4927460000000 1.0
C      1  0.4827530000000  0.4511820000000  0.5731330000000 1.0
C      1  0.5559970000000  0.5473240000000  0.5647170000000 1.0
C      1  0.4933660000000  0.4655750000000  0.3877190000000 1.0
C      1  0.5075850000000  0.5334540000000  0.3937170000000 1.0
C      1  0.4311490000000  0.4487260000000  0.4801920000000 1.0
C      1  0.5760990000000  0.5413410000000  0.4823010000000 1.0
C      1  0.5403670000000  0.4677690000000  0.4089540000000 1.0
C      1  0.4580820000000  0.5305110000000  0.4072410000000 1.0
C      1  0.5295080000000  0.4444080000000  0.5277210000000 1.0
C      1  0.4424650000000  0.5739450000000  0.5254230000000 1.0
C      1  0.4582780000000  0.6036500000000  0.4874900000000 1.0
C      1  0.5238400000000  0.4100010000000  0.4955970000000 1.0
C      1  0.4515580000000  0.5469610000000  0.5184230000000 1.0
C      1  0.5397130000000  0.4704050000000  0.5286060000000 1.0
C      1  0.5314350000000  0.4041660000000  0.4255680000000 1.0
C      1  0.4814440000000  0.6058630000000  0.4468680000000 1.0
C      1  0.4852620000000  0.5553200000000  0.6027460000000 1.0
C      1  0.5094450000000  0.4531140000000  0.6137680000000 1.0
C      1  0.4767190000000  0.3995490000000  0.4822790000000 1.0
C      1  0.5487590000000  0.5719660000000  0.5208560000000 1.0
C      1  0.4588550000000  0.5293590000000  0.4681050000000 1.0
C      1  0.5363300000000  0.4743130000000  0.4753820000000 1.0
C      1  0.4765380000000  0.4740510000000  0.5122450000000 1.0
C      1  0.5286270000000  0.5162480000000  0.5074160000000 1.0
END
