TITL C-3201372-1405-2206 0.000404852282750565 125000 -527.105649159369 0 0 88 (C1) n - 1
REM
REM in /home/nfs/bkarasulu/CARBON/AIRSS/Generating-Clusters/LCBOP/Higher-Symm/SD-CG/FIRE-CG
REM
REM
REM
REM
REM
REM ./C.cell (b20cbc046b6831c77cfcea5457e17084)
REM AIRSS Version 0.9.1 bugfix July 2018 build 013d7b7c2542+ Fri, 06 Jul 2018 19:26:36 +0100
REM compiler GCC version 9.2.1 20190827 (Red Hat 9.2.1-1)
REM options -cpp -mtune=generic -march=x86-64 -g -O0 -fpre-include=/usr/include/finclude/math-vector-fortran.h
REM seed -1428829169 298256194 1600525405 820590888 410343127 -1962222606 2064511641 -321556448 481611045 291599992 1603561673 -1237949739 583480934 549286095 1370342236 1713473921 1646559501 -225947182 -1358856630 -36901415 -1944187128 1475586781 -856489126 1643145364 404342494 1701242244 1338608091 -2082182502 331891526 -1596359526 738452026 779240070 1084272310
REM
CELL 1.54180   50.00000   50.00000   50.00000   90.00000   90.00000   90.00000
LATT -1
SFAC C  
C      1  0.4917670000000  0.4015330000000  0.4940500000000 1.0
C      1  0.4987330000000  0.5361290000000  0.5847290000000 1.0
C      1  0.4955750000000  0.5572970000000  0.4202790000000 1.0
C      1  0.4921750000000  0.3973030000000  0.5203040000000 1.0
C      1  0.4995020000000  0.5352750000000  0.4058470000000 1.0
C      1  0.4993770000000  0.5609860000000  0.5753050000000 1.0
C      1  0.4506330000000  0.4421650000000  0.4892970000000 1.0
C      1  0.4721770000000  0.5019660000000  0.5411470000000 1.0
C      1  0.4486360000000  0.5422430000000  0.4489490000000 1.0
C      1  0.5445950000000  0.4011210000000  0.5421410000000 1.0
C      1  0.5507360000000  0.5080380000000  0.4035320000000 1.0
C      1  0.5475980000000  0.5857700000000  0.5548190000000 1.0
C      1  0.5304290000000  0.4252530000000  0.5783470000000 1.0
C      1  0.5255820000000  0.6060070000000  0.5202470000000 1.0
C      1  0.5314640000000  0.4666500000000  0.4052010000000 1.0
C      1  0.4532920000000  0.4442930000000  0.4436170000000 1.0
C      1  0.4505690000000  0.5763730000000  0.4791680000000 1.0
C      1  0.4561110000000  0.4760360000000  0.5768320000000 1.0
C      1  0.5284490000000  0.4296850000000  0.4342180000000 1.0
C      1  0.5336100000000  0.4692540000000  0.5945520000000 1.0
C      1  0.5227860000000  0.6023150000000  0.4733700000000 1.0
C      1  0.4526320000000  0.4295130000000  0.5694090000000 1.0
C      1  0.4559120000000  0.4785230000000  0.4113860000000 1.0
C      1  0.4523970000000  0.5825090000000  0.5257370000000 1.0
C      1  0.5541890000000  0.4426070000000  0.4379170000000 1.0
C      1  0.5581560000000  0.4625600000000  0.5806940000000 1.0
C      1  0.5498920000000  0.5961190000000  0.4818170000000 1.0
C      1  0.4346970000000  0.4432580000000  0.5512970000000 1.0
C      1  0.4377160000000  0.4867190000000  0.4323790000000 1.0
C      1  0.4370850000000  0.5585530000000  0.5200120000000 1.0
C      1  0.5737380000000  0.5100920000000  0.4826630000000 1.0
C      1  0.5616190000000  0.4847980000000  0.4887200000000 1.0
C      1  0.5622560000000  0.4793890000000  0.5171110000000 1.0
C      1  0.4945900000000  0.5232450000000  0.5014450000000 1.0
C      1  0.4952670000000  0.5113930000000  0.4752760000000 1.0
C      1  0.5134420000000  0.5445120000000  0.5048850000000 1.0
C      1  0.4981660000000  0.4302470000000  0.3942720000000 1.0
C      1  0.4992720000000  0.4396630000000  0.6156330000000 1.0
C      1  0.4882970000000  0.6304510000000  0.4965630000000 1.0
C      1  0.4731410000000  0.4442770000000  0.6124670000000 1.0
C      1  0.4718320000000  0.4329690000000  0.3980480000000 1.0
C      1  0.4629320000000  0.6219930000000  0.4966940000000 1.0
C      1  0.5421140000000  0.4944070000000  0.5314050000000 1.0
C      1  0.5553830000000  0.5323060000000  0.4821670000000 1.0
C      1  0.5338040000000  0.4813020000000  0.4783030000000 1.0
C      1  0.5414680000000  0.5387020000000  0.5071860000000 1.0
C      1  0.5152980000000  0.4859230000000  0.5231470000000 1.0
C      1  0.5207430000000  0.5038190000000  0.4643650000000 1.0
C      1  0.5532990000000  0.5979390000000  0.5103270000000 1.0
C      1  0.5576370000000  0.4654690000000  0.4208330000000 1.0
C      1  0.5576580000000  0.4360150000000  0.5697880000000 1.0
C      1  0.4351220000000  0.5533580000000  0.4918750000000 1.0
C      1  0.4376660000000  0.4717780000000  0.5530060000000 1.0
C      1  0.4357690000000  0.4672680000000  0.4533170000000 1.0
C      1  0.5111720000000  0.6147740000000  0.4971130000000 1.0
C      1  0.5185950000000  0.4414240000000  0.4093480000000 1.0
C      1  0.5203250000000  0.4434680000000  0.5979960000000 1.0
C      1  0.4543260000000  0.5958150000000  0.4998230000000 1.0
C      1  0.4594050000000  0.4501320000000  0.5890820000000 1.0
C      1  0.4594610000000  0.4499210000000  0.4161920000000 1.0
C      1  0.5252870000000  0.4945020000000  0.3988540000000 1.0
C      1  0.5207570000000  0.4065590000000  0.5581300000000 1.0
C      1  0.5208200000000  0.5938690000000  0.5464310000000 1.0
C      1  0.4758790000000  0.4961140000000  0.5696980000000 1.0
C      1  0.4651180000000  0.4308450000000  0.4666210000000 1.0
C      1  0.4627890000000  0.5672480000000  0.4543110000000 1.0
C      1  0.5185080000000  0.4925950000000  0.5936580000000 1.0
C      1  0.5066950000000  0.5904300000000  0.4539660000000 1.0
C      1  0.5109340000000  0.4184220000000  0.4527060000000 1.0
C      1  0.4758510000000  0.4938540000000  0.3994420000000 1.0
C      1  0.4718830000000  0.5863040000000  0.5452310000000 1.0
C      1  0.4713920000000  0.4102350000000  0.5619280000000 1.0
C      1  0.5657980000000  0.5877270000000  0.5340270000000 1.0
C      1  0.5687670000000  0.4915360000000  0.4165750000000 1.0
C      1  0.5652510000000  0.4184060000000  0.5485190000000 1.0
C      1  0.4334550000000  0.5342440000000  0.4706630000000 1.0
C      1  0.4466230000000  0.4909970000000  0.5338370000000 1.0
C      1  0.4341200000000  0.4629290000000  0.4815290000000 1.0
C      1  0.4972740000000  0.5817750000000  0.5564510000000 1.0
C      1  0.5003090000000  0.5077710000000  0.3998170000000 1.0
C      1  0.4946730000000  0.4033140000000  0.5477060000000 1.0
C      1  0.4879100000000  0.5728760000000  0.4424760000000 1.0
C      1  0.4971210000000  0.5081130000000  0.5840770000000 1.0
C      1  0.4889730000000  0.4160980000000  0.4701500000000 1.0
C      1  0.5169450000000  0.4699840000000  0.4989980000000 1.0
C      1  0.5376970000000  0.5265710000000  0.4600820000000 1.0
C      1  0.5471830000000  0.5226380000000  0.5303620000000 1.0
C      1  0.4933680000000  0.5045650000000  0.5232550000000 1.0
END
