TITL C-3201373-1215-1528 0.138222324154595 125000 -535.455667243445 0 0 90 (C1) n - 1
REM
REM in /home/nfs/bkarasulu/CARBON/AIRSS/Generating-Clusters/LCBOP/Higher-Symm/SD-CG/FIRE-CG
REM
REM
REM
REM
REM
REM ./C.cell (b20cbc046b6831c77cfcea5457e17084)
REM AIRSS Version 0.9.1 bugfix July 2018 build 013d7b7c2542+ Fri, 06 Jul 2018 19:26:36 +0100
REM compiler GCC version 9.2.1 20190827 (Red Hat 9.2.1-1)
REM options -cpp -mtune=generic -march=x86-64 -g -O0 -fpre-include=/usr/include/finclude/math-vector-fortran.h
REM seed 1116086780 -110985202 342648163 -113021088 592113405 1411806563 1520687635 487170794 20043784 1394424222 -250135513 -74636189 958907752 593969677 -173261694 -1028660852 913124499 1099074949 720298529 -1474076157 -1218066437 -1007282112 1669834485 1945220401 -1310777097 -1430610359 502906899 -1253859482 -1197634996 736610875 -206087868 224420147 1359086073
REM
CELL 1.54180   50.00000   50.00000   50.00000   90.00000   90.00000   90.00000
LATT -1
SFAC C  
C      1  0.5230060000000  0.5192030000000  0.6035480000000 1.0
C      1  0.5413940000000  0.4905900000000  0.5059660000000 1.0
C      1  0.4169820000000  0.5348060000000  0.4437680000000 1.0
C      1  0.4726210000000  0.5415040000000  0.5397040000000 1.0
C      1  0.4821130000000  0.4863580000000  0.5334030000000 1.0
C      1  0.5216680000000  0.2762890000000  0.4687160000000 1.0
C      1  0.4895350000000  0.4566760000000  0.6026400000000 1.0
C      1  0.5014700000000  0.4956370000000  0.4593790000000 1.0
C      1  0.5293300000000  0.5864530000000  0.5537620000000 1.0
C      1  0.3783990000000  0.5136050000000  0.5477970000000 1.0
C      1  0.6714510000000  0.4925180000000  0.5124220000000 1.0
C      1  0.4836890000000  0.4836310000000  0.5976840000000 1.0
C      1  0.4590880000000  0.5701850000000  0.5034460000000 1.0
C      1  0.4691520000000  0.5677310000000  0.5301500000000 1.0
C      1  0.4955210000000  0.4190050000000  0.5685300000000 1.0
C      1  0.4418330000000  0.6012610000000  0.5547680000000 1.0
C      1  0.5782150000000  0.4990000000000  0.4780450000000 1.0
C      1  0.6509400000000  0.5085920000000  0.5116990000000 1.0
C      1  0.4989790000000  0.3918950000000  0.5283920000000 1.0
C      1  0.5598130000000  0.5238930000000  0.5669670000000 1.0
C      1  0.4020200000000  0.5153880000000  0.4540300000000 1.0
C      1  0.6033680000000  0.5564180000000  0.4854350000000 1.0
C      1  0.3947570000000  0.4953190000000  0.4698250000000 1.0
C      1  0.5388370000000  0.5994220000000  0.4859330000000 1.0
C      1  0.4717330000000  0.4664200000000  0.4888950000000 1.0
C      1  0.5543660000000  0.4311610000000  0.3888860000000 1.0
C      1  0.5620540000000  0.6114140000000  0.4804960000000 1.0
C      1  0.4046350000000  0.5055850000000  0.5519930000000 1.0
C      1  0.4522760000000  0.4442780000000  0.4535150000000 1.0
C      1  0.5805530000000  0.5413940000000  0.5581020000000 1.0
C      1  0.4864140000000  0.4499620000000  0.4168950000000 1.0
C      1  0.5319310000000  0.4954120000000  0.5316860000000 1.0
C      1  0.3536520000000  0.4563100000000  0.5149750000000 1.0
C      1  0.5466650000000  0.4973580000000  0.4263760000000 1.0
C      1  0.5881110000000  0.6058210000000  0.4823260000000 1.0
C      1  0.4506330000000  0.4524020000000  0.3758780000000 1.0
C      1  0.6036000000000  0.5844590000000  0.4863000000000 1.0
C      1  0.4771320000000  0.4545870000000  0.4429650000000 1.0
C      1  0.5433600000000  0.5337950000000  0.4856380000000 1.0
C      1  0.5508840000000  0.5027930000000  0.5508400000000 1.0
C      1  0.5973460000000  0.5445120000000  0.4605880000000 1.0
C      1  0.6072930000000  0.5411160000000  0.5092610000000 1.0
C      1  0.5448390000000  0.5275370000000  0.5905520000000 1.0
C      1  0.4615910000000  0.4961930000000  0.5511620000000 1.0
C      1  0.3743940000000  0.4647050000000  0.5016140000000 1.0
C      1  0.5080840000000  0.3455090000000  0.5044520000000 1.0
C      1  0.5897020000000  0.5417400000000  0.5313390000000 1.0
C      1  0.5657870000000  0.5177960000000  0.4284970000000 1.0
C      1  0.4331970000000  0.4537160000000  0.3565410000000 1.0
C      1  0.5227330000000  0.5531170000000  0.4883980000000 1.0
C      1  0.4939300000000  0.4331560000000  0.5909710000000 1.0
C      1  0.3783410000000  0.5390900000000  0.5369910000000 1.0
C      1  0.6300330000000  0.5248410000000  0.5108830000000 1.0
C      1  0.4310800000000  0.5751280000000  0.5029050000000 1.0
C      1  0.4931120000000  0.5192570000000  0.4717110000000 1.0
C      1  0.4373540000000  0.5519130000000  0.4435480000000 1.0
C      1  0.5922790000000  0.5584270000000  0.5761490000000 1.0
C      1  0.4963080000000  0.5457010000000  0.4805480000000 1.0
C      1  0.4639890000000  0.4889980000000  0.5782530000000 1.0
C      1  0.4876050000000  0.4389830000000  0.5254150000000 1.0
C      1  0.5051630000000  0.5031130000000  0.5345160000000 1.0
C      1  0.4235180000000  0.5264890000000  0.5435780000000 1.0
C      1  0.5231690000000  0.4974410000000  0.4417630000000 1.0
C      1  0.5546720000000  0.5080080000000  0.4884700000000 1.0
C      1  0.4176070000000  0.5946010000000  0.5445710000000 1.0
C      1  0.4682920000000  0.4510680000000  0.3955820000000 1.0
C      1  0.4984960000000  0.5301460000000  0.5393510000000 1.0
C      1  0.5506210000000  0.4747510000000  0.4103220000000 1.0
C      1  0.5133260000000  0.4447150000000  0.4113560000000 1.0
C      1  0.4873360000000  0.4717740000000  0.4644330000000 1.0
C      1  0.4465650000000  0.4543610000000  0.4798920000000 1.0
C      1  0.4582990000000  0.5627340000000  0.4559940000000 1.0
C      1  0.5680940000000  0.4136020000000  0.3753780000000 1.0
C      1  0.4940800000000  0.4164380000000  0.5406940000000 1.0
C      1  0.5836350000000  0.5337520000000  0.4403460000000 1.0
C      1  0.4803410000000  0.4643230000000  0.5157700000000 1.0
C      1  0.3965810000000  0.4733400000000  0.4871010000000 1.0
C      1  0.5126360000000  0.3223120000000  0.4924760000000 1.0
C      1  0.5396640000000  0.4499180000000  0.4033030000000 1.0
C      1  0.5013450000000  0.5038170000000  0.6059900000000 1.0
C      1  0.4729470000000  0.5620200000000  0.4800820000000 1.0
C      1  0.5281070000000  0.5781260000000  0.5006540000000 1.0
C      1  0.4055840000000  0.5485670000000  0.5340730000000 1.0
C      1  0.5035320000000  0.3687060000000  0.5164280000000 1.0
C      1  0.4211200000000  0.4600080000000  0.4891700000000 1.0
C      1  0.4651700000000  0.5893330000000  0.5479990000000 1.0
C      1  0.5264950000000  0.5809530000000  0.5284380000000 1.0
C      1  0.5171890000000  0.2991090000000  0.4804980000000 1.0
C      1  0.4138620000000  0.5739340000000  0.5254590000000 1.0
C      1  0.4513790000000  0.5225760000000  0.5447620000000 1.0
END
