TITL C-3201376-6384-2178 2.17180832743788 125000 -899.604481707196 0 0 147 (C1) n - 1
REM
REM in /home/nfs/bkarasulu/CARBON/AIRSS/Generating-Clusters/LCBOP/Higher-Symm/SD-CG/FIRE-CG
REM
REM
REM
REM
REM
REM ./C.cell (b20cbc046b6831c77cfcea5457e17084)
REM AIRSS Version 0.9.1 bugfix July 2018 build 013d7b7c2542+ Fri, 06 Jul 2018 19:26:36 +0100
REM compiler GCC version 9.2.1 20190827 (Red Hat 9.2.1-1)
REM options -cpp -mtune=generic -march=x86-64 -g -O0 -fpre-include=/usr/include/finclude/math-vector-fortran.h
REM seed 1886133818 1288337083 -33039261 329442975 462011719 359785287 121692154 1015841781 719538721 1454642393 1855051339 -270163242 1356713041 -226844754 -357245433 -1369827246 1016086358 140645892 1272212902 133664843 -1058272407 995940081 810138233 -643597099 -2026192118 426437273 205509903 322567173 -1596165908 -101875819 -1275677532 1871031342 1088018256
REM
CELL 1.54180   50.00000   50.00000   50.00000   90.00000   90.00000   90.00000
LATT -1
SFAC C  
C      1  0.5499200000000  0.5152030000000  0.3585450000000 1.0
C      1  0.4663640000000  0.5069110000000  0.5904790000000 1.0
C      1  0.4206110000000  0.4082610000000  0.5423590000000 1.0
C      1  0.5705350000000  0.4381680000000  0.4598880000000 1.0
C      1  0.5682120000000  0.5091160000000  0.5743070000000 1.0
C      1  0.4349720000000  0.5192690000000  0.4480500000000 1.0
C      1  0.4718670000000  0.4628270000000  0.6069740000000 1.0
C      1  0.5163250000000  0.4891970000000  0.3829250000000 1.0
C      1  0.5001580000000  0.4727070000000  0.3987690000000 1.0
C      1  0.4950290000000  0.4520170000000  0.5944440000000 1.0
C      1  0.6110270000000  0.4601770000000  0.5144800000000 1.0
C      1  0.4017530000000  0.4524220000000  0.4960210000000 1.0
C      1  0.4824910000000  0.4635210000000  0.4797150000000 1.0
C      1  0.5337500000000  0.4731590000000  0.5337940000000 1.0
C      1  0.4931400000000  0.5777910000000  0.4849000000000 1.0
C      1  0.5114480000000  0.5626350000000  0.5798860000000 1.0
C      1  0.4334090000000  0.5430780000000  0.4605900000000 1.0
C      1  0.5681670000000  0.5332190000000  0.5624190000000 1.0
C      1  0.4433230000000  0.6125110000000  0.5579080000000 1.0
C      1  0.5516560000000  0.6140350000000  0.4667260000000 1.0
C      1  0.5179480000000  0.5534790000000  0.5536690000000 1.0
C      1  0.4827020000000  0.5562080000000  0.5004150000000 1.0
C      1  0.5408060000000  0.5026430000000  0.3815750000000 1.0
C      1  0.4536340000000  0.4828700000000  0.5993780000000 1.0
C      1  0.5063380000000  0.4507010000000  0.4708830000000 1.0
C      1  0.5088100000000  0.4786310000000  0.5445690000000 1.0
C      1  0.4681190000000  0.5724310000000  0.5415480000000 1.0
C      1  0.5102140000000  0.5938310000000  0.5286060000000 1.0
C      1  0.5353870000000  0.4069730000000  0.5678350000000 1.0
C      1  0.4678800000000  0.4231510000000  0.4255530000000 1.0
C      1  0.4894280000000  0.4368430000000  0.5684760000000 1.0
C      1  0.5113800000000  0.4488190000000  0.4103770000000 1.0
C      1  0.5846640000000  0.5836510000000  0.2582390000000 1.0
C      1  0.4156890000000  0.6011360000000  0.6393040000000 1.0
C      1  0.4717660000000  0.4778960000000  0.3996220000000 1.0
C      1  0.5220110000000  0.4567270000000  0.6039220000000 1.0
C      1  0.4889090000000  0.4578900000000  0.5460900000000 1.0
C      1  0.5318410000000  0.4657190000000  0.4685090000000 1.0
C      1  0.5495870000000  0.4390000000000  0.5041880000000 1.0
C      1  0.4472520000000  0.4560020000000  0.5128320000000 1.0
C      1  0.5014670000000  0.5847010000000  0.5922840000000 1.0
C      1  0.4949130000000  0.5811510000000  0.4571740000000 1.0
C      1  0.3816970000000  0.4923510000000  0.4790790000000 1.0
C      1  0.6185410000000  0.4941120000000  0.5490710000000 1.0
C      1  0.4580700000000  0.5598730000000  0.5161150000000 1.0
C      1  0.5300990000000  0.5742790000000  0.5374250000000 1.0
C      1  0.4151840000000  0.5461380000000  0.5350810000000 1.0
C      1  0.5751400000000  0.5578230000000  0.4850900000000 1.0
C      1  0.5168760000000  0.4018020000000  0.4525240000000 1.0
C      1  0.4760630000000  0.3888930000000  0.5060280000000 1.0
C      1  0.4583050000000  0.5626370000000  0.5662320000000 1.0
C      1  0.5071840000000  0.5967690000000  0.5007450000000 1.0
C      1  0.5948560000000  0.4319100000000  0.4733370000000 1.0
C      1  0.4016570000000  0.4113200000000  0.5235300000000 1.0
C      1  0.4568230000000  0.4844880000000  0.4227100000000 1.0
C      1  0.5431440000000  0.4700860000000  0.5900250000000 1.0
C      1  0.4921990000000  0.4082140000000  0.4932930000000 1.0
C      1  0.5059220000000  0.4207820000000  0.4716680000000 1.0
C      1  0.5188540000000  0.5119110000000  0.4649670000000 1.0
C      1  0.4744450000000  0.5048270000000  0.5634080000000 1.0
C      1  0.4426100000000  0.5365120000000  0.5288240000000 1.0
C      1  0.5590090000000  0.5407980000000  0.4681670000000 1.0
C      1  0.4696140000000  0.3649060000000  0.4929970000000 1.0
C      1  0.5021380000000  0.3798560000000  0.4431260000000 1.0
C      1  0.6131310000000  0.5189070000000  0.5366770000000 1.0
C      1  0.3863700000000  0.5196490000000  0.4726950000000 1.0
C      1  0.5599180000000  0.4170470000000  0.5633990000000 1.0
C      1  0.4485340000000  0.4294580000000  0.4428780000000 1.0
C      1  0.3931750000000  0.4264920000000  0.5027860000000 1.0
C      1  0.6034900000000  0.4375990000000  0.4987230000000 1.0
C      1  0.5718740000000  0.5792120000000  0.2827230000000 1.0
C      1  0.4393660000000  0.5896630000000  0.6297980000000 1.0
C      1  0.5073590000000  0.5309900000000  0.5383580000000 1.0
C      1  0.5011180000000  0.5362340000000  0.5099610000000 1.0
C      1  0.5525460000000  0.4494690000000  0.4786420000000 1.0
C      1  0.4639900000000  0.4653640000000  0.5341870000000 1.0
C      1  0.4624320000000  0.5055610000000  0.4974370000000 1.0
C      1  0.5575190000000  0.5053270000000  0.5025000000000 1.0
C      1  0.5280340000000  0.4469980000000  0.6290190000000 1.0
C      1  0.4579910000000  0.4759440000000  0.3758430000000 1.0
C      1  0.4575530000000  0.4506210000000  0.4861420000000 1.0
C      1  0.5467040000000  0.4482970000000  0.5300270000000 1.0
C      1  0.5339720000000  0.6100960000000  0.4469900000000 1.0
C      1  0.4719880000000  0.6116070000000  0.5627380000000 1.0
C      1  0.5656330000000  0.4408340000000  0.5498260000000 1.0
C      1  0.4409360000000  0.4476810000000  0.4628080000000 1.0
C      1  0.4511270000000  0.5558520000000  0.5924370000000 1.0
C      1  0.5672820000000  0.5391280000000  0.3145840000000 1.0
C      1  0.5648120000000  0.5783360000000  0.5015460000000 1.0
C      1  0.4168190000000  0.5757490000000  0.5281230000000 1.0
C      1  0.6036610000000  0.4706320000000  0.5410570000000 1.0
C      1  0.3996080000000  0.4705890000000  0.4732710000000 1.0
C      1  0.4329740000000  0.5727130000000  0.5028070000000 1.0
C      1  0.5569170000000  0.5694460000000  0.5278330000000 1.0
C      1  0.4043320000000  0.5732560000000  0.6053810000000 1.0
C      1  0.5928710000000  0.5406340000000  0.2700210000000 1.0
C      1  0.3943520000000  0.5911470000000  0.6244360000000 1.0
C      1  0.5974590000000  0.5601440000000  0.2504990000000 1.0
C      1  0.4720740000000  0.3521840000000  0.4696390000000 1.0
C      1  0.4859410000000  0.3592080000000  0.4478290000000 1.0
C      1  0.5477450000000  0.4948890000000  0.5242220000000 1.0
C      1  0.4792280000000  0.4910670000000  0.4826980000000 1.0
C      1  0.4192280000000  0.4630800000000  0.5159490000000 1.0
C      1  0.6248980000000  0.4789380000000  0.4981790000000 1.0
C      1  0.5425710000000  0.4941980000000  0.4587340000000 1.0
C      1  0.4541600000000  0.4922230000000  0.5449560000000 1.0
C      1  0.5555900000000  0.4289840000000  0.4366940000000 1.0
C      1  0.4480570000000  0.4076480000000  0.5487350000000 1.0
C      1  0.4644000000000  0.3937070000000  0.5307560000000 1.0
C      1  0.5429340000000  0.4043480000000  0.4423710000000 1.0
C      1  0.5102630000000  0.4157170000000  0.5654230000000 1.0
C      1  0.4918290000000  0.4289030000000  0.4151130000000 1.0
C      1  0.5957700000000  0.5400690000000  0.4955170000000 1.0
C      1  0.3967940000000  0.5301850000000  0.5200490000000 1.0
C      1  0.3718060000000  0.4914780000000  0.5063130000000 1.0
C      1  0.6378020000000  0.4921080000000  0.5684270000000 1.0
C      1  0.5763140000000  0.5515740000000  0.2917130000000 1.0
C      1  0.4336050000000  0.5712670000000  0.6075910000000 1.0
C      1  0.4092100000000  0.4825400000000  0.5354340000000 1.0
C      1  0.6169790000000  0.4971720000000  0.4803140000000 1.0
C      1  0.5968240000000  0.5381910000000  0.5241040000000 1.0
C      1  0.3976910000000  0.5380410000000  0.4915400000000 1.0
C      1  0.5660050000000  0.4809030000000  0.5761230000000 1.0
C      1  0.4368620000000  0.4916620000000  0.4418270000000 1.0
C      1  0.4620860000000  0.4233740000000  0.5676350000000 1.0
C      1  0.5388190000000  0.4446040000000  0.4187440000000 1.0
C      1  0.5650830000000  0.5109810000000  0.4740800000000 1.0
C      1  0.4514070000000  0.5111050000000  0.5223700000000 1.0
C      1  0.5960140000000  0.5151480000000  0.4790640000000 1.0
C      1  0.3901420000000  0.5022080000000  0.5256930000000 1.0
C      1  0.5129940000000  0.5227330000000  0.4887080000000 1.0
C      1  0.4999750000000  0.5057500000000  0.5507330000000 1.0
C      1  0.4202790000000  0.5547620000000  0.4829210000000 1.0
C      1  0.5743280000000  0.5488140000000  0.5394960000000 1.0
C      1  0.5812400000000  0.4631720000000  0.5581510000000 1.0
C      1  0.4236380000000  0.4704890000000  0.4569550000000 1.0
C      1  0.4854730000000  0.6063710000000  0.5874410000000 1.0
C      1  0.5117980000000  0.5957570000000  0.4421610000000 1.0
C      1  0.5586010000000  0.5271660000000  0.3365640000000 1.0
C      1  0.4613930000000  0.5316540000000  0.6020090000000 1.0
C      1  0.5610550000000  0.6032550000000  0.4893720000000 1.0
C      1  0.4236790000000  0.5979740000000  0.5451620000000 1.0
C      1  0.5525790000000  0.4946980000000  0.4307950000000 1.0
C      1  0.4271780000000  0.4859120000000  0.5574120000000 1.0
C      1  0.4293550000000  0.4784900000000  0.5848000000000 1.0
C      1  0.5552800000000  0.5022900000000  0.4054970000000 1.0
C      1  0.4850780000000  0.5955880000000  0.5423080000000 1.0
END
