TITL C-3201372-1405-673 12872.3159809495 125000 -938.0687107684 0 0 153 (C1) n - 1
REM
REM in /home/nfs/bkarasulu/CARBON/AIRSS/Generating-Clusters/LCBOP/Higher-Symm/SD-CG/FIRE-CG
REM
REM
REM
REM
REM
REM ./C.cell (b20cbc046b6831c77cfcea5457e17084)
REM AIRSS Version 0.9.1 bugfix July 2018 build 013d7b7c2542+ Fri, 06 Jul 2018 19:26:36 +0100
REM compiler GCC version 9.2.1 20190827 (Red Hat 9.2.1-1)
REM options -cpp -mtune=generic -march=x86-64 -g -O0 -fpre-include=/usr/include/finclude/math-vector-fortran.h
REM seed -1537459770 455845945 -448838654 137568923 -1905313406 443412660 1389183397 1041276502 -1623655740 1488854107 -511660293 1271685858 -1635792837 153571452 1283919807 81583323 243669305 -1493585359 -418501110 -1359173569 1880689818 633549137 146907154 1688275647 -133259297 1645019896 167323141 814902205 -1748752352 -1668520906 257054020 -60473019 1809604878
REM
CELL 1.54180   50.00000   50.00000   50.00000   90.00000   90.00000   90.00000
LATT -1
SFAC C  
C      1  0.4986890000000  0.4139090000000  0.4531890000000 1.0
C      1  0.5788550000000  0.4781110000000  0.4516130000000 1.0
C      1  0.5459650000000  0.5627690000000  0.4484060000000 1.0
C      1  0.4495470000000  0.5650780000000  0.4517570000000 1.0
C      1  0.4156010000000  0.4732460000000  0.4567600000000 1.0
C      1  0.5938430000000  0.5386290000000  0.4599170000000 1.0
C      1  0.4903500000000  0.6004860000000  0.4609610000000 1.0
C      1  0.3973960000000  0.5224960000000  0.4677300000000 1.0
C      1  0.4512090000000  0.4255700000000  0.4634440000000 1.0
C      1  0.5531230000000  0.4342280000000  0.4543510000000 1.0
C      1  0.5125950000000  0.4800620000000  0.6094340000000 1.0
C      1  0.5219880000000  0.5073980000000  0.6099950000000 1.0
C      1  0.4987740000000  0.5246450000000  0.6103260000000 1.0
C      1  0.4751700000000  0.5080420000000  0.6096580000000 1.0
C      1  0.4836050000000  0.4804510000000  0.6090400000000 1.0
C      1  0.4888370000000  0.5520200000000  0.4246070000000 1.0
C      1  0.4397510000000  0.5071860000000  0.4338410000000 1.0
C      1  0.4656640000000  0.4464790000000  0.4499800000000 1.0
C      1  0.5367010000000  0.4537480000000  0.4404410000000 1.0
C      1  0.5445540000000  0.5189730000000  0.4169550000000 1.0
C      1  0.4016460000000  0.5005980000000  0.5458500000000 1.0
C      1  0.4664540000000  0.4072850000000  0.5454470000000 1.0
C      1  0.5786510000000  0.4386620000000  0.5435720000000 1.0
C      1  0.5817990000000  0.5574690000000  0.5446150000000 1.0
C      1  0.4692350000000  0.5935420000000  0.5447590000000 1.0
C      1  0.5808050000000  0.5091480000000  0.5665860000000 1.0
C      1  0.5152770000000  0.5800550000000  0.5660570000000 1.0
C      1  0.4254970000000  0.5410960000000  0.5662440000000 1.0
C      1  0.4371660000000  0.4428540000000  0.5641350000000 1.0
C      1  0.5325760000000  0.4255370000000  0.5656070000000 1.0
C      1  0.5217750000000  0.5217870000000  0.4707330000000 1.0
C      1  0.4859000000000  0.5288100000000  0.4705730000000 1.0
C      1  0.4708410000000  0.4972170000000  0.4781400000000 1.0
C      1  0.4968930000000  0.4700020000000  0.4764150000000 1.0
C      1  0.5272740000000  0.4879530000000  0.4732200000000 1.0
C      1  0.4239580000000  0.5821660000000  0.5295450000000 1.0
C      1  0.3963380000000  0.4525780000000  0.5310440000000 1.0
C      1  0.5089420000000  0.3932890000000  0.5287510000000 1.0
C      1  0.6057350000000  0.4763300000000  0.5298140000000 1.0
C      1  0.5530260000000  0.5926770000000  0.5280870000000 1.0
C      1  0.5044690000000  0.5299590000000  0.4219750000000 1.0
C      1  0.4643290000000  0.5166650000000  0.4316210000000 1.0
C      1  0.4635420000000  0.4712870000000  0.4402800000000 1.0
C      1  0.5099600000000  0.4594410000000  0.4342460000000 1.0
C      1  0.5325320000000  0.4969970000000  0.4240420000000 1.0
C      1  0.5473090000000  0.5061070000000  0.5157900000000 1.0
C      1  0.5103770000000  0.5412440000000  0.5158860000000 1.0
C      1  0.4638330000000  0.5173540000000  0.5293530000000 1.0
C      1  0.4733800000000  0.4728720000000  0.5197170000000 1.0
C      1  0.5218520000000  0.4600170000000  0.5172040000000 1.0
C      1  0.4948720000000  0.4457780000000  0.4559150000000 1.0
C      1  0.5462840000000  0.4817380000000  0.4478140000000 1.0
C      1  0.5298450000000  0.5374630000000  0.4485690000000 1.0
C      1  0.4711730000000  0.5413030000000  0.4474720000000 1.0
C      1  0.4451590000000  0.4871490000000  0.4568680000000 1.0
C      1  0.4906040000000  0.4527200000000  0.3920320000000 1.0
C      1  0.6184560000000  0.4989800000000  0.3824030000000 1.0
C      1  0.5610580000000  0.5419500000000  0.3774090000000 1.0
C      1  0.4768380000000  0.5774120000000  0.3832470000000 1.0
C      1  0.4524010000000  0.4841350000000  0.3937480000000 1.0
C      1  0.5977660000000  0.5188170000000  0.4791710000000 1.0
C      1  0.5104000000000  0.5940590000000  0.4791230000000 1.0
C      1  0.4143540000000  0.5386280000000  0.4828080000000 1.0
C      1  0.4315870000000  0.4319150000000  0.4835360000000 1.0
C      1  0.5436360000000  0.4175600000000  0.4758670000000 1.0
C      1  0.5751700000000  0.5568750000000  0.4543290000000 1.0
C      1  0.4658110000000  0.5902730000000  0.4585060000000 1.0
C      1  0.3963210000000  0.4965850000000  0.4613380000000 1.0
C      1  0.4700100000000  0.4037360000000  0.4603130000000 1.0
C      1  0.5792800000000  0.4470090000000  0.4545800000000 1.0
C      1  0.4136230000000  0.4697290000000  0.4257190000000 1.0
C      1  0.5025430000000  0.4118580000000  0.4227910000000 1.0
C      1  0.5919950000000  0.4862390000000  0.4259720000000 1.0
C      1  0.5478280000000  0.5665040000000  0.4179490000000 1.0
C      1  0.4453450000000  0.5707420000000  0.4216560000000 1.0
C      1  0.5759360000000  0.5857190000000  0.5440290000000 1.0
C      1  0.4414170000000  0.6003930000000  0.5442230000000 1.0
C      1  0.3886310000000  0.4748850000000  0.5478410000000 1.0
C      1  0.4858640000000  0.3867150000000  0.5440600000000 1.0
C      1  0.6041730000000  0.4519930000000  0.5448010000000 1.0
C      1  0.5425020000000  0.4782920000000  0.5008420000000 1.0
C      1  0.5374220000000  0.5319420000000  0.4995270000000 1.0
C      1  0.4845350000000  0.5463650000000  0.4947210000000 1.0
C      1  0.4732440000000  0.4997850000000  0.5062830000000 1.0
C      1  0.4937610000000  0.4561710000000  0.5040550000000 1.0
C      1  0.5965770000000  0.4755960000000  0.5005060000000 1.0
C      1  0.5522840000000  0.5829750000000  0.4988020000000 1.0
C      1  0.4337650000000  0.5762630000000  0.5009210000000 1.0
C      1  0.4010690000000  0.4617300000000  0.5030920000000 1.0
C      1  0.5037410000000  0.4035700000000  0.5008410000000 1.0
C      1  0.5906350000000  0.4975600000000  0.5428180000000 1.0
C      1  0.5289780000000  0.5834040000000  0.5416440000000 1.0
C      1  0.4156950000000  0.5609450000000  0.5478890000000 1.0
C      1  0.4202990000000  0.4372370000000  0.5399170000000 1.0
C      1  0.5250850000000  0.4138620000000  0.5411850000000 1.0
C      1  0.4972280000000  0.4279970000000  0.4013650000000 1.0
C      1  0.6054750000000  0.4924430000000  0.4040420000000 1.0
C      1  0.5515620000000  0.5418730000000  0.4029540000000 1.0
C      1  0.4709090000000  0.5674530000000  0.4078270000000 1.0
C      1  0.4307750000000  0.4892540000000  0.4119500000000 1.0
C      1  0.5529300000000  0.4661930000000  0.5820760000000 1.0
C      1  0.5478330000000  0.5411270000000  0.5826300000000 1.0
C      1  0.4747310000000  0.5592770000000  0.5825960000000 1.0
C      1  0.4350700000000  0.4958800000000  0.5820420000000 1.0
C      1  0.4829080000000  0.4382180000000  0.5825960000000 1.0
C      1  0.5730230000000  0.4370570000000  0.5145170000000 1.0
C      1  0.5829560000000  0.5505410000000  0.5161280000000 1.0
C      1  0.4756060000000  0.5859620000000  0.5178190000000 1.0
C      1  0.4129710000000  0.5051230000000  0.5199420000000 1.0
C      1  0.4625240000000  0.4196470000000  0.5201340000000 1.0
C      1  0.4856700000000  0.4264380000000  0.5050480000000 1.0
C      1  0.5705490000000  0.4630750000000  0.5024040000000 1.0
C      1  0.5583100000000  0.5548240000000  0.5018380000000 1.0
C      1  0.4606470000000  0.5616360000000  0.5080410000000 1.0
C      1  0.4226850000000  0.4813960000000  0.5087410000000 1.0
C      1  0.4991510000000  0.5486920000000  0.5960230000000 1.0
C      1  0.4528440000000  0.5158360000000  0.5947130000000 1.0
C      1  0.4692120000000  0.4616540000000  0.5940040000000 1.0
C      1  0.5266900000000  0.4605930000000  0.5950640000000 1.0
C      1  0.5450040000000  0.5144890000000  0.5956180000000 1.0
C      1  0.4849680000000  0.5812970000000  0.5656070000000 1.0
C      1  0.4164640000000  0.5126000000000  0.5666380000000 1.0
C      1  0.4617090000000  0.4252070000000  0.5668670000000 1.0
C      1  0.5580700000000  0.4421740000000  0.5644490000000 1.0
C      1  0.5724800000000  0.5386200000000  0.5652050000000 1.0
C      1  0.5164840000000  0.4770600000000  0.5419500000000 1.0
C      1  0.5299560000000  0.5030070000000  0.5411200000000 1.0
C      1  0.5098790000000  0.5243430000000  0.5460610000000 1.0
C      1  0.4836630000000  0.5110910000000  0.5496750000000 1.0
C      1  0.4878350000000  0.4813300000000  0.5458710000000 1.0
C      1  0.5157590000000  0.5696730000000  0.5210970000000 1.0
C      1  0.4473570000000  0.5375490000000  0.5203160000000 1.0
C      1  0.4458810000000  0.4652330000000  0.5142730000000 1.0
C      1  0.5304220000000  0.4316880000000  0.5200110000000 1.0
C      1  0.5765190000000  0.5079530000000  0.5208820000000 1.0
C      1  0.4224630000000  0.5289540000000  0.5087960000000 1.0
C      1  0.4387890000000  0.4355100000000  0.5142640000000 1.0
C      1  0.5516620000000  0.4229760000000  0.5027940000000 1.0
C      1  0.5923370000000  0.5262830000000  0.5059060000000 1.0
C      1  0.5007180000000  0.5880070000000  0.5052940000000 1.0
C      1  0.4105120000000  0.4512660000000  0.4774650000000 1.0
C      1  0.5174340000000  0.4055000000000  0.4751870000000 1.0
C      1  0.5951220000000  0.4906520000000  0.4753290000000 1.0
C      1  0.5369750000000  0.5856900000000  0.4741710000000 1.0
C      1  0.4279440000000  0.5628120000000  0.4747610000000 1.0
C      1  0.5622900000000  0.4938630000000  0.5834610000000 1.0
C      1  0.5243010000000  0.5585050000000  0.5838320000000 1.0
C      1  0.4507320000000  0.5428110000000  0.5822580000000 1.0
C      1  0.4432200000000  0.4677950000000  0.5805700000000 1.0
C      1  0.5122620000000  0.4379510000000  0.5828730000000 1.0
C      1  0.4932180000000  0.4922940000000  0.4239630000000 1.0
C      1  0.5016750000000  0.5081690000000  0.5067100000000 1.0
C      1  0.4808580000000  0.4793480000000  0.3983590000000 1.0
END
