TITL C-3201378-2706-1536 96404.9804998087 125000 -952.394565135545 0 0 153 (C1) n - 1
REM
REM in /home/nfs/bkarasulu/CARBON/AIRSS/Generating-Clusters/LCBOP/Higher-Symm/SD-CG/FIRE-CG
REM
REM
REM
REM
REM
REM ./C.cell (b20cbc046b6831c77cfcea5457e17084)
REM AIRSS Version 0.9.1 bugfix July 2018 build 013d7b7c2542+ Fri, 06 Jul 2018 19:26:36 +0100
REM compiler GCC version 9.2.1 20190827 (Red Hat 9.2.1-1)
REM options -cpp -mtune=generic -march=x86-64 -g -O0 -fpre-include=/usr/include/finclude/math-vector-fortran.h
REM seed 356648493 -329289508 444608452 -1654361931 29548442 1682963677 245143665 1538255421 2061478643 573729037 -1381400072 1025909620 -547411889 1133937790 1625871998 -11403734 243301608 -1109049107 -26131995 387495234 -672498554 -1051407488 -502126838 1637704607 -1509974648 -1810249017 239204198 960309472 -81617445 109479092 -1796173848 -762515026 -1903236977
REM
CELL 1.54180   50.00000   50.00000   50.00000   90.00000   90.00000   90.00000
LATT -1
SFAC C  
C      1  0.3963180000000  0.4769420000000  0.4771450000000 1.0
C      1  0.3997180000000  0.5163980000000  0.5443360000000 1.0
C      1  0.4461850000000  0.4806850000000  0.5877090000000 1.0
C      1  0.5104980000000  0.5242260000000  0.6020020000000 1.0
C      1  0.5703090000000  0.4860590000000  0.5786070000000 1.0
C      1  0.6046390000000  0.5185830000000  0.5232380000000 1.0
C      1  0.5949610000000  0.4773900000000  0.4572280000000 1.0
C      1  0.5536620000000  0.5177680000000  0.4151700000000 1.0
C      1  0.4931650000000  0.4836590000000  0.3929750000000 1.0
C      1  0.4326470000000  0.5225900000000  0.4208720000000 1.0
C      1  0.4253730000000  0.5168300000000  0.5576520000000 1.0
C      1  0.4753410000000  0.4863010000000  0.5879810000000 1.0
C      1  0.5342020000000  0.5203180000000  0.5852020000000 1.0
C      1  0.5771890000000  0.4876600000000  0.5505880000000 1.0
C      1  0.5963490000000  0.5126580000000  0.4949650000000 1.0
C      1  0.5693990000000  0.4819740000000  0.4445250000000 1.0
C      1  0.5254710000000  0.5147380000000  0.4146440000000 1.0
C      1  0.4678200000000  0.4871060000000  0.4075160000000 1.0
C      1  0.4213230000000  0.5157530000000  0.4481580000000 1.0
C      1  0.4024050000000  0.4829750000000  0.5053930000000 1.0
C      1  0.5283400000000  0.4612790000000  0.5786220000000 1.0
C      1  0.5818490000000  0.5497990000000  0.5602380000000 1.0
C      1  0.5873850000000  0.4583100000000  0.4991840000000 1.0
C      1  0.5833280000000  0.5425580000000  0.4472950000000 1.0
C      1  0.5349570000000  0.4516310000000  0.4044810000000 1.0
C      1  0.4748890000000  0.5526310000000  0.4088930000000 1.0
C      1  0.4356120000000  0.4653710000000  0.4524420000000 1.0
C      1  0.4077080000000  0.5364800000000  0.5016370000000 1.0
C      1  0.4179490000000  0.4491550000000  0.5561700000000 1.0
C      1  0.4735820000000  0.5404110000000  0.5772890000000 1.0
C      1  0.6072540000000  0.4710000000000  0.5175380000000 1.0
C      1  0.6049850000000  0.5246730000000  0.4494280000000 1.0
C      1  0.5554500000000  0.4706390000000  0.4006920000000 1.0
C      1  0.4880820000000  0.5339110000000  0.3918200000000 1.0
C      1  0.4262630000000  0.4754240000000  0.4254000000000 1.0
C      1  0.3888220000000  0.5238500000000  0.4823960000000 1.0
C      1  0.3969590000000  0.4673080000000  0.5505490000000 1.0
C      1  0.4521840000000  0.5283160000000  0.5944060000000 1.0
C      1  0.5169620000000  0.4745490000000  0.6031800000000 1.0
C      1  0.5799070000000  0.5332810000000  0.5828240000000 1.0
C      1  0.4476500000000  0.5165500000000  0.5360120000000 1.0
C      1  0.4808000000000  0.4896840000000  0.5584340000000 1.0
C      1  0.5209260000000  0.5176720000000  0.5576760000000 1.0
C      1  0.5502820000000  0.4873290000000  0.5361050000000 1.0
C      1  0.5684150000000  0.5064860000000  0.4987100000000 1.0
C      1  0.5468520000000  0.4798390000000  0.4649450000000 1.0
C      1  0.5164190000000  0.5100770000000  0.4426490000000 1.0
C      1  0.4774800000000  0.4882230000000  0.4348670000000 1.0
C      1  0.4475240000000  0.5144020000000  0.4642380000000 1.0
C      1  0.4321470000000  0.4877510000000  0.5022680000000 1.0
C      1  0.3983620000000  0.5043390000000  0.4633910000000 1.0
C      1  0.3938580000000  0.4894660000000  0.5325960000000 1.0
C      1  0.4348540000000  0.5080750000000  0.5835640000000 1.0
C      1  0.4978160000000  0.4963170000000  0.6039730000000 1.0
C      1  0.5616060000000  0.5122160000000  0.5879910000000 1.0
C      1  0.6010380000000  0.4922560000000  0.5356900000000 1.0
C      1  0.6053900000000  0.5032850000000  0.4684780000000 1.0
C      1  0.5648800000000  0.4911010000000  0.4180100000000 1.0
C      1  0.5054160000000  0.5109880000000  0.3945590000000 1.0
C      1  0.4400580000000  0.4956430000000  0.4098990000000 1.0
C      1  0.5973690000000  0.5437720000000  0.5355600000000 1.0
C      1  0.5939310000000  0.4506550000000  0.4700090000000 1.0
C      1  0.5613490000000  0.5418640000000  0.4289080000000 1.0
C      1  0.5064000000000  0.4573590000000  0.3983570000000 1.0
C      1  0.4484860000000  0.5475790000000  0.4212020000000 1.0
C      1  0.4124740000000  0.4535940000000  0.4690700000000 1.0
C      1  0.3985200000000  0.5422690000000  0.5305890000000 1.0
C      1  0.4395980000000  0.4548230000000  0.5754740000000 1.0
C      1  0.4989520000000  0.5504580000000  0.5912610000000 1.0
C      1  0.5582260000000  0.4594180000000  0.5803830000000 1.0
C      1  0.4260680000000  0.4329310000000  0.4846180000000 1.0
C      1  0.4135430000000  0.5675450000000  0.5365550000000 1.0
C      1  0.4617230000000  0.4358750000000  0.5676670000000 1.0
C      1  0.5096360000000  0.5692110000000  0.5703780000000 1.0
C      1  0.5705430000000  0.4383440000000  0.5656370000000 1.0
C      1  0.5913160000000  0.5665830000000  0.5183310000000 1.0
C      1  0.5738730000000  0.4279760000000  0.4657650000000 1.0
C      1  0.5404320000000  0.5604190000000  0.4396710000000 1.0
C      1  0.4921650000000  0.4354310000000  0.4130480000000 1.0
C      1  0.4477240000000  0.5649860000000  0.4458270000000 1.0
C      1  0.5634750000000  0.4179410000000  0.4921130000000 1.0
C      1  0.5441130000000  0.5632220000000  0.4709910000000 1.0
C      1  0.5103150000000  0.4194970000000  0.4301200000000 1.0
C      1  0.4773950000000  0.5748920000000  0.4538290000000 1.0
C      1  0.4609270000000  0.4309310000000  0.4739840000000 1.0
C      1  0.4196860000000  0.5817950000000  0.5117580000000 1.0
C      1  0.4578530000000  0.4269350000000  0.5374300000000 1.0
C      1  0.4849180000000  0.5736240000000  0.5438660000000 1.0
C      1  0.5127270000000  0.4278220000000  0.5410290000000 1.0
C      1  0.5697090000000  0.5826940000000  0.5293310000000 1.0
C      1  0.5204760000000  0.4555760000000  0.5059260000000 1.0
C      1  0.5206020000000  0.5476000000000  0.4866560000000 1.0
C      1  0.5082140000000  0.4511100000000  0.4807320000000 1.0
C      1  0.4932630000000  0.5524360000000  0.4705480000000 1.0
C      1  0.4781700000000  0.4523550000000  0.4876140000000 1.0
C      1  0.4738280000000  0.5497510000000  0.4935230000000 1.0
C      1  0.4715740000000  0.4486890000000  0.5183640000000 1.0
C      1  0.4869060000000  0.5517480000000  0.5210140000000 1.0
C      1  0.5004180000000  0.4527560000000  0.5280390000000 1.0
C      1  0.5174290000000  0.5513040000000  0.5167620000000 1.0
C      1  0.5767240000000  0.4297790000000  0.5408290000000 1.0
C      1  0.5928390000000  0.5650750000000  0.4906630000000 1.0
C      1  0.5590920000000  0.4248530000000  0.4416550000000 1.0
C      1  0.5190200000000  0.5720040000000  0.4258290000000 1.0
C      1  0.4657690000000  0.4360720000000  0.4221660000000 1.0
C      1  0.4262350000000  0.5678220000000  0.4638710000000 1.0
C      1  0.4176260000000  0.4249470000000  0.5097490000000 1.0
C      1  0.4340140000000  0.5688770000000  0.5561370000000 1.0
C      1  0.4866120000000  0.4318120000000  0.5804730000000 1.0
C      1  0.5367310000000  0.5751740000000  0.5662640000000 1.0
C      1  0.5371750000000  0.4296100000000  0.4243740000000 1.0
C      1  0.4908340000000  0.5711840000000  0.4258210000000 1.0
C      1  0.4553970000000  0.4425970000000  0.4471150000000 1.0
C      1  0.4157570000000  0.5637100000000  0.4897180000000 1.0
C      1  0.4273600000000  0.4305350000000  0.5355080000000 1.0
C      1  0.4613350000000  0.5636170000000  0.5603770000000 1.0
C      1  0.5126920000000  0.4358740000000  0.5692450000000 1.0
C      1  0.5624920000000  0.5716950000000  0.5551270000000 1.0
C      1  0.5775050000000  0.4327720000000  0.5127970000000 1.0
C      1  0.5749330000000  0.5562670000000  0.4713770000000 1.0
C      1  0.5534130000000  0.5961270000000  0.5106490000000 1.0
C      1  0.5392750000000  0.4061950000000  0.5015410000000 1.0
C      1  0.5440210000000  0.5900300000000  0.4859490000000 1.0
C      1  0.4993610000000  0.4059540000000  0.4531600000000 1.0
C      1  0.4753760000000  0.5972490000000  0.4753580000000 1.0
C      1  0.4814970000000  0.4073640000000  0.4764130000000 1.0
C      1  0.4387680000000  0.6020220000000  0.5078310000000 1.0
C      1  0.4681750000000  0.4015020000000  0.5247510000000 1.0
C      1  0.4824430000000  0.5983550000000  0.5267250000000 1.0
C      1  0.5153660000000  0.4083760000000  0.5174910000000 1.0
C      1  0.5208780000000  0.4635940000000  0.4585950000000 1.0
C      1  0.4940200000000  0.5287680000000  0.4512980000000 1.0
C      1  0.4752200000000  0.4827420000000  0.4866130000000 1.0
C      1  0.4526890000000  0.5314550000000  0.4882230000000 1.0
C      1  0.4503690000000  0.4713080000000  0.5210810000000 1.0
C      1  0.4773860000000  0.5263150000000  0.5308170000000 1.0
C      1  0.5013320000000  0.4796300000000  0.5387270000000 1.0
C      1  0.5326110000000  0.5323780000000  0.5330550000000 1.0
C      1  0.5438150000000  0.4686830000000  0.5133740000000 1.0
C      1  0.5193820000000  0.5155490000000  0.4882920000000 1.0
C      1  0.4709760000000  0.5129450000000  0.4473770000000 1.0
C      1  0.4468400000000  0.4861130000000  0.4751070000000 1.0
C      1  0.4341990000000  0.5191620000000  0.5085550000000 1.0
C      1  0.4562260000000  0.4882900000000  0.5421340000000 1.0
C      1  0.4888440000000  0.5199020000000  0.5578230000000 1.0
C      1  0.5260490000000  0.4866920000000  0.5528680000000 1.0
C      1  0.5521050000000  0.5145380000000  0.5212450000000 1.0
C      1  0.5623630000000  0.4770580000000  0.4921020000000 1.0
C      1  0.5325250000000  0.5065350000000  0.4674950000000 1.0
C      1  0.5042880000000  0.4812690000000  0.4419530000000 1.0
C      1  0.4668010000000  0.6024390000000  0.5027330000000 1.0
C      1  0.4893030000000  0.4012630000000  0.5049650000000 1.0
C      1  0.4941740000000  0.5014200000000  0.5098800000000 1.0
END
