TITL C-3201378-2706-1471 30490.8497888515 125000 -1056.80599126752 0 0 173 (C1) n - 1
REM
REM in /home/nfs/bkarasulu/CARBON/AIRSS/Generating-Clusters/LCBOP/Higher-Symm/SD-CG/FIRE-CG
REM
REM
REM
REM
REM
REM ./C.cell (b20cbc046b6831c77cfcea5457e17084)
REM AIRSS Version 0.9.1 bugfix July 2018 build 013d7b7c2542+ Fri, 06 Jul 2018 19:26:36 +0100
REM compiler GCC version 9.2.1 20190827 (Red Hat 9.2.1-1)
REM options -cpp -mtune=generic -march=x86-64 -g -O0 -fpre-include=/usr/include/finclude/math-vector-fortran.h
REM seed -387484684 -133515803 165047839 362589243 -303604587 -335471276 -1354925614 -276468494 -127736796 -678142686 1623859228 -602338264 -1395071725 -313085153 2069737577 -1363302295 2141330355 -893408663 380980085 545662000 -277026957 -1682400467 -610168448 915795213 538921843 1628462194 -2130115231 -1081040197 1827017186 528578006 733427028 1398631057 1969831849
REM
CELL 1.54180   50.00000   50.00000   50.00000   90.00000   90.00000   90.00000
LATT -1
SFAC C  
C      1  0.4437110000000  0.5227440000000  0.3977360000000 1.0
C      1  0.4222960000000  0.4727540000000  0.4063270000000 1.0
C      1  0.5096900000000  0.4370880000000  0.4957050000000 1.0
C      1  0.5213760000000  0.5638270000000  0.5009910000000 1.0
C      1  0.6039220000000  0.4550020000000  0.5487950000000 1.0
C      1  0.6103280000000  0.5480750000000  0.5228760000000 1.0
C      1  0.4193800000000  0.4278890000000  0.4898790000000 1.0
C      1  0.4212840000000  0.5727450000000  0.4871360000000 1.0
C      1  0.4525400000000  0.4769650000000  0.6320400000000 1.0
C      1  0.4499160000000  0.5037700000000  0.6284090000000 1.0
C      1  0.4071910000000  0.5161190000000  0.4596470000000 1.0
C      1  0.4059460000000  0.4868690000000  0.4642330000000 1.0
C      1  0.3927250000000  0.4837290000000  0.5202140000000 1.0
C      1  0.3946600000000  0.5164680000000  0.5185390000000 1.0
C      1  0.4587970000000  0.4364580000000  0.4335880000000 1.0
C      1  0.4571200000000  0.5821790000000  0.4260420000000 1.0
C      1  0.5676820000000  0.5967490000000  0.4902540000000 1.0
C      1  0.5479290000000  0.4073510000000  0.4963890000000 1.0
C      1  0.4388400000000  0.4193370000000  0.4483290000000 1.0
C      1  0.4378800000000  0.5861620000000  0.4473290000000 1.0
C      1  0.4167290000000  0.5444080000000  0.5640280000000 1.0
C      1  0.4143110000000  0.4520290000000  0.5649330000000 1.0
C      1  0.4835940000000  0.5414270000000  0.5764570000000 1.0
C      1  0.4793560000000  0.4561940000000  0.5732490000000 1.0
C      1  0.5082180000000  0.5875620000000  0.4304780000000 1.0
C      1  0.5085300000000  0.4201420000000  0.4311890000000 1.0
C      1  0.5406520000000  0.4529920000000  0.5554970000000 1.0
C      1  0.5535160000000  0.5278250000000  0.5586550000000 1.0
C      1  0.4410400000000  0.5563610000000  0.5760660000000 1.0
C      1  0.4377290000000  0.4362880000000  0.5757390000000 1.0
C      1  0.4814420000000  0.5308030000000  0.5509130000000 1.0
C      1  0.4770420000000  0.4718620000000  0.5513560000000 1.0
C      1  0.5557280000000  0.4928610000000  0.4695760000000 1.0
C      1  0.5578830000000  0.5210240000000  0.4646770000000 1.0
C      1  0.4976210000000  0.4753690000000  0.6113680000000 1.0
C      1  0.4950230000000  0.5049320000000  0.6085260000000 1.0
C      1  0.6101520000000  0.5125420000000  0.4720190000000 1.0
C      1  0.6020680000000  0.4869280000000  0.4753040000000 1.0
C      1  0.4901600000000  0.5870100000000  0.3610960000000 1.0
C      1  0.4888300000000  0.4370110000000  0.3726530000000 1.0
C      1  0.5506830000000  0.3917140000000  0.5201420000000 1.0
C      1  0.5433090000000  0.6059420000000  0.5044200000000 1.0
C      1  0.4409710000000  0.5322420000000  0.5279760000000 1.0
C      1  0.4376260000000  0.4711390000000  0.5315140000000 1.0
C      1  0.5525300000000  0.4306430000000  0.5765730000000 1.0
C      1  0.5825520000000  0.6308930000000  0.5601810000000 1.0
C      1  0.5189170000000  0.5586490000000  0.5307780000000 1.0
C      1  0.5016910000000  0.4375460000000  0.5238150000000 1.0
C      1  0.5038670000000  0.3967010000000  0.4466080000000 1.0
C      1  0.5051020000000  0.6062570000000  0.4515630000000 1.0
C      1  0.5945910000000  0.5018730000000  0.5718740000000 1.0
C      1  0.5837590000000  0.5274450000000  0.5646310000000 1.0
C      1  0.5544700000000  0.5155350000000  0.5309540000000 1.0
C      1  0.5474830000000  0.4638440000000  0.5274710000000 1.0
C      1  0.4138950000000  0.5302030000000  0.5382490000000 1.0
C      1  0.4106510000000  0.4697870000000  0.5410940000000 1.0
C      1  0.5691050000000  0.4674140000000  0.4207610000000 1.0
C      1  0.5679600000000  0.5312110000000  0.4129180000000 1.0
C      1  0.5398920000000  0.6144540000000  0.5320450000000 1.0
C      1  0.5361610000000  0.3868830000000  0.5439850000000 1.0
C      1  0.5292470000000  0.5676050000000  0.4345350000000 1.0
C      1  0.5315800000000  0.4366990000000  0.4384160000000 1.0
C      1  0.5377620000000  0.5554790000000  0.5535910000000 1.0
C      1  0.5142430000000  0.4361990000000  0.5487030000000 1.0
C      1  0.5190270000000  0.5459900000000  0.4505010000000 1.0
C      1  0.5213900000000  0.4592330000000  0.4533200000000 1.0
C      1  0.4813410000000  0.4583640000000  0.5249520000000 1.0
C      1  0.4985140000000  0.5390040000000  0.5313230000000 1.0
C      1  0.4731700000000  0.3957020000000  0.4861650000000 1.0
C      1  0.4719150000000  0.6045770000000  0.4890060000000 1.0
C      1  0.4641860000000  0.5287000000000  0.4395740000000 1.0
C      1  0.4527030000000  0.4628430000000  0.4436320000000 1.0
C      1  0.4487140000000  0.5604170000000  0.4877400000000 1.0
C      1  0.4449810000000  0.4420840000000  0.4917330000000 1.0
C      1  0.3886500000000  0.5385920000000  0.4969230000000 1.0
C      1  0.3864940000000  0.4620120000000  0.4987890000000 1.0
C      1  0.5387820000000  0.4049310000000  0.5675490000000 1.0
C      1  0.5613080000000  0.6256460000000  0.5460210000000 1.0
C      1  0.4674830000000  0.5181900000000  0.6114200000000 1.0
C      1  0.4704870000000  0.4618040000000  0.6159600000000 1.0
C      1  0.5045320000000  0.4589110000000  0.4750050000000 1.0
C      1  0.5058270000000  0.5428340000000  0.4746410000000 1.0
C      1  0.5706750000000  0.4240480000000  0.4892070000000 1.0
C      1  0.5653530000000  0.5695300000000  0.4802840000000 1.0
C      1  0.4809950000000  0.3839490000000  0.5378780000000 1.0
C      1  0.4889360000000  0.6127750000000  0.5353900000000 1.0
C      1  0.4538040000000  0.5418810000000  0.4645450000000 1.0
C      1  0.4480720000000  0.4619370000000  0.4716790000000 1.0
C      1  0.4563920000000  0.5780980000000  0.5603630000000 1.0
C      1  0.4480910000000  0.4144800000000  0.5582470000000 1.0
C      1  0.5415760000000  0.4415640000000  0.6026100000000 1.0
C      1  0.5088290000000  0.5462900000000  0.5884990000000 1.0
C      1  0.5445520000000  0.5143550000000  0.4192240000000 1.0
C      1  0.5463280000000  0.4863430000000  0.4235200000000 1.0
C      1  0.5301450000000  0.5074430000000  0.5207500000000 1.0
C      1  0.5243560000000  0.4802360000000  0.5215940000000 1.0
C      1  0.5233410000000  0.4645830000000  0.6009340000000 1.0
C      1  0.5172010000000  0.5198920000000  0.5960480000000 1.0
C      1  0.3928080000000  0.5397760000000  0.4662400000000 1.0
C      1  0.3921270000000  0.4620150000000  0.4682160000000 1.0
C      1  0.4896690000000  0.4500670000000  0.3969050000000 1.0
C      1  0.4862980000000  0.5849150000000  0.3867830000000 1.0
C      1  0.4697350000000  0.6011960000000  0.5182010000000 1.0
C      1  0.4678160000000  0.3977550000000  0.5152200000000 1.0
C      1  0.4969900000000  0.4792560000000  0.5126030000000 1.0
C      1  0.5074770000000  0.5208750000000  0.5126690000000 1.0
C      1  0.4958570000000  0.4856210000000  0.4847080000000 1.0
C      1  0.4994460000000  0.5164420000000  0.4852620000000 1.0
C      1  0.4838110000000  0.5840040000000  0.4146880000000 1.0
C      1  0.4848160000000  0.4339800000000  0.4203540000000 1.0
C      1  0.5903280000000  0.4848610000000  0.4112710000000 1.0
C      1  0.5895870000000  0.5124950000000  0.4078390000000 1.0
C      1  0.5765140000000  0.5002240000000  0.5221150000000 1.0
C      1  0.5702680000000  0.4739700000000  0.5120460000000 1.0
C      1  0.5754920000000  0.5482780000000  0.4608730000000 1.0
C      1  0.5715180000000  0.4448740000000  0.4685370000000 1.0
C      1  0.6065150000000  0.4319170000000  0.5324670000000 1.0
C      1  0.6122310000000  0.5568300000000  0.4958750000000 1.0
C      1  0.5196040000000  0.5925820000000  0.4946500000000 1.0
C      1  0.5207280000000  0.4120510000000  0.4880530000000 1.0
C      1  0.5999530000000  0.5434430000000  0.5472530000000 1.0
C      1  0.6014120000000  0.4769940000000  0.5640600000000 1.0
C      1  0.4303490000000  0.4813110000000  0.4800520000000 1.0
C      1  0.4334500000000  0.5234310000000  0.4706440000000 1.0
C      1  0.4535900000000  0.4477080000000  0.5190910000000 1.0
C      1  0.4515280000000  0.5557170000000  0.5157410000000 1.0
C      1  0.4598380000000  0.5394740000000  0.5924020000000 1.0
C      1  0.4595230000000  0.4487770000000  0.5921110000000 1.0
C      1  0.4430950000000  0.5116040000000  0.4257170000000 1.0
C      1  0.4398700000000  0.4825040000000  0.4268100000000 1.0
C      1  0.5377440000000  0.4811770000000  0.4506080000000 1.0
C      1  0.5362270000000  0.5249170000000  0.4448120000000 1.0
C      1  0.5486340000000  0.5546430000000  0.4971640000000 1.0
C      1  0.5910390000000  0.4263680000000  0.5093420000000 1.0
C      1  0.6143990000000  0.5850640000000  0.4923440000000 1.0
C      1  0.6258230000000  0.4129720000000  0.5398660000000 1.0
C      1  0.4849610000000  0.5176460000000  0.3705050000000 1.0
C      1  0.4948520000000  0.4922760000000  0.3718860000000 1.0
C      1  0.4509070000000  0.6030800000000  0.4688600000000 1.0
C      1  0.4522640000000  0.3997320000000  0.4661540000000 1.0
C      1  0.4141480000000  0.5697010000000  0.4593260000000 1.0
C      1  0.4129850000000  0.4325840000000  0.4613900000000 1.0
C      1  0.4554200000000  0.4892360000000  0.5453890000000 1.0
C      1  0.4591560000000  0.5163000000000  0.5421530000000 1.0
C      1  0.5633530000000  0.5561420000000  0.4308330000000 1.0
C      1  0.5616420000000  0.4434870000000  0.4394230000000 1.0
C      1  0.4690500000000  0.3944790000000  0.5633440000000 1.0
C      1  0.4800660000000  0.5918400000000  0.5693270000000 1.0
C      1  0.4896640000000  0.4029410000000  0.5806500000000 1.0
C      1  0.5088040000000  0.5913800000000  0.5693690000000 1.0
C      1  0.4002050000000  0.5646750000000  0.5044850000000 1.0
C      1  0.3973240000000  0.4355730000000  0.5062060000000 1.0
C      1  0.4519300000000  0.4194020000000  0.5298370000000 1.0
C      1  0.4557000000000  0.5791320000000  0.5311260000000 1.0
C      1  0.5365810000000  0.5075530000000  0.5776050000000 1.0
C      1  0.5343060000000  0.4782050000000  0.5757820000000 1.0
C      1  0.5948520000000  0.6040100000000  0.4925760000000 1.0
C      1  0.6433320000000  0.3946780000000  0.5460270000000 1.0
C      1  0.5755940000000  0.4731050000000  0.4815840000000 1.0
C      1  0.6027210000000  0.5400110000000  0.4738290000000 1.0
C      1  0.5232960000000  0.5672890000000  0.5759510000000 1.0
C      1  0.5113850000000  0.4153490000000  0.5685360000000 1.0
C      1  0.4952660000000  0.4781820000000  0.3968780000000 1.0
C      1  0.4718560000000  0.5291040000000  0.3929290000000 1.0
C      1  0.4246200000000  0.5118930000000  0.3800170000000 1.0
C      1  0.4147710000000  0.4869210000000  0.3843820000000 1.0
C      1  0.4852790000000  0.5240410000000  0.4197000000000 1.0
C      1  0.4959380000000  0.4969240000000  0.4187200000000 1.0
C      1  0.5089390000000  0.3766430000000  0.5392440000000 1.0
C      1  0.5150380000000  0.6088880000000  0.5457820000000 1.0
C      1  0.5006450000000  0.3962090000000  0.4749190000000 1.0
C      1  0.4990010000000  0.6035600000000  0.4788920000000 1.0
C      1  0.4413300000000  0.5046610000000  0.4900530000000 1.0
END
