TITL C-3201373-1215-1240 -0.000362809033200331 125000 -281.408254754743 0 0 48 (C1) n - 1
REM
REM in /home/nfs/bkarasulu/CARBON/AIRSS/Generating-Clusters/LCBOP/Higher-Symm/SD-CG/FIRE-CG
REM
REM
REM
REM
REM
REM ./C.cell (b20cbc046b6831c77cfcea5457e17084)
REM AIRSS Version 0.9.1 bugfix July 2018 build 013d7b7c2542+ Fri, 06 Jul 2018 19:26:36 +0100
REM compiler GCC version 9.2.1 20190827 (Red Hat 9.2.1-1)
REM options -cpp -mtune=generic -march=x86-64 -g -O0 -fpre-include=/usr/include/finclude/math-vector-fortran.h
REM seed -1514713979 -708924473 -1982997473 -1037032234 413492440 1367767693 -2112326476 500548887 1573091179 -1763786759 753332141 -678206686 1668212992 -25850830 -1332272324 1434765440 -785783777 542050699 -1466423818 -166591275 -1561872135 640767850 1794144832 -1470998047 279147943 -185073521 1796407849 1201282630 829611394 -1019342015 702905009 60173308 807013371
REM
CELL 1.54180   50.00000   50.00000   50.00000   90.00000   90.00000   90.00000
LATT -1
SFAC C  
C      1  0.5659450000000  0.5594480000000  0.4628100000000 1.0
C      1  0.4410230000000  0.5090850000000  0.5504590000000 1.0
C      1  0.5255870000000  0.4345830000000  0.5374600000000 1.0
C      1  0.4159070000000  0.4008420000000  0.5100710000000 1.0
C      1  0.5629820000000  0.4887830000000  0.5203120000000 1.0
C      1  0.5218020000000  0.4349980000000  0.4592180000000 1.0
C      1  0.4843680000000  0.4960340000000  0.5696720000000 1.0
C      1  0.5063430000000  0.4788470000000  0.4724670000000 1.0
C      1  0.4233940000000  0.5117760000000  0.5054020000000 1.0
C      1  0.5273480000000  0.4604340000000  0.4693010000000 1.0
C      1  0.4362340000000  0.4387800000000  0.4503940000000 1.0
C      1  0.5012270000000  0.5247780000000  0.4868190000000 1.0
C      1  0.4651360000000  0.4946220000000  0.5488320000000 1.0
C      1  0.4231240000000  0.5164530000000  0.5318390000000 1.0
C      1  0.5379710000000  0.5284220000000  0.5171670000000 1.0
C      1  0.5195170000000  0.6069570000000  0.4743860000000 1.0
C      1  0.5529360000000  0.4678090000000  0.4779550000000 1.0
C      1  0.5784760000000  0.5924860000000  0.4959360000000 1.0
C      1  0.5168290000000  0.5690330000000  0.5045190000000 1.0
C      1  0.4818460000000  0.4808000000000  0.5922320000000 1.0
C      1  0.5019970000000  0.5416010000000  0.5662990000000 1.0
C      1  0.5761980000000  0.5345170000000  0.4706880000000 1.0
C      1  0.5586830000000  0.5706640000000  0.4104790000000 1.0
C      1  0.4335410000000  0.4909780000000  0.4621200000000 1.0
C      1  0.5063220000000  0.5137590000000  0.5663720000000 1.0
C      1  0.5017610000000  0.4435580000000  0.5319090000000 1.0
C      1  0.4413640000000  0.4983920000000  0.4883320000000 1.0
C      1  0.4535160000000  0.4189030000000  0.4468510000000 1.0
C      1  0.5042130000000  0.4166070000000  0.4515170000000 1.0
C      1  0.4298580000000  0.4639040000000  0.4560850000000 1.0
C      1  0.5588650000000  0.5793590000000  0.4820000000000 1.0
C      1  0.5189220000000  0.5409650000000  0.5010730000000 1.0
C      1  0.5011300000000  0.5646610000000  0.5527850000000 1.0
C      1  0.5313830000000  0.5856850000000  0.4868070000000 1.0
C      1  0.4672150000000  0.4919910000000  0.4988930000000 1.0
C      1  0.5676450000000  0.4867660000000  0.4924120000000 1.0
C      1  0.4355440000000  0.4167610000000  0.5164370000000 1.0
C      1  0.4757580000000  0.4520150000000  0.5262810000000 1.0
C      1  0.4697940000000  0.4797480000000  0.5247590000000 1.0
C      1  0.4554860000000  0.4333110000000  0.5219320000000 1.0
C      1  0.5309350000000  0.5037490000000  0.5567870000000 1.0
C      1  0.5780380000000  0.5093340000000  0.4792040000000 1.0
C      1  0.4299680000000  0.5101010000000  0.4428800000000 1.0
C      1  0.5456710000000  0.5067570000000  0.5331710000000 1.0
C      1  0.5060020000000  0.5767860000000  0.5293410000000 1.0
C      1  0.5625840000000  0.5649800000000  0.4356110000000 1.0
C      1  0.4787230000000  0.4104000000000  0.4470720000000 1.0
C      1  0.4908870000000  0.4987770000000  0.4846520000000 1.0
END
