TITL C-3201377-4638-771 -1.31975609823562e-06 125000 -484.771432718601 0 0 81 (C1) n - 1
REM
REM in /home/nfs/bkarasulu/CARBON/AIRSS/Generating-Clusters/LCBOP/Higher-Symm/SD-CG/FIRE-CG
REM
REM
REM
REM
REM
REM ./C.cell (b20cbc046b6831c77cfcea5457e17084)
REM AIRSS Version 0.9.1 bugfix July 2018 build 013d7b7c2542+ Fri, 06 Jul 2018 19:26:36 +0100
REM compiler GCC version 9.2.1 20190827 (Red Hat 9.2.1-1)
REM options -cpp -mtune=generic -march=x86-64 -g -O0 -fpre-include=/usr/include/finclude/math-vector-fortran.h
REM seed 907577807 2008989918 -1841032257 636690740 1451943335 -732163721 1850151209 1929871423 -723106437 275771497 -947632092 516393688 -1761997682 -1202938589 242597621 -1375520579 1396860457 -1588109793 685125353 985390191 326299391 166243776 256386078 -957234760 -684307403 -1540300777 2031798829 26441990 1127690922 1305503338 1353708090 737805809 1961431830
REM
CELL 1.54180   50.00000   50.00000   50.00000   90.00000   90.00000   90.00000
LATT -1
SFAC C  
C      1  0.5411180000000  0.4771390000000  0.4451070000000 1.0
C      1  0.5384970000000  0.5222250000000  0.5547550000000 1.0
C      1  0.4586060000000  0.5223660000000  0.4455390000000 1.0
C      1  0.4610610000000  0.4774940000000  0.5546900000000 1.0
C      1  0.5352940000000  0.5809530000000  0.5393220000000 1.0
C      1  0.5363960000000  0.4186630000000  0.4604220000000 1.0
C      1  0.4640960000000  0.4186630000000  0.5393390000000 1.0
C      1  0.4631430000000  0.5809250000000  0.4603040000000 1.0
C      1  0.4678560000000  0.5312960000000  0.5212810000000 1.0
C      1  0.4692180000000  0.4717370000000  0.4769760000000 1.0
C      1  0.5314340000000  0.4682950000000  0.5208370000000 1.0
C      1  0.5305500000000  0.5277220000000  0.4769220000000 1.0
C      1  0.4261280000000  0.5465940000000  0.5365780000000 1.0
C      1  0.4268880000000  0.4543130000000  0.4653340000000 1.0
C      1  0.5730830000000  0.4531780000000  0.5365820000000 1.0
C      1  0.5727750000000  0.5453160000000  0.4652460000000 1.0
C      1  0.5909290000000  0.4982150000000  0.5148580000000 1.0
C      1  0.5919720000000  0.5002580000000  0.4857310000000 1.0
C      1  0.4084850000000  0.5013930000000  0.5150230000000 1.0
C      1  0.4076400000000  0.4993070000000  0.4859080000000 1.0
C      1  0.4961110000000  0.4768800000000  0.4750400000000 1.0
C      1  0.4944110000000  0.5224270000000  0.5246610000000 1.0
C      1  0.5035240000000  0.5225430000000  0.4756160000000 1.0
C      1  0.5050710000000  0.4776550000000  0.5243260000000 1.0
C      1  0.5419860000000  0.4807710000000  0.4162280000000 1.0
C      1  0.5396080000000  0.5191300000000  0.5837190000000 1.0
C      1  0.4578520000000  0.5187650000000  0.4166500000000 1.0
C      1  0.4601330000000  0.4805440000000  0.5836660000000 1.0
C      1  0.5551680000000  0.5629010000000  0.5386280000000 1.0
C      1  0.5570610000000  0.4358340000000  0.4604690000000 1.0
C      1  0.4442750000000  0.4367670000000  0.5387620000000 1.0
C      1  0.4424890000000  0.5637400000000  0.4605000000000 1.0
C      1  0.5130240000000  0.4073970000000  0.5258030000000 1.0
C      1  0.5124110000000  0.5909420000000  0.4742250000000 1.0
C      1  0.4863520000000  0.5922560000000  0.5257180000000 1.0
C      1  0.4871120000000  0.4085960000000  0.4742500000000 1.0
C      1  0.4549570000000  0.4912310000000  0.4910100000000 1.0
C      1  0.4538930000000  0.5144230000000  0.5039390000000 1.0
C      1  0.5449320000000  0.5080170000000  0.4904970000000 1.0
C      1  0.5456100000000  0.4847490000000  0.5032950000000 1.0
C      1  0.4095770000000  0.5269410000000  0.5278260000000 1.0
C      1  0.4096360000000  0.4735230000000  0.4736380000000 1.0
C      1  0.5897220000000  0.4727130000000  0.5277380000000 1.0
C      1  0.5900340000000  0.5260670000000  0.4734720000000 1.0
C      1  0.5452520000000  0.4477890000000  0.5345410000000 1.0
C      1  0.5446940000000  0.5496960000000  0.4659190000000 1.0
C      1  0.4539710000000  0.5519590000000  0.5346450000000 1.0
C      1  0.4549480000000  0.4498520000000  0.4659340000000 1.0
C      1  0.4900530000000  0.4733760000000  0.5477960000000 1.0
C      1  0.4876650000000  0.5256480000000  0.4529620000000 1.0
C      1  0.5094880000000  0.5265740000000  0.5480940000000 1.0
C      1  0.5120060000000  0.4739520000000  0.4524180000000 1.0
C      1  0.4841090000000  0.4061490000000  0.5243380000000 1.0
C      1  0.4834820000000  0.5927660000000  0.4754260000000 1.0
C      1  0.5152820000000  0.5934640000000  0.5243130000000 1.0
C      1  0.5160410000000  0.4068190000000  0.4755300000000 1.0
C      1  0.4992650000000  0.4702180000000  0.4260800000000 1.0
C      1  0.4970520000000  0.5309320000000  0.5743370000000 1.0
C      1  0.5004780000000  0.5295230000000  0.4266700000000 1.0
C      1  0.5026900000000  0.4690370000000  0.5739600000000 1.0
C      1  0.4691790000000  0.5751450000000  0.5402440000000 1.0
C      1  0.4701620000000  0.4266050000000  0.4606170000000 1.0
C      1  0.5300740000000  0.4246350000000  0.5403080000000 1.0
C      1  0.5294000000000  0.5729080000000  0.4606700000000 1.0
C      1  0.4847640000000  0.4740350000000  0.5945470000000 1.0
C      1  0.4826890000000  0.5245980000000  0.4059500000000 1.0
C      1  0.5150930000000  0.5257750000000  0.5947860000000 1.0
C      1  0.5171500000000  0.4751070000000  0.4054350000000 1.0
C      1  0.5593910000000  0.5351150000000  0.5406550000000 1.0
C      1  0.5621370000000  0.4634870000000  0.4584480000000 1.0
C      1  0.4400750000000  0.4645550000000  0.5407710000000 1.0
C      1  0.4375300000000  0.5360540000000  0.4587320000000 1.0
C      1  0.4754330000000  0.3980250000000  0.4982110000000 1.0
C      1  0.4747940000000  0.6017740000000  0.5012670000000 1.0
C      1  0.5240210000000  0.6015640000000  0.4981950000000 1.0
C      1  0.5246730000000  0.3978570000000  0.5014050000000 1.0
C      1  0.4159970000000  0.5217890000000  0.4703010000000 1.0
C      1  0.4186220000000  0.4791270000000  0.5297210000000 1.0
C      1  0.5836630000000  0.4777790000000  0.4700550000000 1.0
C      1  0.5807650000000  0.5205200000000  0.5294850000000 1.0
C      1  0.4998340000000  0.5001480000000  0.5050970000000 1.0
END
