TITL C-3201377-4638-1715 32.0957607508701 125000 -946.340224353555 0 0 152 (C1) n - 1
REM
REM in /home/nfs/bkarasulu/CARBON/AIRSS/Generating-Clusters/LCBOP/Higher-Symm/SD-CG/FIRE-CG
REM
REM
REM
REM
REM
REM ./C.cell (b20cbc046b6831c77cfcea5457e17084)
REM AIRSS Version 0.9.1 bugfix July 2018 build 013d7b7c2542+ Fri, 06 Jul 2018 19:26:36 +0100
REM compiler GCC version 9.2.1 20190827 (Red Hat 9.2.1-1)
REM options -cpp -mtune=generic -march=x86-64 -g -O0 -fpre-include=/usr/include/finclude/math-vector-fortran.h
REM seed 872572971 -955832306 -1729958317 -1040717346 358072638 1080564765 -233831375 -325391260 1962257611 821905858 1676488738 -1465654175 1616923418 1229319180 -563774986 -1137112306 -2041129674 1481870446 -1621141637 -1424237012 1916210782 467930752 -651122393 1422169213 487519549 -1131848000 -1700923344 79710853 773598279 -1203974663 422336493 17720092 1719043200
REM
CELL 1.54180   50.00000   50.00000   50.00000   90.00000   90.00000   90.00000
LATT -1
SFAC C  
C      1  0.4124830000000  0.4554820000000  0.5335390000000 1.0
C      1  0.4348220000000  0.5680390000000  0.5296280000000 1.0
C      1  0.5449720000000  0.5850490000000  0.5302790000000 1.0
C      1  0.5955460000000  0.4858600000000  0.5327100000000 1.0
C      1  0.5143120000000  0.4044880000000  0.5316070000000 1.0
C      1  0.5300530000000  0.4302220000000  0.5689170000000 1.0
C      1  0.4413290000000  0.4484410000000  0.5717430000000 1.0
C      1  0.4362960000000  0.5392210000000  0.5680960000000 1.0
C      1  0.5189110000000  0.5732910000000  0.5691660000000 1.0
C      1  0.5782910000000  0.5074150000000  0.5714420000000 1.0
C      1  0.4482030000000  0.4126040000000  0.4577890000000 1.0
C      1  0.4011640000000  0.5188420000000  0.4586940000000 1.0
C      1  0.4939610000000  0.6019980000000  0.4637950000000 1.0
C      1  0.5962030000000  0.5425760000000  0.4563920000000 1.0
C      1  0.5665490000000  0.4280200000000  0.4572900000000 1.0
C      1  0.4994050000000  0.4084790000000  0.5079320000000 1.0
C      1  0.4127240000000  0.4693060000000  0.5086770000000 1.0
C      1  0.4469820000000  0.5750890000000  0.5050200000000 1.0
C      1  0.5488600000000  0.5729450000000  0.5044950000000 1.0
C      1  0.5835460000000  0.4780780000000  0.5083190000000 1.0
C      1  0.5184910000000  0.4586140000000  0.5226900000000 1.0
C      1  0.4618660000000  0.4662270000000  0.5325190000000 1.0
C      1  0.4539850000000  0.5231840000000  0.5226110000000 1.0
C      1  0.5076130000000  0.5430870000000  0.5105880000000 1.0
C      1  0.5467120000000  0.5052130000000  0.5276350000000 1.0
C      1  0.4904390000000  0.4454020000000  0.4781150000000 1.0
C      1  0.4474660000000  0.4708250000000  0.4763110000000 1.0
C      1  0.4474110000000  0.5595040000000  0.4619520000000 1.0
C      1  0.5424130000000  0.5297040000000  0.4786390000000 1.0
C      1  0.5540910000000  0.5028530000000  0.4791170000000 1.0
C      1  0.5699990000000  0.5396690000000  0.4418320000000 1.0
C      1  0.5534770000000  0.4447810000000  0.4388160000000 1.0
C      1  0.4607000000000  0.4316320000000  0.4388140000000 1.0
C      1  0.4243850000000  0.5131750000000  0.4430290000000 1.0
C      1  0.4943340000000  0.5779580000000  0.4480090000000 1.0
C      1  0.4903860000000  0.3985520000000  0.4814730000000 1.0
C      1  0.3990900000000  0.4744310000000  0.4826480000000 1.0
C      1  0.4483510000000  0.5982800000000  0.4858950000000 1.0
C      1  0.5652820000000  0.5708200000000  0.4806080000000 1.0
C      1  0.5871250000000  0.4665380000000  0.4815630000000 1.0
C      1  0.4186670000000  0.4267310000000  0.5336560000000 1.0
C      1  0.4090570000000  0.5536570000000  0.5303280000000 1.0
C      1  0.5253450000000  0.6062060000000  0.5343310000000 1.0
C      1  0.6090450000000  0.5117490000000  0.5332710000000 1.0
C      1  0.5433970000000  0.4028480000000  0.5309550000000 1.0
C      1  0.6247730000000  0.5164180000000  0.4847950000000 1.0
C      1  0.5544040000000  0.3895320000000  0.4832020000000 1.0
C      1  0.4085220000000  0.4132770000000  0.4853200000000 1.0
C      1  0.3896880000000  0.5581720000000  0.4834790000000 1.0
C      1  0.5267640000000  0.6265320000000  0.4886160000000 1.0
C      1  0.4812080000000  0.5977220000000  0.5555810000000 1.0
C      1  0.5884090000000  0.5510680000000  0.5554320000000 1.0
C      1  0.5743330000000  0.4349810000000  0.5531950000000 1.0
C      1  0.4593050000000  0.4073470000000  0.5553220000000 1.0
C      1  0.4016420000000  0.5102370000000  0.5540670000000 1.0
C      1  0.5577170000000  0.3568690000000  0.3898770000000 1.0
C      1  0.3744080000000  0.4085840000000  0.3926010000000 1.0
C      1  0.3687630000000  0.5815500000000  0.3896870000000 1.0
C      1  0.5554120000000  0.6345410000000  0.3941340000000 1.0
C      1  0.6508680000000  0.4912380000000  0.3927520000000 1.0
C      1  0.5303440000000  0.6255920000000  0.4394570000000 1.0
C      1  0.6302500000000  0.5131610000000  0.4358440000000 1.0
C      1  0.5597510000000  0.3844950000000  0.4345480000000 1.0
C      1  0.4034340000000  0.4096810000000  0.4364070000000 1.0
C      1  0.3819260000000  0.5578780000000  0.4347320000000 1.0
C      1  0.5380170000000  0.4630460000000  0.5051490000000 1.0
C      1  0.4669060000000  0.4432840000000  0.5206130000000 1.0
C      1  0.4395420000000  0.5093140000000  0.5055200000000 1.0
C      1  0.4866460000000  0.5488250000000  0.4931230000000 1.0
C      1  0.5540790000000  0.5313970000000  0.5232600000000 1.0
C      1  0.5373910000000  0.4582180000000  0.5756160000000 1.0
C      1  0.4709860000000  0.4505730000000  0.5776570000000 1.0
C      1  0.4461260000000  0.5120300000000  0.5756740000000 1.0
C      1  0.4963790000000  0.5549930000000  0.5745340000000 1.0
C      1  0.5533080000000  0.5227010000000  0.5769590000000 1.0
C      1  0.5256830000000  0.5107600000000  0.5829300000000 1.0
C      1  0.5184680000000  0.4799490000000  0.5832520000000 1.0
C      1  0.4868540000000  0.4762390000000  0.5838180000000 1.0
C      1  0.4746730000000  0.5054510000000  0.5829300000000 1.0
C      1  0.4984020000000  0.5261800000000  0.5820970000000 1.0
C      1  0.5601260000000  0.4000290000000  0.4575730000000 1.0
C      1  0.4193230000000  0.4119630000000  0.4590890000000 1.0
C      1  0.3906490000000  0.5456430000000  0.4580750000000 1.0
C      1  0.5176350000000  0.6184550000000  0.4630880000000 1.0
C      1  0.6175940000000  0.5236710000000  0.4582120000000 1.0
C      1  0.5902350000000  0.4319590000000  0.5300490000000 1.0
C      1  0.4597270000000  0.3905160000000  0.5322590000000 1.0
C      1  0.3848990000000  0.5039530000000  0.5321180000000 1.0
C      1  0.4710640000000  0.6137220000000  0.5347480000000 1.0
C      1  0.5972400000000  0.5649510000000  0.5322090000000 1.0
C      1  0.4231990000000  0.4943780000000  0.5658420000000 1.0
C      1  0.4732200000000  0.5711210000000  0.5641020000000 1.0
C      1  0.5611710000000  0.5501150000000  0.5660670000000 1.0
C      1  0.5656680000000  0.4599890000000  0.5651580000000 1.0
C      1  0.4810240000000  0.4238280000000  0.5664030000000 1.0
C      1  0.4211960000000  0.4661610000000  0.4636650000000 1.0
C      1  0.4391090000000  0.5861030000000  0.4608810000000 1.0
C      1  0.5524990000000  0.5511350000000  0.4618460000000 1.0
C      1  0.5740320000000  0.4869070000000  0.4644670000000 1.0
C      1  0.4993140000000  0.4212420000000  0.4640790000000 1.0
C      1  0.5251380000000  0.5115550000000  0.4249860000000 1.0
C      1  0.5177390000000  0.4826550000000  0.4240970000000 1.0
C      1  0.4881320000000  0.4787030000000  0.4246980000000 1.0
C      1  0.4768670000000  0.5062800000000  0.4277950000000 1.0
C      1  0.4992120000000  0.5260510000000  0.4290120000000 1.0
C      1  0.5360700000000  0.5452920000000  0.5042680000000 1.0
C      1  0.5544690000000  0.4873880000000  0.5059890000000 1.0
C      1  0.4888530000000  0.4354950000000  0.5056420000000 1.0
C      1  0.4381270000000  0.4818200000000  0.5017260000000 1.0
C      1  0.4597880000000  0.5542650000000  0.4877170000000 1.0
C      1  0.5987590000000  0.5245470000000  0.5578190000000 1.0
C      1  0.5525940000000  0.4167830000000  0.5549070000000 1.0
C      1  0.4351780000000  0.4225750000000  0.5578360000000 1.0
C      1  0.4098240000000  0.5374940000000  0.5548020000000 1.0
C      1  0.5095890000000  0.5989480000000  0.5577950000000 1.0
C      1  0.5069140000000  0.4789750000000  0.5369150000000 1.0
C      1  0.4795660000000  0.4860120000000  0.5377790000000 1.0
C      1  0.4767530000000  0.5139630000000  0.5344580000000 1.0
C      1  0.5023890000000  0.5251040000000  0.5313180000000 1.0
C      1  0.5207890000000  0.5035410000000  0.5366440000000 1.0
C      1  0.4969730000000  0.5534680000000  0.4365770000000 1.0
C      1  0.5520340000000  0.5229630000000  0.4256010000000 1.0
C      1  0.5363090000000  0.4619540000000  0.4277440000000 1.0
C      1  0.4734720000000  0.4536280000000  0.4277050000000 1.0
C      1  0.4493740000000  0.5111290000000  0.4329680000000 1.0
C      1  0.5435390000000  0.5688270000000  0.5554790000000 1.0
C      1  0.5806440000000  0.4823090000000  0.5580200000000 1.0
C      1  0.5068090000000  0.4183650000000  0.5569920000000 1.0
C      1  0.4235150000000  0.4672500000000  0.5588540000000 1.0
C      1  0.4490750000000  0.5611870000000  0.5547190000000 1.0
C      1  0.4849980000000  0.6183310000000  0.5103880000000 1.0
C      1  0.6039460000000  0.5532890000000  0.5070060000000 1.0
C      1  0.5799050000000  0.4234850000000  0.5050050000000 1.0
C      1  0.4474590000000  0.3961910000000  0.5068960000000 1.0
C      1  0.3865130000000  0.5163880000000  0.5065060000000 1.0
C      1  0.3935310000000  0.5447490000000  0.5079420000000 1.0
C      1  0.5136790000000  0.6204220000000  0.5127940000000 1.0
C      1  0.6153190000000  0.5265700000000  0.5094360000000 1.0
C      1  0.5594820000000  0.4028710000000  0.5074100000000 1.0
C      1  0.4224290000000  0.4109700000000  0.5097480000000 1.0
C      1  0.3887630000000  0.4090350000000  0.4143570000000 1.0
C      1  0.3751920000000  0.5697970000000  0.4120510000000 1.0
C      1  0.5429500000000  0.6302770000000  0.4166310000000 1.0
C      1  0.6407320000000  0.5021650000000  0.4141410000000 1.0
C      1  0.5587650000000  0.3705080000000  0.4120700000000 1.0
C      1  0.4611960000000  0.3976750000000  0.4804650000000 1.0
C      1  0.3913940000000  0.5023830000000  0.4809440000000 1.0
C      1  0.4747180000000  0.6094440000000  0.4850150000000 1.0
C      1  0.5926820000000  0.5602420000000  0.4810910000000 1.0
C      1  0.5811300000000  0.4385510000000  0.4800070000000 1.0
C      1  0.4902670000000  0.4928110000000  0.4755600000000 1.0
C      1  0.4759410000000  0.4694270000000  0.4738650000000 1.0
END
