TITL C-3201379-3821-1685 5.82916134270204e-07 125000 -590.8013982851 0 0 96 (C1) n - 1
REM
REM in /home/nfs/bkarasulu/CARBON/AIRSS/Generating-Clusters/LCBOP/Higher-Symm/SD-CG/FIRE-CG
REM
REM
REM
REM
REM
REM ./C.cell (b20cbc046b6831c77cfcea5457e17084)
REM AIRSS Version 0.9.1 bugfix July 2018 build 013d7b7c2542+ Fri, 06 Jul 2018 19:26:36 +0100
REM compiler GCC version 9.2.1 20190827 (Red Hat 9.2.1-1)
REM options -cpp -mtune=generic -march=x86-64 -g -O0 -fpre-include=/usr/include/finclude/math-vector-fortran.h
REM seed 662261023 -1045197686 -1719536743 -942093078 -739142574 2020580206 -302662100 1090648019 1256640835 -139048525 69640437 1443048372 -346782230 2045316460 140236047 1881617512 1583233048 542452349 -622303071 269988734 -43932067 -1456368490 -1671183975 1104835961 1091006691 -427915834 -2078101520 1042742199 173155747 1372597863 -184738013 572574477 1540140716
REM
CELL 1.54180   50.00000   50.00000   50.00000   90.00000   90.00000   90.00000
LATT -1
SFAC C  
C      1  0.4963660000000  0.5126670000000  0.5850410000000 1.0
C      1  0.4942750000000  0.4809140000000  0.4158640000000 1.0
C      1  0.5368510000000  0.6289190000000  0.5344850000000 1.0
C      1  0.5274310000000  0.3763060000000  0.4919480000000 1.0
C      1  0.5194430000000  0.4158370000000  0.4637340000000 1.0
C      1  0.5185490000000  0.5860910000000  0.5508170000000 1.0
C      1  0.4587030000000  0.5000760000000  0.5331780000000 1.0
C      1  0.4660070000000  0.4927140000000  0.4699070000000 1.0
C      1  0.5284520000000  0.4605290000000  0.5051430000000 1.0
C      1  0.5265550000000  0.5396890000000  0.5056580000000 1.0
C      1  0.4501980000000  0.4863400000000  0.4448920000000 1.0
C      1  0.4479460000000  0.5073200000000  0.5591310000000 1.0
C      1  0.5311220000000  0.4962170000000  0.5573890000000 1.0
C      1  0.5342650000000  0.4948400000000  0.4381550000000 1.0
C      1  0.5182460000000  0.4551660000000  0.5744710000000 1.0
C      1  0.5263780000000  0.5303620000000  0.4088260000000 1.0
C      1  0.4471250000000  0.5762810000000  0.4878690000000 1.0
C      1  0.4395090000000  0.4340830000000  0.5112650000000 1.0
C      1  0.5647190000000  0.5654530000000  0.5454430000000 1.0
C      1  0.5624610000000  0.4364150000000  0.4489050000000 1.0
C      1  0.5161700000000  0.6115380000000  0.5378440000000 1.0
C      1  0.5192190000000  0.4021440000000  0.4891030000000 1.0
C      1  0.5880970000000  0.5692110000000  0.5333940000000 1.0
C      1  0.5890140000000  0.4356180000000  0.4509800000000 1.0
C      1  0.6035680000000  0.5583150000000  0.4619280000000 1.0
C      1  0.5959110000000  0.4483280000000  0.5167210000000 1.0
C      1  0.5506480000000  0.5305800000000  0.4954920000000 1.0
C      1  0.5719760000000  0.5156880000000  0.4934720000000 1.0
C      1  0.4647000000000  0.4123790000000  0.4476900000000 1.0
C      1  0.4644310000000  0.5830280000000  0.5533670000000 1.0
C      1  0.4571960000000  0.4053560000000  0.4748580000000 1.0
C      1  0.4671650000000  0.5985940000000  0.5283190000000 1.0
C      1  0.6039920000000  0.5706060000000  0.5121340000000 1.0
C      1  0.6084870000000  0.4379180000000  0.4691170000000 1.0
C      1  0.6107360000000  0.4428030000000  0.4952800000000 1.0
C      1  0.6093400000000  0.5671570000000  0.4863220000000 1.0
C      1  0.4088680000000  0.4431710000000  0.4755370000000 1.0
C      1  0.4156730000000  0.5521440000000  0.5129590000000 1.0
C      1  0.4904250000000  0.5799790000000  0.4166290000000 1.0
C      1  0.4836610000000  0.4298090000000  0.6330670000000 1.0
C      1  0.4938390000000  0.4199720000000  0.4503530000000 1.0
C      1  0.4925270000000  0.5756480000000  0.5573140000000 1.0
C      1  0.4819480000000  0.4875340000000  0.5892530000000 1.0
C      1  0.4811050000000  0.5075080000000  0.4136410000000 1.0
C      1  0.4815770000000  0.4463490000000  0.4861070000000 1.0
C      1  0.4830730000000  0.5558510000000  0.5134570000000 1.0
C      1  0.4443620000000  0.4337870000000  0.4392830000000 1.0
C      1  0.4448380000000  0.5604470000000  0.5558700000000 1.0
C      1  0.5224530000000  0.4801070000000  0.4167370000000 1.0
C      1  0.5244930000000  0.5088430000000  0.5819990000000 1.0
C      1  0.4874060000000  0.4916490000000  0.5321300000000 1.0
C      1  0.4946910000000  0.5026910000000  0.4690170000000 1.0
C      1  0.4893390000000  0.6168430000000  0.5286990000000 1.0
C      1  0.5096980000000  0.4179200000000  0.5111150000000 1.0
C      1  0.5888250000000  0.5454450000000  0.4439560000000 1.0
C      1  0.5721210000000  0.4534280000000  0.5273800000000 1.0
C      1  0.5450200000000  0.4601960000000  0.5290890000000 1.0
C      1  0.5686800000000  0.5311810000000  0.4342020000000 1.0
C      1  0.5320690000000  0.4644080000000  0.4769160000000 1.0
C      1  0.5207660000000  0.5380610000000  0.5354210000000 1.0
C      1  0.4898880000000  0.4485200000000  0.4573510000000 1.0
C      1  0.4931330000000  0.5482800000000  0.5436710000000 1.0
C      1  0.4188150000000  0.4338180000000  0.4521720000000 1.0
C      1  0.4224730000000  0.5588190000000  0.5383010000000 1.0
C      1  0.4695890000000  0.4471270000000  0.5468840000000 1.0
C      1  0.4782410000000  0.5459810000000  0.4499600000000 1.0
C      1  0.4943430000000  0.5323850000000  0.4697710000000 1.0
C      1  0.4882790000000  0.4623260000000  0.5320040000000 1.0
C      1  0.5136170000000  0.5072400000000  0.5370840000000 1.0
C      1  0.5213810000000  0.4886460000000  0.4637250000000 1.0
C      1  0.4543340000000  0.5347190000000  0.5657810000000 1.0
C      1  0.4542560000000  0.4603650000000  0.4335360000000 1.0
C      1  0.4201220000000  0.4774060000000  0.5104110000000 1.0
C      1  0.4384350000000  0.5313990000000  0.4729840000000 1.0
C      1  0.5370510000000  0.5634300000000  0.5459750000000 1.0
C      1  0.5378190000000  0.4392200000000  0.4620630000000 1.0
C      1  0.4671260000000  0.5790620000000  0.5072900000000 1.0
C      1  0.4596290000000  0.4274650000000  0.4925330000000 1.0
C      1  0.4828360000000  0.4607250000000  0.4320680000000 1.0
C      1  0.4833450000000  0.5324090000000  0.5680750000000 1.0
C      1  0.4968460000000  0.4627630000000  0.5923430000000 1.0
C      1  0.4980720000000  0.5314810000000  0.4105010000000 1.0
C      1  0.5013240000000  0.5451150000000  0.4937140000000 1.0
C      1  0.5015430000000  0.4477280000000  0.5096670000000 1.0
C      1  0.4478400000000  0.5078870000000  0.4866670000000 1.0
C      1  0.4407530000000  0.4967850000000  0.5113190000000 1.0
C      1  0.4903240000000  0.4457160000000  0.6135300000000 1.0
C      1  0.4890400000000  0.5542710000000  0.4252800000000 1.0
C      1  0.4188770000000  0.4508480000000  0.5008950000000 1.0
C      1  0.4297190000000  0.5537970000000  0.4883100000000 1.0
C      1  0.5442360000000  0.5195460000000  0.4282350000000 1.0
C      1  0.5343640000000  0.4682880000000  0.5548660000000 1.0
C      1  0.4473460000000  0.4346440000000  0.5382300000000 1.0
C      1  0.4521200000000  0.5340100000000  0.4471610000000 1.0
C      1  0.4553350000000  0.5103790000000  0.4292380000000 1.0
C      1  0.4548420000000  0.4889470000000  0.5801320000000 1.0
END
