TITL C-3201377-4638-119 -1.30304180269998e-07 125000 -29.5266311364178 0 0 18 (C3) n - 1
REM
REM in /home/nfs/bkarasulu/CARBON/AIRSS/Generating-Clusters/LCBOP/Higher-Symm/SD-CG/FIRE-CG
REM
REM
REM
REM
REM
REM ./C.cell (b20cbc046b6831c77cfcea5457e17084)
REM AIRSS Version 0.9.1 bugfix July 2018 build 013d7b7c2542+ Fri, 06 Jul 2018 19:26:36 +0100
REM compiler GCC version 9.2.1 20190827 (Red Hat 9.2.1-1)
REM options -cpp -mtune=generic -march=x86-64 -g -O0 -fpre-include=/usr/include/finclude/math-vector-fortran.h
REM seed 2008010238 138835897 -1150892157 1511237470 -8199526 1132212719 -2053161682 929876010 85187800 -636228049 1890123640 109064408 -1249550525 1620369419 2078840371 1163016932 1555057028 758501110 -1968833052 1239509080 -191681745 1689098456 -1559953711 -130848492 1235746343 1628417063 372990617 1601089459 -1034987583 1951770503 1677311746 -827695406 1952389188
REM
CELL 1.54180   50.00000   50.00000   50.00000   90.00000   90.00000   90.00000
LATT -1
SFAC C  
C      1  0.4616750000000  0.5123420000000  0.5119160000000 1.0
C      1  0.4861730000000  0.5377170000000  0.5115540000000 1.0
C      1  0.5116290000000  0.5124810000000  0.4622170000000 1.0
C      1  0.5114700000000  0.4624840000000  0.5122080000000 1.0
C      1  0.4860910000000  0.5119020000000  0.5373690000000 1.0
C      1  0.5109950000000  0.4870580000000  0.5375300000000 1.0
C      1  0.4863500000000  0.4879880000000  0.4617570000000 1.0
C      1  0.5369130000000  0.5118710000000  0.4867710000000 1.0
C      1  0.4617410000000  0.4874450000000  0.4870190000000 1.0
C      1  0.5367790000000  0.4870020000000  0.5116450000000 1.0
C      1  0.4862620000000  0.4621010000000  0.4876440000000 1.0
C      1  0.5111410000000  0.5378070000000  0.4867740000000 1.0
C      1  0.4987380000000  0.4303260000000  0.4989910000000 1.0
C      1  0.5003450000000  0.5696920000000  0.4994790000000 1.0
C      1  0.4989700000000  0.4992580000000  0.4300170000000 1.0
C      1  0.4297470000000  0.4991460000000  0.4986140000000 1.0
C      1  0.5001170000000  0.4997540000000  0.5693840000000 1.0
C      1  0.5687870000000  0.5010680000000  0.4994920000000 1.0
END
