TITL C-3201375-1262-1284 181322.134506367 125000 -1011.06646383953 0 0 165 (C1) n - 1
REM
REM in /home/nfs/bkarasulu/CARBON/AIRSS/Generating-Clusters/LCBOP/Higher-Symm/SD-CG/FIRE-CG
REM
REM
REM
REM
REM
REM ./C.cell (b20cbc046b6831c77cfcea5457e17084)
REM AIRSS Version 0.9.1 bugfix July 2018 build 013d7b7c2542+ Fri, 06 Jul 2018 19:26:36 +0100
REM compiler GCC version 9.2.1 20190827 (Red Hat 9.2.1-1)
REM options -cpp -mtune=generic -march=x86-64 -g -O0 -fpre-include=/usr/include/finclude/math-vector-fortran.h
REM seed -1980221499 -2052314730 -1025786962 1567599646 1717482807 -697196847 1151897410 1653466204 -662734247 -1614419897 -1794661719 1379334209 -280389044 1558671052 1108065761 -1937256108 162152537 -807641839 -523572050 -1387912704 1379726797 433504068 -343859512 1332567220 1213701763 -1271674867 1800467083 1653661521 1298995507 1916043823 -307187340 992956898 -1998602351
REM
CELL 1.54180   50.00000   50.00000   50.00000   90.00000   90.00000   90.00000
LATT -1
SFAC C  
C      1  0.4026770000000  0.5066250000000  0.5985510000000 1.0
C      1  0.5275290000000  0.4278150000000  0.5993120000000 1.0
C      1  0.5624930000000  0.5652640000000  0.5967010000000 1.0
C      1  0.5179690000000  0.4072420000000  0.5820650000000 1.0
C      1  0.5805110000000  0.5691850000000  0.5753220000000 1.0
C      1  0.3954490000000  0.5251240000000  0.5785090000000 1.0
C      1  0.6021060000000  0.5512520000000  0.5130580000000 1.0
C      1  0.4097260000000  0.5593620000000  0.5207720000000 1.0
C      1  0.4887530000000  0.3888320000000  0.5218000000000 1.0
C      1  0.4790440000000  0.4376230000000  0.4584730000000 1.0
C      1  0.5639120000000  0.5143250000000  0.4488910000000 1.0
C      1  0.4584040000000  0.5469270000000  0.4555050000000 1.0
C      1  0.5176720000000  0.4713810000000  0.5089070000000 1.0
C      1  0.5174240000000  0.5280940000000  0.4986430000000 1.0
C      1  0.4704270000000  0.4981720000000  0.5040410000000 1.0
C      1  0.4613440000000  0.5731020000000  0.4651720000000 1.0
C      1  0.4545450000000  0.4245540000000  0.4629580000000 1.0
C      1  0.5866630000000  0.4988820000000  0.4544340000000 1.0
C      1  0.4862370000000  0.5787620000000  0.4162710000000 1.0
C      1  0.4446640000000  0.4514150000000  0.4127930000000 1.0
C      1  0.5861310000000  0.5052830000000  0.3657410000000 1.0
C      1  0.5843000000000  0.4706430000000  0.4481450000000 1.0
C      1  0.4886220000000  0.5834410000000  0.4636950000000 1.0
C      1  0.4315210000000  0.4393130000000  0.4544790000000 1.0
C      1  0.4195670000000  0.4889210000000  0.4967460000000 1.0
C      1  0.5442740000000  0.4316570000000  0.4984310000000 1.0
C      1  0.5310990000000  0.5764800000000  0.4938540000000 1.0
C      1  0.4944220000000  0.5829290000000  0.5749420000000 1.0
C      1  0.4181170000000  0.4431140000000  0.5691280000000 1.0
C      1  0.5835090000000  0.4686020000000  0.5709230000000 1.0
C      1  0.4176710000000  0.5571390000000  0.4249030000000 1.0
C      1  0.4916520000000  0.3959670000000  0.4294640000000 1.0
C      1  0.5932050000000  0.5561170000000  0.4195650000000 1.0
C      1  0.6066000000000  0.4817330000000  0.4933420000000 1.0
C      1  0.4584670000000  0.5989660000000  0.5040780000000 1.0
C      1  0.4280360000000  0.4116220000000  0.4990680000000 1.0
C      1  0.4214910000000  0.4892510000000  0.4445020000000 1.0
C      1  0.5582640000000  0.4259390000000  0.4420810000000 1.0
C      1  0.5316290000000  0.5781970000000  0.4436430000000 1.0
C      1  0.4066000000000  0.4563700000000  0.5458550000000 1.0
C      1  0.5776230000000  0.4521020000000  0.5482200000000 1.0
C      1  0.5073950000000  0.5911690000000  0.5501380000000 1.0
C      1  0.4831530000000  0.5333810000000  0.5689440000000 1.0
C      1  0.4673650000000  0.4541080000000  0.5696050000000 1.0
C      1  0.5563110000000  0.5082460000000  0.5620900000000 1.0
C      1  0.5054610000000  0.5340830000000  0.4274180000000 1.0
C      1  0.4729090000000  0.4866640000000  0.4326510000000 1.0
C      1  0.5296530000000  0.4753490000000  0.4362290000000 1.0
C      1  0.5178810000000  0.4308660000000  0.4148810000000 1.0
C      1  0.5483210000000  0.5556190000000  0.4052120000000 1.0
C      1  0.4395530000000  0.5186230000000  0.4096910000000 1.0
C      1  0.5064490000000  0.6109940000000  0.5281240000000 1.0
C      1  0.3929110000000  0.4480250000000  0.5207220000000 1.0
C      1  0.5917490000000  0.4399690000000  0.5255870000000 1.0
C      1  0.5481800000000  0.5636790000000  0.4721640000000 1.0
C      1  0.4233570000000  0.5096080000000  0.4755050000000 1.0
C      1  0.5210380000000  0.4207240000000  0.4851160000000 1.0
C      1  0.5685090000000  0.5847170000000  0.5301620000000 1.0
C      1  0.3872820000000  0.5162780000000  0.5307970000000 1.0
C      1  0.5357220000000  0.4025000000000  0.5375280000000 1.0
C      1  0.5488490000000  0.4501680000000  0.5455510000000 1.0
C      1  0.5242560000000  0.5697670000000  0.5414720000000 1.0
C      1  0.4183440000000  0.4825510000000  0.5426740000000 1.0
C      1  0.5705460000000  0.4586230000000  0.5946600000000 1.0
C      1  0.5125500000000  0.5805210000000  0.5968560000000 1.0
C      1  0.4100940000000  0.4553850000000  0.5936150000000 1.0
C      1  0.4298310000000  0.4605010000000  0.4977880000000 1.0
C      1  0.5684530000000  0.4445750000000  0.4854720000000 1.0
C      1  0.5037830000000  0.5883400000000  0.4874090000000 1.0
C      1  0.5285040000000  0.4709800000000  0.5548970000000 1.0
C      1  0.5203550000000  0.5423710000000  0.5452820000000 1.0
C      1  0.4444230000000  0.4896520000000  0.5496660000000 1.0
C      1  0.4985350000000  0.4364220000000  0.4803230000000 1.0
C      1  0.5528600000000  0.5342910000000  0.4681740000000 1.0
C      1  0.4471150000000  0.5269940000000  0.4741470000000 1.0
C      1  0.4412720000000  0.5487150000000  0.4089710000000 1.0
C      1  0.4901470000000  0.4203420000000  0.4126240000000 1.0
C      1  0.5748760000000  0.5449630000000  0.3998930000000 1.0
C      1  0.3865490000000  0.5426500000000  0.5214950000000 1.0
C      1  0.5167960000000  0.3858020000000  0.5250240000000 1.0
C      1  0.5924170000000  0.5775600000000  0.5174680000000 1.0
C      1  0.4058320000000  0.4802660000000  0.6031900000000 1.0
C      1  0.5488040000000  0.4444120000000  0.6027810000000 1.0
C      1  0.5372340000000  0.5719270000000  0.6034630000000 1.0
C      1  0.4920550000000  0.3997790000000  0.5715230000000 1.0
C      1  0.6002930000000  0.5519870000000  0.5637110000000 1.0
C      1  0.4078940000000  0.5497050000000  0.5708290000000 1.0
C      1  0.4618450000000  0.5031250000000  0.5312950000000 1.0
C      1  0.5073590000000  0.4668400000000  0.5357090000000 1.0
C      1  0.5312710000000  0.5274760000000  0.5234130000000 1.0
C      1  0.5836450000000  0.4966860000000  0.5644110000000 1.0
C      1  0.4731330000000  0.5628260000000  0.5726770000000 1.0
C      1  0.4455190000000  0.4332760000000  0.5667260000000 1.0
C      1  0.5426100000000  0.5767420000000  0.5207300000000 1.0
C      1  0.4073930000000  0.4979760000000  0.5216960000000 1.0
C      1  0.5419700000000  0.4285700000000  0.5274040000000 1.0
C      1  0.4566270000000  0.4799040000000  0.5731710000000 1.0
C      1  0.5290090000000  0.4988520000000  0.5675630000000 1.0
C      1  0.5106640000000  0.5239710000000  0.5664040000000 1.0
C      1  0.4185490000000  0.5603620000000  0.4923690000000 1.0
C      1  0.4805690000000  0.3926950000000  0.4940520000000 1.0
C      1  0.5966850000000  0.5432910000000  0.4857460000000 1.0
C      1  0.5977630000000  0.5093400000000  0.5405690000000 1.0
C      1  0.4501640000000  0.5662210000000  0.5529120000000 1.0
C      1  0.4559940000000  0.4175610000000  0.5441400000000 1.0
C      1  0.5321910000000  0.6218130000000  0.5155630000000 1.0
C      1  0.3743430000000  0.4667360000000  0.5065600000000 1.0
C      1  0.5883840000000  0.4114260000000  0.5187750000000 1.0
C      1  0.5196400000000  0.5177910000000  0.4456410000000 1.0
C      1  0.4783670000000  0.5068270000000  0.4518580000000 1.0
C      1  0.5092000000000  0.4721810000000  0.4564600000000 1.0
C      1  0.5729440000000  0.6029420000000  0.4831740000000 1.0
C      1  0.3767550000000  0.5146930000000  0.4804290000000 1.0
C      1  0.5529610000000  0.3851230000000  0.4888860000000 1.0
C      1  0.4696340000000  0.5110050000000  0.4790290000000 1.0
C      1  0.5019830000000  0.4651860000000  0.4856620000000 1.0
C      1  0.5266400000000  0.5235230000000  0.4729100000000 1.0
C      1  0.4131780000000  0.4366810000000  0.5030110000000 1.0
C      1  0.5917570000000  0.4562840000000  0.5010910000000 1.0
C      1  0.4876620000000  0.6026570000000  0.5074500000000 1.0
C      1  0.4169460000000  0.5110680000000  0.4271720000000 1.0
C      1  0.5337910000000  0.4142390000000  0.4334750000000 1.0
C      1  0.5525330000000  0.5760700000000  0.4257720000000 1.0
C      1  0.5767800000000  0.5079100000000  0.5201640000000 1.0
C      1  0.4606300000000  0.5500690000000  0.5315640000000 1.0
C      1  0.4659150000000  0.4387940000000  0.5267330000000 1.0
C      1  0.5812560000000  0.5259830000000  0.3808110000000 1.0
C      1  0.4639770000000  0.5661320000000  0.4062800000000 1.0
C      1  0.4659930000000  0.4349010000000  0.4065710000000 1.0
C      1  0.5153110000000  0.3945690000000  0.4469970000000 1.0
C      1  0.5799210000000  0.5734250000000  0.4387280000000 1.0
C      1  0.4053620000000  0.5358620000000  0.4407180000000 1.0
C      1  0.4841430000000  0.4533520000000  0.5449440000000 1.0
C      1  0.5549940000000  0.5182630000000  0.5346520000000 1.0
C      1  0.4694020000000  0.5264710000000  0.5440880000000 1.0
C      1  0.4792890000000  0.5340340000000  0.4396520000000 1.0
C      1  0.4838080000000  0.4623260000000  0.4431670000000 1.0
C      1  0.5413370000000  0.5008940000000  0.4362650000000 1.0
C      1  0.3700830000000  0.4897700000000  0.4913280000000 1.0
C      1  0.5739510000000  0.3936090000000  0.5032820000000 1.0
C      1  0.5541560000000  0.6181020000000  0.4980260000000 1.0
C      1  0.5222200000000  0.5437570000000  0.4062050000000 1.0
C      1  0.4600800000000  0.4983970000000  0.4096030000000 1.0
C      1  0.5268170000000  0.4576880000000  0.4142300000000 1.0
C      1  0.5424620000000  0.4803540000000  0.5017780000000 1.0
C      1  0.4946820000000  0.5435280000000  0.4985330000000 1.0
C      1  0.4753170000000  0.4717660000000  0.4964520000000 1.0
C      1  0.4296350000000  0.4618080000000  0.4364740000000 1.0
C      1  0.5712420000000  0.4464750000000  0.4568990000000 1.0
C      1  0.5034760000000  0.5821670000000  0.4394830000000 1.0
C      1  0.6015560000000  0.5084030000000  0.4779020000000 1.0
C      1  0.4424020000000  0.5800460000000  0.4866730000000 1.0
C      1  0.4540650000000  0.4054930000000  0.4852970000000 1.0
C      1  0.6059550000000  0.5371290000000  0.5393730000000 1.0
C      1  0.4213430000000  0.5632130000000  0.5489260000000 1.0
C      1  0.4759940000000  0.3974590000000  0.5470120000000 1.0
C      1  0.4022330000000  0.5320310000000  0.4721450000000 1.0
C      1  0.5149630000000  0.3951860000000  0.4758950000000 1.0
C      1  0.5778620000000  0.5730640000000  0.4700340000000 1.0
C      1  0.4564960000000  0.4541250000000  0.5054040000000 1.0
C      1  0.5653220000000  0.4929510000000  0.5003000000000 1.0
C      1  0.4736420000000  0.5552960000000  0.5085640000000 1.0
C      1  0.5721180000000  0.5897570000000  0.5576020000000 1.0
C      1  0.3792430000000  0.5140960000000  0.5578300000000 1.0
C      1  0.5386770000000  0.3978070000000  0.5650050000000 1.0
END
