TITL C-3201374-830-710 -0.0079558181378897 125000 -373.828869333803 0 0 61 (C1) n - 1
REM
REM in /home/nfs/bkarasulu/CARBON/AIRSS/Generating-Clusters/LCBOP/Higher-Symm/SD-CG/FIRE-CG
REM
REM
REM
REM
REM
REM ./C.cell (b20cbc046b6831c77cfcea5457e17084)
REM AIRSS Version 0.9.1 bugfix July 2018 build 013d7b7c2542+ Fri, 06 Jul 2018 19:26:36 +0100
REM compiler GCC version 9.2.1 20190827 (Red Hat 9.2.1-1)
REM options -cpp -mtune=generic -march=x86-64 -g -O0 -fpre-include=/usr/include/finclude/math-vector-fortran.h
REM seed 1923729980 -1963863371 630213975 -362010133 1391943147 367700733 2139940268 -711666098 544083522 -1083613512 -944157544 218891170 -931938864 -461747739 -246442007 -1074792455 -1175788558 2003984945 1479867034 -1290821020 1192130992 -911482814 -974167484 -452918172 -503694224 1009071468 916199838 164183313 1339664457 -659775081 -9461315 -1049717776 -2050300184
REM
CELL 1.54180   50.00000   50.00000   50.00000   90.00000   90.00000   90.00000
LATT -1
SFAC C  
C      1  0.4838070000000  0.5213650000000  0.5107180000000 1.0
C      1  0.4907020000000  0.5639360000000  0.5717500000000 1.0
C      1  0.5361440000000  0.4666010000000  0.4518910000000 1.0
C      1  0.4394280000000  0.5733830000000  0.4920860000000 1.0
C      1  0.5800470000000  0.4951650000000  0.5031480000000 1.0
C      1  0.4319250000000  0.4937470000000  0.5417480000000 1.0
C      1  0.5670930000000  0.5053050000000  0.5270030000000 1.0
C      1  0.4847500000000  0.5172860000000  0.4430180000000 1.0
C      1  0.5371530000000  0.4608880000000  0.5291730000000 1.0
C      1  0.4504010000000  0.5736030000000  0.4677150000000 1.0
C      1  0.5100650000000  0.5452190000000  0.5754820000000 1.0
C      1  0.4963150000000  0.4933110000000  0.4403080000000 1.0
C      1  0.5019810000000  0.4728540000000  0.5581600000000 1.0
C      1  0.4986090000000  0.5449500000000  0.5040470000000 1.0
C      1  0.5558640000000  0.4407730000000  0.5275870000000 1.0
C      1  0.5190810000000  0.5551340000000  0.5209880000000 1.0
C      1  0.4603280000000  0.3837570000000  0.4534080000000 1.0
C      1  0.4400880000000  0.3861950000000  0.4707360000000 1.0
C      1  0.5392270000000  0.5127610000000  0.4838480000000 1.0
C      1  0.4897870000000  0.4476430000000  0.4545090000000 1.0
C      1  0.5444500000000  0.5510360000000  0.5293680000000 1.0
C      1  0.5831180000000  0.4582120000000  0.4743210000000 1.0
C      1  0.5079990000000  0.4688010000000  0.4481900000000 1.0
C      1  0.5609180000000  0.4734340000000  0.4634610000000 1.0
C      1  0.5424960000000  0.5492790000000  0.4478560000000 1.0
C      1  0.5321390000000  0.5669640000000  0.4303800000000 1.0
C      1  0.4296530000000  0.4039600000000  0.4878050000000 1.0
C      1  0.4905580000000  0.4699550000000  0.5143480000000 1.0
C      1  0.4535550000000  0.5745840000000  0.5396590000000 1.0
C      1  0.5251210000000  0.5011840000000  0.5060280000000 1.0
C      1  0.4657930000000  0.5584570000000  0.5594550000000 1.0
C      1  0.5404790000000  0.4916510000000  0.5318860000000 1.0
C      1  0.4849690000000  0.5421300000000  0.4561850000000 1.0
C      1  0.5047400000000  0.5450160000000  0.4763540000000 1.0
C      1  0.4340060000000  0.4285680000000  0.4973510000000 1.0
C      1  0.4534460000000  0.4753790000000  0.5420940000000 1.0
C      1  0.4922390000000  0.4218460000000  0.4436760000000 1.0
C      1  0.4807080000000  0.3977400000000  0.4432020000000 1.0
C      1  0.4244720000000  0.5404780000000  0.5258600000000 1.0
C      1  0.5715060000000  0.4194030000000  0.5284920000000 1.0
C      1  0.5086550000000  0.4581960000000  0.5337560000000 1.0
C      1  0.4348900000000  0.5217360000000  0.5443330000000 1.0
C      1  0.4972770000000  0.4966900000000  0.5072170000000 1.0
C      1  0.5942000000000  0.4707320000000  0.4966100000000 1.0
C      1  0.5216820000000  0.4965070000000  0.5576490000000 1.0
C      1  0.5627850000000  0.4985140000000  0.4788500000000 1.0
C      1  0.4525660000000  0.4494340000000  0.4956560000000 1.0
C      1  0.4659060000000  0.5989510000000  0.4142710000000 1.0
C      1  0.4630610000000  0.4635450000000  0.5177530000000 1.0
C      1  0.5091150000000  0.5791210000000  0.4239570000000 1.0
C      1  0.4369550000000  0.5649750000000  0.5186640000000 1.0
C      1  0.4703510000000  0.5655500000000  0.4496120000000 1.0
C      1  0.4575790000000  0.5305250000000  0.5601860000000 1.0
C      1  0.4813850000000  0.5818320000000  0.4288580000000 1.0
C      1  0.4746030000000  0.4826720000000  0.5609730000000 1.0
C      1  0.5058420000000  0.5182230000000  0.5687870000000 1.0
C      1  0.4675720000000  0.4520460000000  0.4715700000000 1.0
C      1  0.5874310000000  0.3987650000000  0.5286530000000 1.0
C      1  0.5648270000000  0.5333620000000  0.5321070000000 1.0
C      1  0.4771880000000  0.5109290000000  0.5676020000000 1.0
C      1  0.5309670000000  0.5357440000000  0.4696350000000 1.0
END
