TITL C-3201372-1405-98 13562.9670702681 125000 -1045.42338216288 0 0 172 (C1) n - 1
REM
REM in /home/nfs/bkarasulu/CARBON/AIRSS/Generating-Clusters/LCBOP/Higher-Symm/SD-CG/FIRE-CG
REM
REM
REM
REM
REM
REM ./C.cell (b20cbc046b6831c77cfcea5457e17084)
REM AIRSS Version 0.9.1 bugfix July 2018 build 013d7b7c2542+ Fri, 06 Jul 2018 19:26:36 +0100
REM compiler GCC version 9.2.1 20190827 (Red Hat 9.2.1-1)
REM options -cpp -mtune=generic -march=x86-64 -g -O0 -fpre-include=/usr/include/finclude/math-vector-fortran.h
REM seed -372411771 -1559978709 1809103782 1083580354 -511564541 -1007917204 1613337322 759641245 1178147052 -572239334 -1456166239 888517752 -896600579 168479870 -218336401 -1763176107 -376936853 -1760238356 -465483000 -1232060623 1933935207 2031004479 -284525539 117096145 1449239265 827399068 1730728518 -1681032716 909607765 -576406895 -2060037440 384882457 -1803588797
REM
CELL 1.54180   50.00000   50.00000   50.00000   90.00000   90.00000   90.00000
LATT -1
SFAC C  
C      1  0.3900040000000  0.4398970000000  0.4165270000000 1.0
C      1  0.3963620000000  0.5626830000000  0.5907000000000 1.0
C      1  0.6094900000000  0.5731950000000  0.4199760000000 1.0
C      1  0.5966580000000  0.4458830000000  0.5915680000000 1.0
C      1  0.5253590000000  0.3873190000000  0.4594730000000 1.0
C      1  0.5234390000000  0.6124920000000  0.5331850000000 1.0
C      1  0.4761540000000  0.6090380000000  0.4614380000000 1.0
C      1  0.4762420000000  0.3906150000000  0.5312270000000 1.0
C      1  0.4900670000000  0.4530710000000  0.4681430000000 1.0
C      1  0.4981110000000  0.5430780000000  0.5289780000000 1.0
C      1  0.5094850000000  0.5435020000000  0.4769710000000 1.0
C      1  0.5060030000000  0.4611660000000  0.5147650000000 1.0
C      1  0.5216320000000  0.5298050000000  0.5348620000000 1.0
C      1  0.5138700000000  0.4648220000000  0.4583900000000 1.0
C      1  0.4820620000000  0.4752810000000  0.5207630000000 1.0
C      1  0.4869590000000  0.5312420000000  0.4653470000000 1.0
C      1  0.5482000000000  0.5792610000000  0.4160430000000 1.0
C      1  0.5314600000000  0.4205760000000  0.5812290000000 1.0
C      1  0.4553180000000  0.4140650000000  0.4132950000000 1.0
C      1  0.4591480000000  0.5886330000000  0.5850290000000 1.0
C      1  0.4057150000000  0.5630810000000  0.5311120000000 1.0
C      1  0.4026880000000  0.4279710000000  0.4762630000000 1.0
C      1  0.5916060000000  0.4342760000000  0.5317680000000 1.0
C      1  0.5960560000000  0.5725040000000  0.4793710000000 1.0
C      1  0.5378320000000  0.4644780000000  0.6041280000000 1.0
C      1  0.5559930000000  0.5310510000000  0.4030480000000 1.0
C      1  0.4561650000000  0.5423450000000  0.6053160000000 1.0
C      1  0.4482430000000  0.4617800000000  0.3999600000000 1.0
C      1  0.4887090000000  0.6326860000000  0.5051520000000 1.0
C      1  0.4922110000000  0.3641330000000  0.4868350000000 1.0
C      1  0.5389210000000  0.3620290000000  0.4986490000000 1.0
C      1  0.5348120000000  0.6377010000000  0.4912410000000 1.0
C      1  0.4256220000000  0.5579240000000  0.5511300000000 1.0
C      1  0.4203630000000  0.4337740000000  0.4546170000000 1.0
C      1  0.5708350000000  0.4430650000000  0.5496800000000 1.0
C      1  0.5757700000000  0.5694660000000  0.4585770000000 1.0
C      1  0.6145860000000  0.3849250000000  0.4821910000000 1.0
C      1  0.6225040000000  0.6154640000000  0.5323090000000 1.0
C      1  0.3857620000000  0.6139590000000  0.4816110000000 1.0
C      1  0.3786300000000  0.3814450000000  0.5271630000000 1.0
C      1  0.4611500000000  0.4126330000000  0.4757480000000 1.0
C      1  0.4621200000000  0.5756960000000  0.5220550000000 1.0
C      1  0.5379370000000  0.5814620000000  0.4872050000000 1.0
C      1  0.5363150000000  0.4242610000000  0.5179710000000 1.0
C      1  0.5460820000000  0.3747480000000  0.5210350000000 1.0
C      1  0.5462120000000  0.6351140000000  0.4670400000000 1.0
C      1  0.4686890000000  0.6258670000000  0.5235350000000 1.0
C      1  0.4722890000000  0.3653090000000  0.4669760000000 1.0
C      1  0.5058070000000  0.4295690000000  0.5100620000000 1.0
C      1  0.5070080000000  0.5734460000000  0.4874380000000 1.0
C      1  0.4935530000000  0.5717360000000  0.5173500000000 1.0
C      1  0.4923600000000  0.4235910000000  0.4793260000000 1.0
C      1  0.5454690000000  0.5074090000000  0.3961910000000 1.0
C      1  0.5309400000000  0.4901560000000  0.6067020000000 1.0
C      1  0.4582510000000  0.4865180000000  0.3969080000000 1.0
C      1  0.4608010000000  0.5159530000000  0.6049270000000 1.0
C      1  0.4669520000000  0.5264830000000  0.5401930000000 1.0
C      1  0.4625780000000  0.4604410000000  0.4639130000000 1.0
C      1  0.5323420000000  0.4748460000000  0.5292840000000 1.0
C      1  0.5368180000000  0.5380490000000  0.4685980000000 1.0
C      1  0.5194060000000  0.3680130000000  0.4793730000000 1.0
C      1  0.5165100000000  0.6299400000000  0.5115240000000 1.0
C      1  0.4816720000000  0.6306990000000  0.4780540000000 1.0
C      1  0.4850890000000  0.3712270000000  0.5131120000000 1.0
C      1  0.4168700000000  0.4969680000000  0.5500770000000 1.0
C      1  0.4250260000000  0.4992590000000  0.4744750000000 1.0
C      1  0.5847760000000  0.5003130000000  0.5262650000000 1.0
C      1  0.5755360000000  0.4988950000000  0.4646600000000 1.0
C      1  0.5050420000000  0.4198030000000  0.4260860000000 1.0
C      1  0.5059970000000  0.5810080000000  0.5681970000000 1.0
C      1  0.4976200000000  0.5741620000000  0.4327190000000 1.0
C      1  0.4844640000000  0.4305120000000  0.5593420000000 1.0
C      1  0.5543530000000  0.6236300000000  0.4441880000000 1.0
C      1  0.5411210000000  0.3988540000000  0.5343490000000 1.0
C      1  0.4595270000000  0.3883950000000  0.4572160000000 1.0
C      1  0.4574530000000  0.6030080000000  0.5353720000000 1.0
C      1  0.4423830000000  0.5094140000000  0.5486300000000 1.0
C      1  0.4473850000000  0.4838560000000  0.4665790000000 1.0
C      1  0.5594250000000  0.4881170000000  0.5229150000000 1.0
C      1  0.5523010000000  0.5149690000000  0.4661240000000 1.0
C      1  0.4442580000000  0.5455970000000  0.4858200000000 1.0
C      1  0.4318510000000  0.4593410000000  0.5215800000000 1.0
C      1  0.5576890000000  0.4518250000000  0.4793320000000 1.0
C      1  0.5669160000000  0.5438040000000  0.5200270000000 1.0
C      1  0.5042800000000  0.4257670000000  0.5786220000000 1.0
C      1  0.5204800000000  0.5764100000000  0.4170450000000 1.0
C      1  0.4869620000000  0.5892760000000  0.5868730000000 1.0
C      1  0.4828610000000  0.4165590000000  0.4094440000000 1.0
C      1  0.5459040000000  0.5446620000000  0.5381680000000 1.0
C      1  0.5392180000000  0.4516650000000  0.4583460000000 1.0
C      1  0.4574880000000  0.4635600000000  0.5162630000000 1.0
C      1  0.4615580000000  0.5439880000000  0.4641400000000 1.0
C      1  0.4407480000000  0.4066360000000  0.4973820000000 1.0
C      1  0.4415670000000  0.5699240000000  0.5003020000000 1.0
C      1  0.5592520000000  0.5937690000000  0.5014060000000 1.0
C      1  0.5584480000000  0.4296380000000  0.4974070000000 1.0
C      1  0.3822420000000  0.5479630000000  0.5332730000000 1.0
C      1  0.3834020000000  0.4475860000000  0.4815240000000 1.0
C      1  0.6168410000000  0.4461170000000  0.5343840000000 1.0
C      1  0.6137240000000  0.5503980000000  0.4730790000000 1.0
C      1  0.4613290000000  0.4670950000000  0.5839360000000 1.0
C      1  0.4760800000000  0.5363520000000  0.4036570000000 1.0
C      1  0.5232690000000  0.5413350000000  0.5949890000000 1.0
C      1  0.5265720000000  0.4579340000000  0.3981230000000 1.0
C      1  0.4489520000000  0.3930370000000  0.4313540000000 1.0
C      1  0.4493600000000  0.6032840000000  0.5626410000000 1.0
C      1  0.5572710000000  0.6045250000000  0.4254760000000 1.0
C      1  0.5411540000000  0.4014120000000  0.5626540000000 1.0
C      1  0.4474270000000  0.4365890000000  0.4624620000000 1.0
C      1  0.4528270000000  0.5535150000000  0.5418250000000 1.0
C      1  0.5499820000000  0.5632380000000  0.4677590000000 1.0
C      1  0.5443780000000  0.4474610000000  0.5383200000000 1.0
C      1  0.5348490000000  0.4829960000000  0.3931360000000 1.0
C      1  0.5260510000000  0.5162380000000  0.6037160000000 1.0
C      1  0.4681070000000  0.5115200000000  0.3969460000000 1.0
C      1  0.4620910000000  0.4903990000000  0.5970510000000 1.0
C      1  0.4930560000000  0.5095940000000  0.4490270000000 1.0
C      1  0.4877900000000  0.4985660000000  0.5351270000000 1.0
C      1  0.5096750000000  0.4892270000000  0.4458070000000 1.0
C      1  0.5163400000000  0.5018410000000  0.5382830000000 1.0
C      1  0.5070600000000  0.4090600000000  0.4541500000000 1.0
C      1  0.5065150000000  0.5899030000000  0.5399280000000 1.0
C      1  0.4946070000000  0.5870170000000  0.4597480000000 1.0
C      1  0.4877960000000  0.4171560000000  0.5332530000000 1.0
C      1  0.5263940000000  0.4364450000000  0.4162860000000 1.0
C      1  0.5259510000000  0.5626010000000  0.5769580000000 1.0
C      1  0.4762540000000  0.5576610000000  0.4222020000000 1.0
C      1  0.4606620000000  0.4425000000000  0.5702660000000 1.0
C      1  0.5642200000000  0.5550640000000  0.4152910000000 1.0
C      1  0.5480400000000  0.4416720000000  0.5911770000000 1.0
C      1  0.4386170000000  0.4372800000000  0.4105240000000 1.0
C      1  0.4448930000000  0.5653830000000  0.5936020000000 1.0
C      1  0.5982350000000  0.5074980000000  0.4494970000000 1.0
C      1  0.6056740000000  0.4938150000000  0.5444150000000 1.0
C      1  0.3984570000000  0.4945090000000  0.4653370000000 1.0
C      1  0.3933040000000  0.5072940000000  0.5621190000000 1.0
C      1  0.4208540000000  0.5612110000000  0.5788800000000 1.0
C      1  0.4150470000000  0.4372030000000  0.4269360000000 1.0
C      1  0.5731700000000  0.4439330000000  0.5779210000000 1.0
C      1  0.5880920000000  0.5564190000000  0.4336970000000 1.0
C      1  0.6091910000000  0.5084900000000  0.5672510000000 1.0
C      1  0.6129390000000  0.4895990000000  0.4349500000000 1.0
C      1  0.3858430000000  0.4997710000000  0.5872920000000 1.0
C      1  0.3880110000000  0.5096780000000  0.4450950000000 1.0
C      1  0.6056050000000  0.6034990000000  0.5164850000000 1.0
C      1  0.6001380000000  0.4028720000000  0.4943660000000 1.0
C      1  0.3951720000000  0.3946280000000  0.5119410000000 1.0
C      1  0.3994850000000  0.5958230000000  0.4943320000000 1.0
C      1  0.4505770000000  0.6051650000000  0.4500680000000 1.0
C      1  0.4533500000000  0.3855470000000  0.5470100000000 1.0
C      1  0.5512000000000  0.3901060000000  0.4483050000000 1.0
C      1  0.5486300000000  0.6112640000000  0.5463010000000 1.0
C      1  0.3833420000000  0.4739440000000  0.4769760000000 1.0
C      1  0.3779000000000  0.5252580000000  0.5468800000000 1.0
C      1  0.6047980000000  0.5349490000000  0.4493710000000 1.0
C      1  0.6222610000000  0.4719210000000  0.5389090000000 1.0
C      1  0.4544950000000  0.5579190000000  0.4404570000000 1.0
C      1  0.4384330000000  0.4251310000000  0.5713550000000 1.0
C      1  0.5471890000000  0.4367360000000  0.4354650000000 1.0
C      1  0.5483180000000  0.5632100000000  0.5595850000000 1.0
C      1  0.4141650000000  0.4726170000000  0.5364010000000 1.0
C      1  0.4292890000000  0.5223430000000  0.4899470000000 1.0
C      1  0.5861310000000  0.5260150000000  0.5152300000000 1.0
C      1  0.5753260000000  0.4737390000000  0.4776120000000 1.0
C      1  0.4365400000000  0.3998270000000  0.5623440000000 1.0
C      1  0.4397020000000  0.5818920000000  0.4416420000000 1.0
C      1  0.5602260000000  0.5887980000000  0.5563640000000 1.0
C      1  0.5619850000000  0.4128720000000  0.4384150000000 1.0
C      1  0.5877590000000  0.5901780000000  0.4999110000000 1.0
C      1  0.5841900000000  0.4215300000000  0.5073520000000 1.0
C      1  0.4123630000000  0.4094020000000  0.4958460000000 1.0
C      1  0.4146780000000  0.5770000000000  0.5079150000000 1.0
END
