TITL C-3201373-1215-1687 8249.9924736118 125000 -466.134730368976 0 0 83 (C1) n - 1
REM
REM in /home/nfs/bkarasulu/CARBON/AIRSS/Generating-Clusters/LCBOP/Higher-Symm/SD-CG/FIRE-CG
REM
REM
REM
REM
REM
REM ./C.cell (b20cbc046b6831c77cfcea5457e17084)
REM AIRSS Version 0.9.1 bugfix July 2018 build 013d7b7c2542+ Fri, 06 Jul 2018 19:26:36 +0100
REM compiler GCC version 9.2.1 20190827 (Red Hat 9.2.1-1)
REM options -cpp -mtune=generic -march=x86-64 -g -O0 -fpre-include=/usr/include/finclude/math-vector-fortran.h
REM seed -960735407 71955644 -397746304 90975083 -1258951593 -342578122 182192632 1418228979 1877098263 96879640 1285057185 1779895121 1972069972 -1828014448 1817233050 -619570070 -2008569951 146154616 -1400603408 3977972 783260955 315278590 -630427536 1053854378 -596555925 2037735029 -849134370 987490366 -1599252186 -884122206 -1431734858 -1612121849 -1522085088
REM
CELL 1.54180   50.00000   50.00000   50.00000   90.00000   90.00000   90.00000
LATT -1
SFAC C  
C      1  0.4921160000000  0.4153770000000  0.5301360000000 1.0
C      1  0.5269050000000  0.4195890000000  0.5363780000000 1.0
C      1  0.5522470000000  0.4240260000000  0.5117260000000 1.0
C      1  0.5482490000000  0.4212610000000  0.4752240000000 1.0
C      1  0.5165150000000  0.4164300000000  0.4580170000000 1.0
C      1  0.4836900000000  0.4126230000000  0.4744950000000 1.0
C      1  0.4761650000000  0.4148330000000  0.5040230000000 1.0
C      1  0.5221110000000  0.4661320000000  0.4884500000000 1.0
C      1  0.5000370000000  0.4783850000000  0.4702880000000 1.0
C      1  0.4730760000000  0.4696560000000  0.4776750000000 1.0
C      1  0.4636990000000  0.4788650000000  0.5052880000000 1.0
C      1  0.4814670000000  0.4721960000000  0.5311050000000 1.0
C      1  0.5096220000000  0.4731080000000  0.5363680000000 1.0
C      1  0.5288460000000  0.4804280000000  0.5149380000000 1.0
C      1  0.5441020000000  0.4909270000000  0.4483310000000 1.0
C      1  0.4979150000000  0.5035060000000  0.4244150000000 1.0
C      1  0.4477080000000  0.5071100000000  0.4472000000000 1.0
C      1  0.4175550000000  0.5067000000000  0.4948400000000 1.0
C      1  0.4396840000000  0.5121040000000  0.5432920000000 1.0
C      1  0.4802150000000  0.5046750000000  0.5774920000000 1.0
C      1  0.5733150000000  0.5003370000000  0.5158950000000 1.0
C      1  0.4604020000000  0.5321610000000  0.4566580000000 1.0
C      1  0.4367870000000  0.5280040000000  0.4964470000000 1.0
C      1  0.4549310000000  0.5372470000000  0.5378820000000 1.0
C      1  0.5001700000000  0.5217380000000  0.5651180000000 1.0
C      1  0.5546940000000  0.5185720000000  0.5289420000000 1.0
C      1  0.5477200000000  0.5197980000000  0.4617970000000 1.0
C      1  0.5061340000000  0.5238090000000  0.4428800000000 1.0
C      1  0.4816670000000  0.5368960000000  0.5255240000000 1.0
C      1  0.5035250000000  0.5216440000000  0.5362560000000 1.0
C      1  0.5272270000000  0.5121790000000  0.5166890000000 1.0
C      1  0.5268830000000  0.5178090000000  0.4862220000000 1.0
C      1  0.5017630000000  0.5104520000000  0.4707310000000 1.0
C      1  0.4793700000000  0.5266990000000  0.4804360000000 1.0
C      1  0.4610470000000  0.5108540000000  0.4985870000000 1.0
C      1  0.4566300000000  0.5868140000000  0.5448970000000 1.0
C      1  0.5082550000000  0.5720090000000  0.5657940000000 1.0
C      1  0.5583630000000  0.5670580000000  0.5405910000000 1.0
C      1  0.5669370000000  0.5590040000000  0.4836900000000 1.0
C      1  0.5311330000000  0.5657090000000  0.4420540000000 1.0
C      1  0.4736230000000  0.5796440000000  0.4433070000000 1.0
C      1  0.4433370000000  0.5805170000000  0.4909520000000 1.0
C      1  0.4592020000000  0.4514730000000  0.4609310000000 1.0
C      1  0.4426070000000  0.4554270000000  0.5093680000000 1.0
C      1  0.4691060000000  0.4534420000000  0.5495090000000 1.0
C      1  0.5213310000000  0.4609260000000  0.5591930000000 1.0
C      1  0.5597000000000  0.4746270000000  0.5176790000000 1.0
C      1  0.5470890000000  0.4686280000000  0.4679050000000 1.0
C      1  0.5072360000000  0.4633790000000  0.4431220000000 1.0
C      1  0.5065060000000  0.5471590000000  0.5762390000000 1.0
C      1  0.5622060000000  0.5407960000000  0.5436890000000 1.0
C      1  0.5714060000000  0.5315990000000  0.4762000000000 1.0
C      1  0.5313170000000  0.5378160000000  0.4428450000000 1.0
C      1  0.4609970000000  0.5560570000000  0.4420700000000 1.0
C      1  0.4332770000000  0.5556480000000  0.4933180000000 1.0
C      1  0.4464520000000  0.5621180000000  0.5482900000000 1.0
C      1  0.5397220000000  0.5799970000000  0.5246740000000 1.0
C      1  0.5458240000000  0.5769460000000  0.4904380000000 1.0
C      1  0.5235420000000  0.5823570000000  0.4628850000000 1.0
C      1  0.4883410000000  0.5905900000000  0.4639120000000 1.0
C      1  0.4673500000000  0.5946500000000  0.4935860000000 1.0
C      1  0.4775520000000  0.5943500000000  0.5281810000000 1.0
C      1  0.5093380000000  0.5855740000000  0.5411750000000 1.0
C      1  0.5207170000000  0.4847190000000  0.4285930000000 1.0
C      1  0.4685520000000  0.4974490000000  0.4271140000000 1.0
C      1  0.4243020000000  0.4976360000000  0.4660140000000 1.0
C      1  0.4182800000000  0.4999140000000  0.5242940000000 1.0
C      1  0.4542870000000  0.5008740000000  0.5655190000000 1.0
C      1  0.4858960000000  0.4924540000000  0.6013950000000 1.0
C      1  0.5850210000000  0.5127420000000  0.4931060000000 1.0
C      1  0.4643320000000  0.4250520000000  0.4579210000000 1.0
C      1  0.4504910000000  0.4290480000000  0.5075130000000 1.0
C      1  0.4766900000000  0.4273160000000  0.5510480000000 1.0
C      1  0.5307320000000  0.4355360000000  0.5589720000000 1.0
C      1  0.5670520000000  0.4472850000000  0.5177180000000 1.0
C      1  0.5605130000000  0.4439880000000  0.4646330000000 1.0
C      1  0.5117240000000  0.4361350000000  0.4392770000000 1.0
C      1  0.4882330000000  0.5485790000000  0.4999240000000 1.0
C      1  0.5100700000000  0.5997510000000  0.5001680000000 1.0
C      1  0.5215380000000  0.3750140000000  0.4990790000000 1.0
C      1  0.5178490000000  0.4008760000000  0.4984210000000 1.0
C      1  0.5134580000000  0.4359890000000  0.4965930000000 1.0
C      1  0.5037880000000  0.5722860000000  0.5001810000000 1.0
END
