TITL C-3201372-1405-594 -1.13475096276141e-06 125000 -591.856392880998 0 0 95 (C3) n - 1
REM
REM in /home/nfs/bkarasulu/CARBON/AIRSS/Generating-Clusters/LCBOP/Higher-Symm/SD-CG/FIRE-CG
REM
REM
REM
REM
REM
REM ./C.cell (b20cbc046b6831c77cfcea5457e17084)
REM AIRSS Version 0.9.1 bugfix July 2018 build 013d7b7c2542+ Fri, 06 Jul 2018 19:26:36 +0100
REM compiler GCC version 9.2.1 20190827 (Red Hat 9.2.1-1)
REM options -cpp -mtune=generic -march=x86-64 -g -O0 -fpre-include=/usr/include/finclude/math-vector-fortran.h
REM seed -2108956530 -2028328949 -527442431 -163625466 1975750844 -929129441 525742269 -1453320066 -1973027414 884193269 865097635 1983601726 -336867173 1739787310 -333141621 1096179363 -778439857 2026266047 1907264053 -1034015266 2073992980 -478819913 -1499375408 -716976170 -958594342 -1102206507 525501823 -1754305515 -2098156614 20411409 1571698476 677579904 186073994
REM
CELL 1.54180   50.00000   50.00000   50.00000   90.00000   90.00000   90.00000
LATT -1
SFAC C  
C      1  0.4511840000000  0.4760700000000  0.5814970000000 1.0
C      1  0.5952840000000  0.4760700000000  0.5015910000000 1.0
C      1  0.4540330000000  0.4760740000000  0.4167500000000 1.0
C      1  0.4516200000000  0.5251540000000  0.5828560000000 1.0
C      1  0.5962430000000  0.5251540000000  0.5005360000000 1.0
C      1  0.4526410000000  0.5251580000000  0.4164490000000 1.0
C      1  0.4626220000000  0.5599730000000  0.4537090000000 1.0
C      1  0.4788970000000  0.5599710000000  0.5555840000000 1.0
C      1  0.5589860000000  0.5599710000000  0.4905510000000 1.0
C      1  0.4630650000000  0.4407520000000  0.4535460000000 1.0
C      1  0.4785350000000  0.4407490000000  0.5552760000000 1.0
C      1  0.5589010000000  0.4407500000000  0.4910140000000 1.0
C      1  0.4597110000000  0.5691010000000  0.5344110000000 1.0
C      1  0.5502430000000  0.5691010000000  0.5177530000000 1.0
C      1  0.4905510000000  0.5691030000000  0.4476800000000 1.0
C      1  0.4598530000000  0.4322770000000  0.5335500000000 1.0
C      1  0.5494260000000  0.4322760000000  0.5180550000000 1.0
C      1  0.4912210000000  0.4322780000000  0.4482300000000 1.0
C      1  0.5465450000000  0.4851240000000  0.4999420000000 1.0
C      1  0.4769750000000  0.4851260000000  0.4597840000000 1.0
C      1  0.4769820000000  0.4851240000000  0.5401120000000 1.0
C      1  0.5482210000000  0.5152230000000  0.5009890000000 1.0
C      1  0.4770430000000  0.5152250000000  0.4578110000000 1.0
C      1  0.4752390000000  0.5152230000000  0.5410410000000 1.0
C      1  0.5058840000000  0.5710760000000  0.5568600000000 1.0
C      1  0.5465980000000  0.5710770000000  0.4665420000000 1.0
C      1  0.4480230000000  0.5710780000000  0.4764420000000 1.0
C      1  0.5053530000000  0.4294580000000  0.5571400000000 1.0
C      1  0.5471060000000  0.4294600000000  0.4668560000000 1.0
C      1  0.4480410000000  0.4294610000000  0.4758390000000 1.0
C      1  0.5028000000000  0.5928020000000  0.4579400000000 1.0
C      1  0.4624720000000  0.5928010000000  0.5186740000000 1.0
C      1  0.5352330000000  0.5928000000000  0.5232320000000 1.0
C      1  0.5032380000000  0.4082830000000  0.4580850000000 1.0
C      1  0.4623790000000  0.4082820000000  0.5182140000000 1.0
C      1  0.5348820000000  0.4082810000000  0.5235350000000 1.0
C      1  0.5698040000000  0.5156770000000  0.4601250000000 1.0
C      1  0.4308620000000  0.5156790000000  0.4595510000000 1.0
C      1  0.4998360000000  0.5156760000000  0.5801650000000 1.0
C      1  0.5701980000000  0.4849520000000  0.4602360000000 1.0
C      1  0.4307620000000  0.4849540000000  0.4591530000000 1.0
C      1  0.4995420000000  0.4849500000000  0.5804500000000 1.0
C      1  0.5272750000000  0.4479900000000  0.5623980000000 1.0
C      1  0.5406980000000  0.4479920000000  0.4452430000000 1.0
C      1  0.4325270000000  0.4479930000000  0.4921960000000 1.0
C      1  0.5279940000000  0.5527110000000  0.5620610000000 1.0
C      1  0.5400470000000  0.5527130000000  0.4447930000000 1.0
C      1  0.4324630000000  0.5527140000000  0.4929890000000 1.0
C      1  0.5066910000000  0.4844540000000  0.5278270000000 1.0
C      1  0.5210510000000  0.4844550000000  0.4803570000000 1.0
C      1  0.4727610000000  0.4844550000000  0.4916550000000 1.0
C      1  0.5084540000000  0.5187660000000  0.5268710000000 1.0
C      1  0.5193410000000  0.5187670000000  0.4793090000000 1.0
C      1  0.4727080000000  0.5187670000000  0.4936610000000 1.0
C      1  0.4589070000000  0.4769980000000  0.5173920000000 1.0
C      1  0.5359060000000  0.4769970000000  0.5269560000000 1.0
C      1  0.5056890000000  0.4769990000000  0.4554900000000 1.0
C      1  0.4589010000000  0.5246910000000  0.5188920000000 1.0
C      1  0.5372080000000  0.5246900000000  0.5262130000000 1.0
C      1  0.5043950000000  0.5246920000000  0.4547370000000 1.0
C      1  0.5466230000000  0.4865310000000  0.5891290000000 1.0
C      1  0.5541740000000  0.4865340000000  0.4151230000000 1.0
C      1  0.3997040000000  0.4865340000000  0.4955870000000 1.0
C      1  0.5468820000000  0.5137650000000  0.5887240000000 1.0
C      1  0.5536930000000  0.5137690000000  0.4151030000000 1.0
C      1  0.3999280000000  0.5137690000000  0.4960140000000 1.0
C      1  0.5141470000000  0.4072640000000  0.5413800000000 1.0
C      1  0.5290600000000  0.4072650000000  0.4671190000000 1.0
C      1  0.4572920000000  0.4072660000000  0.4913350000000 1.0
C      1  0.5144470000000  0.5933490000000  0.5410490000000 1.0
C      1  0.5286230000000  0.5933500000000  0.4670320000000 1.0
C      1  0.4574350000000  0.5933500000000  0.4917640000000 1.0
C      1  0.5119020000000  0.4524990000000  0.4435130000000 1.0
C      1  0.4454270000000  0.4524980000000  0.5179990000000 1.0
C      1  0.5431720000000  0.4524960000000  0.5383240000000 1.0
C      1  0.5110620000000  0.5488590000000  0.4425460000000 1.0
C      1  0.4450100000000  0.5488580000000  0.5192140000000 1.0
C      1  0.5444320000000  0.5488570000000  0.5380830000000 1.0
C      1  0.5575960000000  0.4703910000000  0.4382650000000 1.0
C      1  0.4180350000000  0.4703920000000  0.4810510000000 1.0
C      1  0.5248700000000  0.4703890000000  0.5805210000000 1.0
C      1  0.5568230000000  0.5300210000000  0.4382130000000 1.0
C      1  0.4183770000000  0.5300210000000  0.4817490000000 1.0
C      1  0.5253030000000  0.5300180000000  0.5798790000000 1.0
C      1  0.5699470000000  0.5305650000000  0.4875960000000 1.0
C      1  0.4545820000000  0.5305670000000  0.4456920000000 1.0
C      1  0.4759750000000  0.5305640000000  0.5665540000000 1.0
C      1  0.5694890000000  0.4701360000000  0.4878900000000 1.0
C      1  0.4550650000000  0.4701380000000  0.4459400000000 1.0
C      1  0.4759470000000  0.4701360000000  0.5660080000000 1.0
C      1  0.4528330000000  0.5005150000000  0.4049920000000 1.0
C      1  0.6060680000000  0.5005110000000  0.5064310000000 1.0
C      1  0.4416010000000  0.5005120000000  0.5884170000000 1.0
C      1  0.5001670000000  0.4769010000000  0.4999460000000 1.0
C      1  0.5001680000000  0.5265500000000  0.4999470000000 1.0
END
