TITL C-3201378-2706-1322 4534.09953184806 125000 -477.064902707885 0 0 83 (C1) n - 1
REM
REM in /home/nfs/bkarasulu/CARBON/AIRSS/Generating-Clusters/LCBOP/Higher-Symm/SD-CG/FIRE-CG
REM
REM
REM
REM
REM
REM ./C.cell (b20cbc046b6831c77cfcea5457e17084)
REM AIRSS Version 0.9.1 bugfix July 2018 build 013d7b7c2542+ Fri, 06 Jul 2018 19:26:36 +0100
REM compiler GCC version 9.2.1 20190827 (Red Hat 9.2.1-1)
REM options -cpp -mtune=generic -march=x86-64 -g -O0 -fpre-include=/usr/include/finclude/math-vector-fortran.h
REM seed -1065368408 -1189933008 43555513 2130257708 626564406 1822693544 1620756915 1769878485 83590528 1950750650 1771622668 -532839455 597952673 -1969591483 -673338538 -1495988648 1290725794 -761109104 493109403 723471228 6503714 -130569894 -1056157662 -711904470 -54704675 534937936 -221741614 -1458249201 -858008643 -996455172 1044664218 673049093 1316428065
REM
CELL 1.54180   50.00000   50.00000   50.00000   90.00000   90.00000   90.00000
LATT -1
SFAC C  
C      1  0.4970380000000  0.5204410000000  0.5765730000000 1.0
C      1  0.4988830000000  0.5699170000000  0.5012080000000 1.0
C      1  0.4982200000000  0.5240680000000  0.4294450000000 1.0
C      1  0.4966290000000  0.4490040000000  0.4574370000000 1.0
C      1  0.4965890000000  0.4375290000000  0.5402500000000 1.0
C      1  0.5480630000000  0.4588590000000  0.4759760000000 1.0
C      1  0.5492060000000  0.4614960000000  0.5391950000000 1.0
C      1  0.5483750000000  0.5240370000000  0.5493690000000 1.0
C      1  0.5462040000000  0.5469970000000  0.4911380000000 1.0
C      1  0.5483190000000  0.5083770000000  0.4515850000000 1.0
C      1  0.5429670000000  0.5547750000000  0.5457290000000 1.0
C      1  0.5423300000000  0.5586700000000  0.4624910000000 1.0
C      1  0.5422560000000  0.4849640000000  0.4307600000000 1.0
C      1  0.5416270000000  0.4329720000000  0.4926610000000 1.0
C      1  0.5442540000000  0.4722830000000  0.5683920000000 1.0
C      1  0.5040670000000  0.5514370000000  0.4333510000000 1.0
C      1  0.4999010000000  0.4700290000000  0.4393060000000 1.0
C      1  0.4990420000000  0.4309080000000  0.5106070000000 1.0
C      1  0.5036710000000  0.4942790000000  0.5890040000000 1.0
C      1  0.5030460000000  0.5763900000000  0.5287820000000 1.0
C      1  0.5216370000000  0.5283040000000  0.4904200000000 1.0
C      1  0.5216250000000  0.5068480000000  0.4680750000000 1.0
C      1  0.5224680000000  0.4773760000000  0.4814670000000 1.0
C      1  0.5226010000000  0.4702370000000  0.5288590000000 1.0
C      1  0.5211270000000  0.5160380000000  0.5391570000000 1.0
C      1  0.4544660000000  0.4675390000000  0.4296070000000 1.0
C      1  0.4534210000000  0.4201440000000  0.5083460000000 1.0
C      1  0.4545000000000  0.4823220000000  0.5782720000000 1.0
C      1  0.4554930000000  0.5664120000000  0.5389620000000 1.0
C      1  0.4551620000000  0.5563780000000  0.4466230000000 1.0
C      1  0.4721100000000  0.5148910000000  0.5317170000000 1.0
C      1  0.4720300000000  0.5297120000000  0.4888500000000 1.0
C      1  0.4718860000000  0.5066760000000  0.4695970000000 1.0
C      1  0.4723100000000  0.4815710000000  0.4859160000000 1.0
C      1  0.4697690000000  0.4717870000000  0.5289140000000 1.0
C      1  0.4508290000000  0.4474820000000  0.4581900000000 1.0
C      1  0.4467610000000  0.4365820000000  0.5396240000000 1.0
C      1  0.4494600000000  0.5173030000000  0.5696810000000 1.0
C      1  0.4508180000000  0.5671740000000  0.5037020000000 1.0
C      1  0.4491330000000  0.5239070000000  0.4340240000000 1.0
C      1  0.4963020000000  0.5066890000000  0.4538540000000 1.0
C      1  0.4963890000000  0.4623660000000  0.4839740000000 1.0
C      1  0.4962410000000  0.4660850000000  0.5358060000000 1.0
C      1  0.4952660000000  0.5142360000000  0.5485720000000 1.0
C      1  0.4963350000000  0.5418860000000  0.4957870000000 1.0
C      1  0.4471860000000  0.5406170000000  0.4984720000000 1.0
C      1  0.4435310000000  0.5105960000000  0.4578340000000 1.0
C      1  0.4471170000000  0.4665570000000  0.4782560000000 1.0
C      1  0.4426010000000  0.4618890000000  0.5298000000000 1.0
C      1  0.4449850000000  0.5145130000000  0.5429450000000 1.0
C      1  0.5144020000000  0.4824310000000  0.4182900000000 1.0
C      1  0.5142670000000  0.4208690000000  0.4891580000000 1.0
C      1  0.5150700000000  0.4674880000000  0.5799130000000 1.0
C      1  0.5140340000000  0.5633790000000  0.5533090000000 1.0
C      1  0.5146830000000  0.5680170000000  0.4547480000000 1.0
C      1  0.4249520000000  0.5233540000000  0.5004750000000 1.0
C      1  0.4227670000000  0.5059110000000  0.4772190000000 1.0
C      1  0.4236240000000  0.4786920000000  0.4882860000000 1.0
C      1  0.4232150000000  0.4789240000000  0.5176230000000 1.0
C      1  0.4244710000000  0.5074560000000  0.5249320000000 1.0
C      1  0.5678680000000  0.5126880000000  0.5247290000000 1.0
C      1  0.5683040000000  0.5248960000000  0.4965820000000 1.0
C      1  0.5692210000000  0.5035950000000  0.4758340000000 1.0
C      1  0.5691830000000  0.4772150000000  0.4900180000000 1.0
C      1  0.5687660000000  0.4818800000000  0.5209150000000 1.0
C      1  0.4649240000000  0.5748660000000  0.4700190000000 1.0
C      1  0.4635190000000  0.4967610000000  0.4164670000000 1.0
C      1  0.4635250000000  0.4224870000000  0.4756000000000 1.0
C      1  0.4630180000000  0.4486910000000  0.5708380000000 1.0
C      1  0.4642740000000  0.5516000000000  0.5656250000000 1.0
C      1  0.4935680000000  0.5501960000000  0.5732770000000 1.0
C      1  0.4944160000000  0.5797280000000  0.4737240000000 1.0
C      1  0.4934120000000  0.5029260000000  0.4095610000000 1.0
C      1  0.4935630000000  0.4214900000000  0.4671030000000 1.0
C      1  0.4923140000000  0.4406020000000  0.5706320000000 1.0
C      1  0.5491280000000  0.5629400000000  0.5176400000000 1.0
C      1  0.5529170000000  0.5378090000000  0.4443550000000 1.0
C      1  0.5513490000000  0.4606590000000  0.4455900000000 1.0
C      1  0.5523090000000  0.4354450000000  0.5210490000000 1.0
C      1  0.5533100000000  0.5010170000000  0.5704940000000 1.0
C      1  0.5260080000000  0.4856890000000  0.5078070000000 1.0
C      1  0.4718540000000  0.4940650000000  0.5124990000000 1.0
C      1  0.5235670000000  0.5114580000000  0.5130320000000 1.0
END
