TITL C-3201373-1215-573 477.910452672379 125000 -812.788167623083 0 0 137 (C1) n - 1
REM
REM in /home/nfs/bkarasulu/CARBON/AIRSS/Generating-Clusters/LCBOP/Higher-Symm/SD-CG/FIRE-CG
REM
REM
REM
REM
REM
REM ./C.cell (b20cbc046b6831c77cfcea5457e17084)
REM AIRSS Version 0.9.1 bugfix July 2018 build 013d7b7c2542+ Fri, 06 Jul 2018 19:26:36 +0100
REM compiler GCC version 9.2.1 20190827 (Red Hat 9.2.1-1)
REM options -cpp -mtune=generic -march=x86-64 -g -O0 -fpre-include=/usr/include/finclude/math-vector-fortran.h
REM seed 1214089491 -920475728 -1656976471 -562658895 -686113550 696376760 -5199929 -1405344389 2129853751 -6563167 -1888754183 1748545629 -1002457202 1329077161 -1814931701 501014085 1574229182 588479117 85536152 -1559336661 -758602379 -1057216736 2147334301 -583784981 -1359372603 271639367 1661439818 -1355672980 -973076536 -1331657712 1948255500 547123962 1177551835
REM
CELL 1.54180   50.00000   50.00000   50.00000   90.00000   90.00000   90.00000
LATT -1
SFAC C  
C      1  0.4738890000000  0.4433230000000  0.4962700000000 1.0
C      1  0.4724580000000  0.4590790000000  0.5405250000000 1.0
C      1  0.4794690000000  0.5071500000000  0.5550770000000 1.0
C      1  0.4755300000000  0.5485050000000  0.5289000000000 1.0
C      1  0.4780260000000  0.5525530000000  0.4804140000000 1.0
C      1  0.4765810000000  0.5167830000000  0.4485040000000 1.0
C      1  0.4768090000000  0.4684040000000  0.4557190000000 1.0
C      1  0.4992890000000  0.4657480000000  0.5937210000000 1.0
C      1  0.4999780000000  0.5562440000000  0.5884780000000 1.0
C      1  0.4991030000000  0.6005230000000  0.5117890000000 1.0
C      1  0.4998790000000  0.5737510000000  0.4255370000000 1.0
C      1  0.5005240000000  0.4891470000000  0.4025630000000 1.0
C      1  0.4994050000000  0.4147430000000  0.4466600000000 1.0
C      1  0.4990740000000  0.4035610000000  0.5323750000000 1.0
C      1  0.5231470000000  0.5582290000000  0.5138100000000 1.0
C      1  0.5254700000000  0.5497760000000  0.4567270000000 1.0
C      1  0.5263300000000  0.5012740000000  0.4424110000000 1.0
C      1  0.5258940000000  0.4527760000000  0.4619790000000 1.0
C      1  0.5249270000000  0.4384900000000  0.5098780000000 1.0
C      1  0.5208810000000  0.4744980000000  0.5510850000000 1.0
C      1  0.5273080000000  0.5313190000000  0.5592360000000 1.0
C      1  0.5749660000000  0.5052030000000  0.4593920000000 1.0
C      1  0.5750160000000  0.4719540000000  0.4696910000000 1.0
C      1  0.5743160000000  0.4587350000000  0.5042830000000 1.0
C      1  0.5728660000000  0.4782350000000  0.5351370000000 1.0
C      1  0.5731040000000  0.5139160000000  0.5385950000000 1.0
C      1  0.5725680000000  0.5393490000000  0.5103810000000 1.0
C      1  0.5729220000000  0.5360340000000  0.4805680000000 1.0
C      1  0.5519090000000  0.5495290000000  0.4671340000000 1.0
C      1  0.5534130000000  0.5090670000000  0.4428610000000 1.0
C      1  0.5532210000000  0.4590170000000  0.4586580000000 1.0
C      1  0.5525260000000  0.4417340000000  0.5043730000000 1.0
C      1  0.5482840000000  0.4704650000000  0.5453140000000 1.0
C      1  0.5539840000000  0.5230130000000  0.5560410000000 1.0
C      1  0.5507840000000  0.5544210000000  0.5188650000000 1.0
C      1  0.5014840000000  0.6022570000000  0.5404550000000 1.0
C      1  0.5022280000000  0.5954900000000  0.4451680000000 1.0
C      1  0.5026870000000  0.5162570000000  0.3932100000000 1.0
C      1  0.5015700000000  0.4262160000000  0.4201960000000 1.0
C      1  0.5008020000000  0.3896890000000  0.5069800000000 1.0
C      1  0.5014350000000  0.4374840000000  0.5884190000000 1.0
C      1  0.5025550000000  0.5320960000000  0.6049210000000 1.0
C      1  0.5522480000000  0.3963800000000  0.5284720000000 1.0
C      1  0.5517040000000  0.4595330000000  0.5951390000000 1.0
C      1  0.5547790000000  0.5506870000000  0.5980410000000 1.0
C      1  0.5513590000000  0.6057620000000  0.5175180000000 1.0
C      1  0.5547130000000  0.5841600000000  0.4294250000000 1.0
C      1  0.5522870000000  0.4932240000000  0.3937770000000 1.0
C      1  0.5520450000000  0.4122840000000  0.4381300000000 1.0
C      1  0.4690870000000  0.4333010000000  0.5526150000000 1.0
C      1  0.4722750000000  0.5005400000000  0.5824720000000 1.0
C      1  0.4717790000000  0.5657850000000  0.5520630000000 1.0
C      1  0.4715380000000  0.5808480000000  0.4809930000000 1.0
C      1  0.4731840000000  0.5352760000000  0.4263040000000 1.0
C      1  0.4719500000000  0.4632330000000  0.4276930000000 1.0
C      1  0.4702020000000  0.4180880000000  0.4826390000000 1.0
C      1  0.5030230000000  0.5430840000000  0.4702870000000 1.0
C      1  0.5072390000000  0.5044990000000  0.4659450000000 1.0
C      1  0.5042730000000  0.4717820000000  0.4724320000000 1.0
C      1  0.5020510000000  0.4574160000000  0.5028460000000 1.0
C      1  0.4993120000000  0.4682040000000  0.5324860000000 1.0
C      1  0.5051670000000  0.5191820000000  0.5468130000000 1.0
C      1  0.5029450000000  0.5361990000000  0.5212950000000 1.0
C      1  0.5353790000000  0.5218860000000  0.6044410000000 1.0
C      1  0.5353280000000  0.5977680000000  0.5474170000000 1.0
C      1  0.5349180000000  0.5977170000000  0.4550230000000 1.0
C      1  0.5363100000000  0.5242390000000  0.3952020000000 1.0
C      1  0.5350830000000  0.4344440000000  0.4167170000000 1.0
C      1  0.5347610000000  0.3921480000000  0.4982550000000 1.0
C      1  0.5349710000000  0.4327980000000  0.5801650000000 1.0
C      1  0.4159500000000  0.5496300000000  0.4632370000000 1.0
C      1  0.4155100000000  0.5017130000000  0.4381230000000 1.0
C      1  0.4148130000000  0.4519260000000  0.4596430000000 1.0
C      1  0.4144920000000  0.4374730000000  0.5122300000000 1.0
C      1  0.4143670000000  0.4702120000000  0.5559870000000 1.0
C      1  0.4160290000000  0.5243460000000  0.5574990000000 1.0
C      1  0.4152420000000  0.5598950000000  0.5165910000000 1.0
C      1  0.5169270000000  0.4817370000000  0.5788010000000 1.0
C      1  0.5201720000000  0.5572610000000  0.5689760000000 1.0
C      1  0.5174610000000  0.5828370000000  0.5000480000000 1.0
C      1  0.5200220000000  0.5544280000000  0.4292100000000 1.0
C      1  0.5196170000000  0.4821290000000  0.4217560000000 1.0
C      1  0.5188000000000  0.4247040000000  0.4641600000000 1.0
C      1  0.5184390000000  0.4237140000000  0.5342870000000 1.0
C      1  0.4542060000000  0.4229360000000  0.4360390000000 1.0
C      1  0.4534690000000  0.4000030000000  0.5202010000000 1.0
C      1  0.4539620000000  0.4541220000000  0.5895200000000 1.0
C      1  0.4551110000000  0.5412460000000  0.5913000000000 1.0
C      1  0.4540600000000  0.5970580000000  0.5248700000000 1.0
C      1  0.4548440000000  0.5793720000000  0.4394140000000 1.0
C      1  0.4554070000000  0.5023010000000  0.4014360000000 1.0
C      1  0.4603700000000  0.5041410000000  0.5326710000000 1.0
C      1  0.4582540000000  0.5281870000000  0.5171920000000 1.0
C      1  0.4598460000000  0.5309750000000  0.4889760000000 1.0
C      1  0.4587390000000  0.5104680000000  0.4693210000000 1.0
C      1  0.4578000000000  0.4822900000000  0.4737800000000 1.0
C      1  0.4560120000000  0.4672400000000  0.4978620000000 1.0
C      1  0.4561270000000  0.4771520000000  0.5246990000000 1.0
C      1  0.4726110000000  0.3942160000000  0.4980030000000 1.0
C      1  0.4728340000000  0.4324630000000  0.5807920000000 1.0
C      1  0.4746900000000  0.5213860000000  0.6016250000000 1.0
C      1  0.4736040000000  0.5938320000000  0.5473370000000 1.0
C      1  0.4740810000000  0.5946630000000  0.4562280000000 1.0
C      1  0.4748640000000  0.5248210000000  0.3997460000000 1.0
C      1  0.4736590000000  0.4365260000000  0.4180530000000 1.0
C      1  0.4290960000000  0.4148100000000  0.5164070000000 1.0
C      1  0.4292270000000  0.4598830000000  0.5762900000000 1.0
C      1  0.4308350000000  0.5339010000000  0.5781610000000 1.0
C      1  0.4297730000000  0.5821220000000  0.5224430000000 1.0
C      1  0.4305980000000  0.5679210000000  0.4494300000000 1.0
C      1  0.4306170000000  0.5030640000000  0.4155840000000 1.0
C      1  0.4296390000000  0.4347980000000  0.4446200000000 1.0
C      1  0.4721390000000  0.4089010000000  0.5400930000000 1.0
C      1  0.4726640000000  0.4753160000000  0.5938650000000 1.0
C      1  0.4731630000000  0.5597350000000  0.5791300000000 1.0
C      1  0.4723530000000  0.5976310000000  0.5028840000000 1.0
C      1  0.4733310000000  0.5630960000000  0.4251010000000 1.0
C      1  0.4737610000000  0.4812020000000  0.4070010000000 1.0
C      1  0.4725160000000  0.4130890000000  0.4556380000000 1.0
C      1  0.4081130000000  0.4834250000000  0.5306000000000 1.0
C      1  0.4089690000000  0.5129630000000  0.5314900000000 1.0
C      1  0.4089310000000  0.5322720000000  0.5091730000000 1.0
C      1  0.4091010000000  0.5267660000000  0.4802460000000 1.0
C      1  0.4087380000000  0.5006370000000  0.4665710000000 1.0
C      1  0.4082120000000  0.4734870000000  0.4783200000000 1.0
C      1  0.4079130000000  0.4656580000000  0.5068930000000 1.0
C      1  0.5401100000000  0.5976050000000  0.4899900000000 1.0
C      1  0.5420330000000  0.5549200000000  0.4133910000000 1.0
C      1  0.5414360000000  0.4685510000000  0.4087140000000 1.0
C      1  0.5409420000000  0.4067350000000  0.4661620000000 1.0
C      1  0.5409920000000  0.4154150000000  0.5495870000000 1.0
C      1  0.5401290000000  0.4880510000000  0.5946800000000 1.0
C      1  0.5416480000000  0.5732000000000  0.5731810000000 1.0
C      1  0.5601960000000  0.4993890000000  0.4997000000000 1.0
C      1  0.5876660000000  0.4998330000000  0.5003940000000 1.0
C      1  0.5112940000000  0.5131660000000  0.5003110000000 1.0
C      1  0.5347200000000  0.5008460000000  0.5057440000000 1.0
END
