TITL C-3201375-1262-1134 288214.163477173 125000 -708.864690068016 0 0 116 (C1) n - 1
REM
REM in /home/nfs/bkarasulu/CARBON/AIRSS/Generating-Clusters/LCBOP/Higher-Symm/SD-CG/FIRE-CG
REM
REM
REM
REM
REM
REM ./C.cell (b20cbc046b6831c77cfcea5457e17084)
REM AIRSS Version 0.9.1 bugfix July 2018 build 013d7b7c2542+ Fri, 06 Jul 2018 19:26:36 +0100
REM compiler GCC version 9.2.1 20190827 (Red Hat 9.2.1-1)
REM options -cpp -mtune=generic -march=x86-64 -g -O0 -fpre-include=/usr/include/finclude/math-vector-fortran.h
REM seed 2021432087 -89345544 -758970617 2136543426 -209776367 -1253805231 1351619511 -400281826 647406623 1592608443 -579768969 -929419899 -1419703233 -2142972531 -93305833 359708889 -14151005 374437221 827213616 -1624238106 906227233 -1357636113 598529102 -1550634009 965616139 1285876045 1192516461 -810994024 237608545 -726826779 583872655 -436261068 -1744548981
REM
CELL 1.54180   50.00000   50.00000   50.00000   90.00000   90.00000   90.00000
LATT -1
SFAC C  
C      1  0.5940760000000  0.5375470000000  0.4712420000000 1.0
C      1  0.4024250000000  0.4685320000000  0.5303200000000 1.0
C      1  0.5833330000000  0.5583440000000  0.4881990000000 1.0
C      1  0.4193170000000  0.4551020000000  0.5114030000000 1.0
C      1  0.5243050000000  0.5463700000000  0.5735960000000 1.0
C      1  0.4792580000000  0.4562020000000  0.4199990000000 1.0
C      1  0.4424130000000  0.4486070000000  0.5805510000000 1.0
C      1  0.5495560000000  0.5410620000000  0.4236950000000 1.0
C      1  0.4347620000000  0.5472530000000  0.4599600000000 1.0
C      1  0.5588910000000  0.4366260000000  0.5259430000000 1.0
C      1  0.5660650000000  0.5784210000000  0.4947460000000 1.0
C      1  0.4244040000000  0.4274510000000  0.5055880000000 1.0
C      1  0.4878470000000  0.3965100000000  0.4783940000000 1.0
C      1  0.4962110000000  0.5942490000000  0.5208210000000 1.0
C      1  0.5792340000000  0.4581160000000  0.5253230000000 1.0
C      1  0.4161590000000  0.5366880000000  0.4802170000000 1.0
C      1  0.4900730000000  0.5179930000000  0.5901660000000 1.0
C      1  0.5171200000000  0.4804410000000  0.4090470000000 1.0
C      1  0.5212410000000  0.4626910000000  0.4941670000000 1.0
C      1  0.4828830000000  0.5289890000000  0.5095610000000 1.0
C      1  0.5087470000000  0.4896250000000  0.4882140000000 1.0
C      1  0.5012700000000  0.5052580000000  0.5128780000000 1.0
C      1  0.4993800000000  0.5048110000000  0.4104590000000 1.0
C      1  0.4938070000000  0.4908120000000  0.5881340000000 1.0
C      1  0.5403530000000  0.5917810000000  0.4960480000000 1.0
C      1  0.4481560000000  0.4115530000000  0.5011240000000 1.0
C      1  0.5042730000000  0.4535010000000  0.4066420000000 1.0
C      1  0.4968230000000  0.5446260000000  0.5811700000000 1.0
C      1  0.4816080000000  0.5325780000000  0.4784420000000 1.0
C      1  0.5154640000000  0.4595340000000  0.5250090000000 1.0
C      1  0.5216510000000  0.4320400000000  0.4468330000000 1.0
C      1  0.4905000000000  0.5711180000000  0.5377430000000 1.0
C      1  0.4635230000000  0.4329250000000  0.5694760000000 1.0
C      1  0.5278320000000  0.5584990000000  0.4312760000000 1.0
C      1  0.4273070000000  0.5143210000000  0.4217010000000 1.0
C      1  0.6132090000000  0.5408280000000  0.5641440000000 1.0
C      1  0.4300590000000  0.5461420000000  0.5838000000000 1.0
C      1  0.5485010000000  0.4405410000000  0.4424780000000 1.0
C      1  0.5292090000000  0.5477600000000  0.5142540000000 1.0
C      1  0.4765160000000  0.4495760000000  0.4802450000000 1.0
C      1  0.5133940000000  0.5356710000000  0.4734220000000 1.0
C      1  0.4846260000000  0.4572330000000  0.5244530000000 1.0
C      1  0.5014600000000  0.5503490000000  0.5209650000000 1.0
C      1  0.5048700000000  0.4434130000000  0.4746910000000 1.0
C      1  0.4540880000000  0.4201410000000  0.4476050000000 1.0
C      1  0.5365940000000  0.5899130000000  0.5481800000000 1.0
C      1  0.5976320000000  0.5091530000000  0.4765460000000 1.0
C      1  0.3997120000000  0.4971680000000  0.5284520000000 1.0
C      1  0.4541260000000  0.4414930000000  0.4257560000000 1.0
C      1  0.5421490000000  0.5699730000000  0.5690430000000 1.0
C      1  0.5554320000000  0.5134410000000  0.4969360000000 1.0
C      1  0.4402160000000  0.4715680000000  0.5015070000000 1.0
C      1  0.5559550000000  0.4682050000000  0.4413670000000 1.0
C      1  0.4372530000000  0.5229750000000  0.5710190000000 1.0
C      1  0.4509890000000  0.4919580000000  0.4579300000000 1.0
C      1  0.5727210000000  0.5328690000000  0.5368780000000 1.0
C      1  0.4296290000000  0.5387300000000  0.4332960000000 1.0
C      1  0.6365630000000  0.5327490000000  0.5724250000000 1.0
C      1  0.4117200000000  0.5087360000000  0.4787050000000 1.0
C      1  0.5734290000000  0.4843200000000  0.5348120000000 1.0
C      1  0.4944550000000  0.4062020000000  0.5256720000000 1.0
C      1  0.4963260000000  0.5904760000000  0.4709570000000 1.0
C      1  0.4389110000000  0.5225680000000  0.5428030000000 1.0
C      1  0.5650280000000  0.4720720000000  0.4683430000000 1.0
C      1  0.5344620000000  0.4071990000000  0.4949870000000 1.0
C      1  0.4587340000000  0.5735740000000  0.4946670000000 1.0
C      1  0.5866700000000  0.5460210000000  0.5576650000000 1.0
C      1  0.4350740000000  0.4891690000000  0.4320280000000 1.0
C      1  0.5455910000000  0.5405360000000  0.5354030000000 1.0
C      1  0.4650060000000  0.4651200000000  0.4603610000000 1.0
C      1  0.4921140000000  0.4397380000000  0.5675200000000 1.0
C      1  0.4988560000000  0.5529120000000  0.4328630000000 1.0
C      1  0.5894350000000  0.4815210000000  0.4801010000000 1.0
C      1  0.4135690000000  0.5221020000000  0.5275260000000 1.0
C      1  0.4828970000000  0.5635030000000  0.5642100000000 1.0
C      1  0.5132640000000  0.4290940000000  0.4192100000000 1.0
C      1  0.4626720000000  0.5564840000000  0.4692560000000 1.0
C      1  0.5314310000000  0.4364050000000  0.5371080000000 1.0
C      1  0.4882410000000  0.5250700000000  0.4291260000000 1.0
C      1  0.5017300000000  0.4686230000000  0.5712730000000 1.0
C      1  0.4814430000000  0.5922070000000  0.4959820000000 1.0
C      1  0.5069780000000  0.4003310000000  0.4998440000000 1.0
C      1  0.5168420000000  0.4783890000000  0.5483890000000 1.0
C      1  0.4765520000000  0.5123580000000  0.4561230000000 1.0
C      1  0.4460910000000  0.4741470000000  0.5911960000000 1.0
C      1  0.5488080000000  0.5130810000000  0.4218540000000 1.0
C      1  0.5148420000000  0.5048020000000  0.5394390000000 1.0
C      1  0.4993830000000  0.4916600000000  0.4604710000000 1.0
C      1  0.4610840000000  0.4074240000000  0.4742820000000 1.0
C      1  0.5259660000000  0.5968280000000  0.5217110000000 1.0
C      1  0.5950910000000  0.5454480000000  0.4440350000000 1.0
C      1  0.3988710000000  0.4547040000000  0.5546130000000 1.0
C      1  0.4651480000000  0.4069120000000  0.5253310000000 1.0
C      1  0.5249940000000  0.5916890000000  0.4710590000000 1.0
C      1  0.5357990000000  0.5813710000000  0.4468760000000 1.0
C      1  0.4550010000000  0.4127570000000  0.5511360000000 1.0
C      1  0.5425070000000  0.4856330000000  0.4226650000000 1.0
C      1  0.4409600000000  0.4996970000000  0.5859800000000 1.0
C      1  0.5760370000000  0.5509520000000  0.4258790000000 1.0
C      1  0.4156630000000  0.4436310000000  0.5724830000000 1.0
C      1  0.5533320000000  0.4285970000000  0.4980610000000 1.0
C      1  0.4433000000000  0.5579310000000  0.5131250000000 1.0
C      1  0.5085220000000  0.4214770000000  0.5479390000000 1.0
C      1  0.4837180000000  0.5711570000000  0.4514520000000 1.0
C      1  0.4580790000000  0.5349420000000  0.5251800000000 1.0
C      1  0.5491390000000  0.4551930000000  0.4859770000000 1.0
C      1  0.4660700000000  0.4593290000000  0.5045070000000 1.0
C      1  0.5352560000000  0.5330800000000  0.4907590000000 1.0
C      1  0.4877380000000  0.4704740000000  0.4438150000000 1.0
C      1  0.5289320000000  0.5259690000000  0.5533470000000 1.0
C      1  0.4334670000000  0.4911940000000  0.4817390000000 1.0
C      1  0.5719130000000  0.5090130000000  0.5210500000000 1.0
C      1  0.4330290000000  0.4616890000000  0.4232790000000 1.0
C      1  0.5701610000000  0.5640240000000  0.5726130000000 1.0
C      1  0.4176360000000  0.5447440000000  0.5075930000000 1.0
C      1  0.5968530000000  0.4637000000000  0.5021420000000 1.0
END
