TITL C-3201375-1262-1216 -1.47325477078763e-09 125000 -37.2922764561808 0 0 7 (D(inf)h) n - 1
REM
REM in /home/nfs/bkarasulu/CARBON/AIRSS/Generating-Clusters/LCBOP/Higher-Symm/SD-CG/FIRE-CG
REM
REM
REM
REM
REM
REM ./C.cell (b20cbc046b6831c77cfcea5457e17084)
REM AIRSS Version 0.9.1 bugfix July 2018 build 013d7b7c2542+ Fri, 06 Jul 2018 19:26:36 +0100
REM compiler GCC version 9.2.1 20190827 (Red Hat 9.2.1-1)
REM options -cpp -mtune=generic -march=x86-64 -g -O0 -fpre-include=/usr/include/finclude/math-vector-fortran.h
REM seed -922219082 465066268 -1630060527 1619410698 607830621 993210324 -126228353 305853084 -1841897530 260391992 356840743 450060828 -1121181887 -1122364612 -1075020892 195315394 -83958477 1844442718 1905302763 319708020 -1709587506 1075895467 -670873219 -965751066 -242140917 -2026992307 -830610496 511992200 1306791080 -1032392806 607112165 1885474697 -1213009605
REM
CELL 1.54180   50.00000   50.00000   50.00000   90.00000   90.00000   90.00000
LATT -1
SFAC C  
C      1  0.4960600000000  0.4986470000000  0.4694490000000 1.0
C      1  0.4859090000000  0.4978450000000  0.4178680000000 1.0
C      1  0.5164420000000  0.5002570000000  0.5730260000000 1.0
C      1  0.5062920000000  0.4994550000000  0.5214450000000 1.0
C      1  0.4909420000000  0.4982430000000  0.4434440000000 1.0
C      1  0.5114090000000  0.4998600000000  0.5474490000000 1.0
C      1  0.5011760000000  0.4990510000000  0.4954470000000 1.0
END
