TITL C-3201379-3821-1507 -0.000448472135658872 125000 -860.919928366133 0 0 140 (C1) n - 1
REM
REM in /home/nfs/bkarasulu/CARBON/AIRSS/Generating-Clusters/LCBOP/Higher-Symm/SD-CG/FIRE-CG
REM
REM
REM
REM
REM
REM ./C.cell (b20cbc046b6831c77cfcea5457e17084)
REM AIRSS Version 0.9.1 bugfix July 2018 build 013d7b7c2542+ Fri, 06 Jul 2018 19:26:36 +0100
REM compiler GCC version 9.2.1 20190827 (Red Hat 9.2.1-1)
REM options -cpp -mtune=generic -march=x86-64 -g -O0 -fpre-include=/usr/include/finclude/math-vector-fortran.h
REM seed 960375381 603624790 1993104711 -2061775041 638128846 -1873816772 -500905782 -950831224 187558826 1259060921 1165112074 1348913334 -436017565 -1602729410 644552390 396703459 -277882460 -1882265331 -2056058626 1814841237 -824899170 1718815259 -20183521 -2053675044 1791166824 -454389569 534750552 -1916451745 1917058814 735407486 -1655052106 -1939486896 856391024
REM
CELL 1.54180   50.00000   50.00000   50.00000   90.00000   90.00000   90.00000
LATT -1
SFAC C  
C      1  0.5166340000000  0.4526980000000  0.5026730000000 1.0
C      1  0.5203180000000  0.4942700000000  0.4510080000000 1.0
C      1  0.5232100000000  0.5489100000000  0.4963110000000 1.0
C      1  0.5163740000000  0.5029880000000  0.5456470000000 1.0
C      1  0.4604250000000  0.4716010000000  0.3703390000000 1.0
C      1  0.4647120000000  0.6254280000000  0.4816020000000 1.0
C      1  0.4574270000000  0.5299340000000  0.6200070000000 1.0
C      1  0.4595450000000  0.3734300000000  0.5285050000000 1.0
C      1  0.4939580000000  0.4020870000000  0.4078610000000 1.0
C      1  0.4920220000000  0.5941260000000  0.4088020000000 1.0
C      1  0.4921650000000  0.5964690000000  0.5904040000000 1.0
C      1  0.4934230000000  0.4082510000000  0.5963470000000 1.0
C      1  0.5602440000000  0.5033980000000  0.4217370000000 1.0
C      1  0.5649880000000  0.5804830000000  0.5045460000000 1.0
C      1  0.5596910000000  0.4972910000000  0.5764110000000 1.0
C      1  0.5595450000000  0.4235190000000  0.4960530000000 1.0
C      1  0.5185050000000  0.4161410000000  0.4098770000000 1.0
C      1  0.5168160000000  0.5899540000000  0.4216890000000 1.0
C      1  0.5166990000000  0.5824780000000  0.5875790000000 1.0
C      1  0.5177380000000  0.4113380000000  0.5821100000000 1.0
C      1  0.4294320000000  0.5561660000000  0.4419890000000 1.0
C      1  0.4290510000000  0.5580700000000  0.5577460000000 1.0
C      1  0.4299040000000  0.4414800000000  0.5592770000000 1.0
C      1  0.4312930000000  0.4394250000000  0.4427040000000 1.0
C      1  0.4118260000000  0.4257890000000  0.5005680000000 1.0
C      1  0.4121170000000  0.4978780000000  0.4274060000000 1.0
C      1  0.4104160000000  0.5708280000000  0.5001470000000 1.0
C      1  0.4099110000000  0.4992450000000  0.5724610000000 1.0
C      1  0.6115110000000  0.5203370000000  0.5099620000000 1.0
C      1  0.6103490000000  0.4912930000000  0.5191000000000 1.0
C      1  0.6093510000000  0.4805650000000  0.4917110000000 1.0
C      1  0.6086780000000  0.5127940000000  0.4779550000000 1.0
C      1  0.4918010000000  0.3719790000000  0.6364070000000 1.0
C      1  0.4906950000000  0.3616460000000  0.3721220000000 1.0
C      1  0.4872200000000  0.6361020000000  0.3750970000000 1.0
C      1  0.4901930000000  0.6371410000000  0.6259840000000 1.0
C      1  0.5548820000000  0.5942390000000  0.4802160000000 1.0
C      1  0.5483580000000  0.5199810000000  0.5906910000000 1.0
C      1  0.5487560000000  0.4081080000000  0.5183510000000 1.0
C      1  0.5500310000000  0.4812210000000  0.4053210000000 1.0
C      1  0.5421700000000  0.5259030000000  0.4234290000000 1.0
C      1  0.5452580000000  0.5805000000000  0.5255420000000 1.0
C      1  0.5418610000000  0.4747920000000  0.5748900000000 1.0
C      1  0.5418440000000  0.4247350000000  0.4732490000000 1.0
C      1  0.5782650000000  0.5018820000000  0.5547210000000 1.0
C      1  0.5766680000000  0.4463370000000  0.5010820000000 1.0
C      1  0.5756840000000  0.4986880000000  0.4459310000000 1.0
C      1  0.5791370000000  0.5546950000000  0.5017930000000 1.0
C      1  0.4987180000000  0.5381040000000  0.4459890000000 1.0
C      1  0.4977430000000  0.5651780000000  0.5348010000000 1.0
C      1  0.4942670000000  0.4622350000000  0.5612540000000 1.0
C      1  0.4946860000000  0.4395810000000  0.4602190000000 1.0
C      1  0.4621100000000  0.5189380000000  0.4926090000000 1.0
C      1  0.4625890000000  0.5069060000000  0.5224840000000 1.0
C      1  0.4626000000000  0.4782100000000  0.5078620000000 1.0
C      1  0.4625490000000  0.4912370000000  0.4805530000000 1.0
C      1  0.5474650000000  0.5529500000000  0.4184640000000 1.0
C      1  0.5503710000000  0.5821280000000  0.5530400000000 1.0
C      1  0.5489000000000  0.4479600000000  0.5788660000000 1.0
C      1  0.5493050000000  0.4208680000000  0.4465040000000 1.0
C      1  0.4816350000000  0.4709760000000  0.3876360000000 1.0
C      1  0.4870860000000  0.6102620000000  0.4774680000000 1.0
C      1  0.4799930000000  0.5306650000000  0.6045590000000 1.0
C      1  0.4810570000000  0.3903330000000  0.5289110000000 1.0
C      1  0.5782860000000  0.4577850000000  0.5276100000000 1.0
C      1  0.5795750000000  0.4720370000000  0.4562410000000 1.0
C      1  0.5686130000000  0.5388600000000  0.4788720000000 1.0
C      1  0.5821750000000  0.5288860000000  0.5453820000000 1.0
C      1  0.5379430000000  0.5687370000000  0.5746570000000 1.0
C      1  0.5379170000000  0.4246150000000  0.5672670000000 1.0
C      1  0.5389570000000  0.4313850000000  0.4223360000000 1.0
C      1  0.5383710000000  0.5757060000000  0.4328810000000 1.0
C      1  0.4322070000000  0.4648920000000  0.5426320000000 1.0
C      1  0.4333560000000  0.4559990000000  0.4661870000000 1.0
C      1  0.4320870000000  0.5325330000000  0.4581510000000 1.0
C      1  0.4318850000000  0.5412230000000  0.5345620000000 1.0
C      1  0.4926100000000  0.3895080000000  0.6171370000000 1.0
C      1  0.4922980000000  0.3810990000000  0.3893910000000 1.0
C      1  0.4895580000000  0.6158060000000  0.3912780000000 1.0
C      1  0.4911680000000  0.6175780000000  0.6087930000000 1.0
C      1  0.5228230000000  0.4799170000000  0.5007670000000 1.0
C      1  0.5311530000000  0.4893580000000  0.4759550000000 1.0
C      1  0.5118660000000  0.5246090000000  0.5033000000000 1.0
C      1  0.5159250000000  0.5009340000000  0.5177260000000 1.0
C      1  0.4130770000000  0.4490300000000  0.4232490000000 1.0
C      1  0.4104220000000  0.5748910000000  0.4514300000000 1.0
C      1  0.4106680000000  0.5482310000000  0.5769290000000 1.0
C      1  0.4118470000000  0.4219760000000  0.5494900000000 1.0
C      1  0.5333680000000  0.4861980000000  0.3826570000000 1.0
C      1  0.5392800000000  0.6176380000000  0.4823010000000 1.0
C      1  0.5311590000000  0.5165620000000  0.6130590000000 1.0
C      1  0.5326250000000  0.3850220000000  0.5143180000000 1.0
C      1  0.5170220000000  0.4713450000000  0.4357810000000 1.0
C      1  0.5425070000000  0.5503140000000  0.4747530000000 1.0
C      1  0.5178430000000  0.5289880000000  0.5563330000000 1.0
C      1  0.5162950000000  0.4403080000000  0.5275180000000 1.0
C      1  0.5898540000000  0.4629580000000  0.4811980000000 1.0
C      1  0.5843880000000  0.5191770000000  0.4649910000000 1.0
C      1  0.5930670000000  0.5387200000000  0.5210380000000 1.0
C      1  0.5901120000000  0.4819310000000  0.5371680000000 1.0
C      1  0.4286530000000  0.4471540000000  0.4933630000000 1.0
C      1  0.4286000000000  0.5053020000000  0.4489700000000 1.0
C      1  0.4276690000000  0.5497940000000  0.5073180000000 1.0
C      1  0.4273580000000  0.4920010000000  0.5515850000000 1.0
C      1  0.4882790000000  0.5591420000000  0.4588250000000 1.0
C      1  0.4946420000000  0.5452830000000  0.5550370000000 1.0
C      1  0.4926790000000  0.4405990000000  0.5429120000000 1.0
C      1  0.4932600000000  0.4565620000000  0.4373620000000 1.0
C      1  0.4029720000000  0.5230950000000  0.5828720000000 1.0
C      1  0.4046900000000  0.4154290000000  0.5243620000000 1.0
C      1  0.4054920000000  0.4740510000000  0.4168080000000 1.0
C      1  0.4029320000000  0.5812310000000  0.4765010000000 1.0
C      1  0.4698320000000  0.4229730000000  0.5907140000000 1.0
C      1  0.4709340000000  0.4080480000000  0.4233590000000 1.0
C      1  0.4695480000000  0.5774650000000  0.4129130000000 1.0
C      1  0.4685300000000  0.5904050000000  0.5758540000000 1.0
C      1  0.5046860000000  0.5215850000000  0.6152130000000 1.0
C      1  0.5063070000000  0.3814030000000  0.5194370000000 1.0
C      1  0.5069800000000  0.4809350000000  0.3793240000000 1.0
C      1  0.5127360000000  0.6214260000000  0.4809020000000 1.0
C      1  0.5202740000000  0.5686080000000  0.5172300000000 1.0
C      1  0.5161730000000  0.4804840000000  0.5628730000000 1.0
C      1  0.5160570000000  0.4367300000000  0.4789730000000 1.0
C      1  0.5187010000000  0.5197490000000  0.4390150000000 1.0
C      1  0.4781400000000  0.4603150000000  0.4138320000000 1.0
C      1  0.4846660000000  0.5832600000000  0.4697420000000 1.0
C      1  0.4787870000000  0.5406890000000  0.5779780000000 1.0
C      1  0.4781270000000  0.4167840000000  0.5389150000000 1.0
C      1  0.4470980000000  0.5787380000000  0.5645710000000 1.0
C      1  0.4483340000000  0.4345620000000  0.5795390000000 1.0
C      1  0.4497950000000  0.4192870000000  0.4355620000000 1.0
C      1  0.4484740000000  0.5642970000000  0.4228930000000 1.0
C      1  0.5384580000000  0.4599360000000  0.4207850000000 1.0
C      1  0.5448690000000  0.5754610000000  0.4605350000000 1.0
C      1  0.5380630000000  0.5400190000000  0.5732390000000 1.0
C      1  0.5373260000000  0.4245690000000  0.5386370000000 1.0
C      1  0.4414860000000  0.4612450000000  0.5152580000000 1.0
C      1  0.4420360000000  0.4836040000000  0.4628620000000 1.0
C      1  0.4409530000000  0.5359530000000  0.4855900000000 1.0
C      1  0.4409210000000  0.5139270000000  0.5384200000000 1.0
END
