TITL C-3201373-1215-1997 -8.96786875532995e-07 125000 -923.901501640261 0 0 148 (C1) n - 1
REM
REM in /home/nfs/bkarasulu/CARBON/AIRSS/Generating-Clusters/LCBOP/Higher-Symm/SD-CG/FIRE-CG
REM
REM
REM
REM
REM
REM ./C.cell (b20cbc046b6831c77cfcea5457e17084)
REM AIRSS Version 0.9.1 bugfix July 2018 build 013d7b7c2542+ Fri, 06 Jul 2018 19:26:36 +0100
REM compiler GCC version 9.2.1 20190827 (Red Hat 9.2.1-1)
REM options -cpp -mtune=generic -march=x86-64 -g -O0 -fpre-include=/usr/include/finclude/math-vector-fortran.h
REM seed 997934355 -1387382013 296391890 -262551684 2060727049 965123632 1440051761 -1503066016 219959887 2147249664 1466080074 -96654232 754749890 -1915487550 -1060306886 -714508673 -1649296213 939649452 599895538 -1944093596 -1648699834 1262302662 -1252559884 274113847 1285253452 -1704876659 299574242 -868364991 -966987585 1459157064 -898130247 774703902 -747247021
REM
CELL 1.54180   50.00000   50.00000   50.00000   90.00000   90.00000   90.00000
LATT -1
SFAC C  
C      1  0.5370370000000  0.4689690000000  0.5507200000000 1.0
C      1  0.5412800000000  0.5322070000000  0.4483940000000 1.0
C      1  0.4606410000000  0.4699220000000  0.4507920000000 1.0
C      1  0.4586690000000  0.5324710000000  0.5521740000000 1.0
C      1  0.5403810000000  0.5503450000000  0.4690130000000 1.0
C      1  0.5380050000000  0.4499220000000  0.5307220000000 1.0
C      1  0.4591390000000  0.4492700000000  0.4689460000000 1.0
C      1  0.4602000000000  0.5522220000000  0.5332700000000 1.0
C      1  0.5908110000000  0.5156420000000  0.4254490000000 1.0
C      1  0.5888740000000  0.4885930000000  0.5738610000000 1.0
C      1  0.4082460000000  0.5148460000000  0.5726150000000 1.0
C      1  0.4099070000000  0.4848460000000  0.4280030000000 1.0
C      1  0.5904590000000  0.4277560000000  0.5146630000000 1.0
C      1  0.5909910000000  0.5722140000000  0.4847750000000 1.0
C      1  0.4106050000000  0.5742890000000  0.5114850000000 1.0
C      1  0.4094730000000  0.4257390000000  0.4845040000000 1.0
C      1  0.5687930000000  0.5027560000000  0.4094450000000 1.0
C      1  0.5673150000000  0.4995320000000  0.5908740000000 1.0
C      1  0.4298060000000  0.5021260000000  0.5893930000000 1.0
C      1  0.4308990000000  0.4985450000000  0.4114950000000 1.0
C      1  0.5691380000000  0.4109700000000  0.5018040000000 1.0
C      1  0.5699310000000  0.5886980000000  0.4985070000000 1.0
C      1  0.4327000000000  0.5909890000000  0.5008240000000 1.0
C      1  0.4312020000000  0.4095560000000  0.4975560000000 1.0
C      1  0.6090360000000  0.4963670000000  0.4383270000000 1.0
C      1  0.6075790000000  0.5089560000000  0.5618430000000 1.0
C      1  0.3898380000000  0.4951710000000  0.5601870000000 1.0
C      1  0.3919780000000  0.5033090000000  0.4421260000000 1.0
C      1  0.6093620000000  0.4398830000000  0.4952260000000 1.0
C      1  0.6089740000000  0.5580680000000  0.5032590000000 1.0
C      1  0.3925300000000  0.5621080000000  0.4906920000000 1.0
C      1  0.3912420000000  0.4388020000000  0.5035370000000 1.0
C      1  0.4618820000000  0.4645060000000  0.4229170000000 1.0
C      1  0.4594220000000  0.5382890000000  0.5803830000000 1.0
C      1  0.5378690000000  0.4634240000000  0.5785160000000 1.0
C      1  0.5396190000000  0.5386180000000  0.4204060000000 1.0
C      1  0.4607280000000  0.4212920000000  0.4624200000000 1.0
C      1  0.4607700000000  0.5804100000000  0.5384470000000 1.0
C      1  0.5392180000000  0.5782290000000  0.4638520000000 1.0
C      1  0.5385290000000  0.4221690000000  0.5365970000000 1.0
C      1  0.4636290000000  0.5444350000000  0.5064210000000 1.0
C      1  0.4631910000000  0.4553920000000  0.4963260000000 1.0
C      1  0.5366290000000  0.5396370000000  0.4949940000000 1.0
C      1  0.5354820000000  0.4593420000000  0.5040640000000 1.0
C      1  0.4626170000000  0.5053850000000  0.5445780000000 1.0
C      1  0.4641620000000  0.4961280000000  0.4611670000000 1.0
C      1  0.5350790000000  0.4955380000000  0.5416510000000 1.0
C      1  0.5368450000000  0.5050890000000  0.4549980000000 1.0
C      1  0.4866150000000  0.4965480000000  0.5553700000000 1.0
C      1  0.4898940000000  0.5052890000000  0.4588290000000 1.0
C      1  0.5123440000000  0.4970950000000  0.4448500000000 1.0
C      1  0.5094940000000  0.5051680000000  0.5423010000000 1.0
C      1  0.4875870000000  0.5542730000000  0.4966840000000 1.0
C      1  0.4874280000000  0.4447200000000  0.5043440000000 1.0
C      1  0.5096640000000  0.4583370000000  0.4950160000000 1.0
C      1  0.5104110000000  0.5400910000000  0.5030390000000 1.0
C      1  0.4586090000000  0.4887230000000  0.4083540000000 1.0
C      1  0.4567160000000  0.5128880000000  0.5927410000000 1.0
C      1  0.5400940000000  0.4880190000000  0.5930730000000 1.0
C      1  0.5417850000000  0.5136110000000  0.4071610000000 1.0
C      1  0.4582590000000  0.4074220000000  0.4869480000000 1.0
C      1  0.4592380000000  0.5929040000000  0.5128630000000 1.0
C      1  0.5422170000000  0.5920390000000  0.4886030000000 1.0
C      1  0.5415840000000  0.4077160000000  0.5121590000000 1.0
C      1  0.5793090000000  0.5869310000000  0.5511660000000 1.0
C      1  0.5786430000000  0.4131390000000  0.4493810000000 1.0
C      1  0.4241590000000  0.5900350000000  0.4485850000000 1.0
C      1  0.4218130000000  0.4120780000000  0.5499080000000 1.0
C      1  0.5766570000000  0.5516410000000  0.5901730000000 1.0
C      1  0.5778750000000  0.4502920000000  0.4120040000000 1.0
C      1  0.4211350000000  0.4495660000000  0.5869450000000 1.0
C      1  0.4212690000000  0.5511160000000  0.4132280000000 1.0
C      1  0.4619760000000  0.4166960000000  0.4346330000000 1.0
C      1  0.4606200000000  0.5857220000000  0.5662780000000 1.0
C      1  0.5394130000000  0.4165500000000  0.5643590000000 1.0
C      1  0.5386750000000  0.5847800000000  0.4362910000000 1.0
C      1  0.4623850000000  0.4369820000000  0.4163390000000 1.0
C      1  0.4601490000000  0.5661380000000  0.5855300000000 1.0
C      1  0.5387300000000  0.5664720000000  0.4159410000000 1.0
C      1  0.5392700000000  0.4356630000000  0.5839680000000 1.0
C      1  0.4836290000000  0.5050630000000  0.4061020000000 1.0
C      1  0.4862830000000  0.4928720000000  0.5857520000000 1.0
C      1  0.5148090000000  0.5043230000000  0.5942010000000 1.0
C      1  0.5122430000000  0.4937320000000  0.4142980000000 1.0
C      1  0.4876400000000  0.4141270000000  0.5071290000000 1.0
C      1  0.4883830000000  0.5851110000000  0.4935140000000 1.0
C      1  0.5171510000000  0.5928240000000  0.5051490000000 1.0
C      1  0.5164320000000  0.4061080000000  0.4956370000000 1.0
C      1  0.4803670000000  0.4397260000000  0.5790290000000 1.0
C      1  0.4806280000000  0.5566410000000  0.4223860000000 1.0
C      1  0.5194360000000  0.4413390000000  0.4243100000000 1.0
C      1  0.5189950000000  0.5548740000000  0.5750760000000 1.0
C      1  0.4815870000000  0.5761200000000  0.4407930000000 1.0
C      1  0.4807830000000  0.4206400000000  0.5601570000000 1.0
C      1  0.5198920000000  0.4232170000000  0.4441270000000 1.0
C      1  0.5199180000000  0.5734960000000  0.5557950000000 1.0
C      1  0.3968670000000  0.5111920000000  0.4691190000000 1.0
C      1  0.3956670000000  0.4858090000000  0.5336810000000 1.0
C      1  0.6044100000000  0.5118690000000  0.5328310000000 1.0
C      1  0.6041000000000  0.4874820000000  0.4650840000000 1.0
C      1  0.3961960000000  0.4654500000000  0.5125890000000 1.0
C      1  0.3958900000000  0.5331060000000  0.4880650000000 1.0
C      1  0.6040550000000  0.5309540000000  0.5109310000000 1.0
C      1  0.6041530000000  0.4664640000000  0.4856520000000 1.0
C      1  0.4434950000000  0.5294400000000  0.4948830000000 1.0
C      1  0.4445260000000  0.4705070000000  0.5097560000000 1.0
C      1  0.5569940000000  0.5257900000000  0.5078330000000 1.0
C      1  0.5557920000000  0.4719260000000  0.4901420000000 1.0
C      1  0.4443730000000  0.4910650000000  0.5294440000000 1.0
C      1  0.4439320000000  0.5086540000000  0.4754920000000 1.0
C      1  0.5568700000000  0.5064900000000  0.5287000000000 1.0
C      1  0.5557960000000  0.4914610000000  0.4695540000000 1.0
C      1  0.4169400000000  0.5283300000000  0.5111080000000 1.0
C      1  0.4191320000000  0.4733040000000  0.4957040000000 1.0
C      1  0.5818420000000  0.5235600000000  0.4936620000000 1.0
C      1  0.5814530000000  0.4737500000000  0.5028690000000 1.0
C      1  0.4182880000000  0.5033150000000  0.5268440000000 1.0
C      1  0.4190900000000  0.4942440000000  0.4770280000000 1.0
C      1  0.5826970000000  0.4894520000000  0.5279120000000 1.0
C      1  0.5814710000000  0.5048930000000  0.4727410000000 1.0
C      1  0.5173690000000  0.5326280000000  0.5900460000000 1.0
C      1  0.5168290000000  0.4644610000000  0.4106740000000 1.0
C      1  0.4812630000000  0.5334540000000  0.4088930000000 1.0
C      1  0.4820420000000  0.4639000000000  0.5907730000000 1.0
C      1  0.5196170000000  0.5881900000000  0.5333270000000 1.0
C      1  0.5188870000000  0.4095710000000  0.4672570000000 1.0
C      1  0.4831960000000  0.4088020000000  0.5360840000000 1.0
C      1  0.4843480000000  0.5891310000000  0.4641960000000 1.0
C      1  0.5917880000000  0.5424480000000  0.4374760000000 1.0
C      1  0.5863460000000  0.4692680000000  0.5511500000000 1.0
C      1  0.4087770000000  0.5408630000000  0.5581810000000 1.0
C      1  0.4091630000000  0.4575640000000  0.4386650000000 1.0
C      1  0.5894950000000  0.4422100000000  0.5405070000000 1.0
C      1  0.5916920000000  0.5614880000000  0.4574430000000 1.0
C      1  0.4123910000000  0.5516230000000  0.5311180000000 1.0
C      1  0.4088220000000  0.4376500000000  0.4577010000000 1.0
C      1  0.4295270000000  0.5979150000000  0.4735430000000 1.0
C      1  0.4267820000000  0.4039670000000  0.5249680000000 1.0
C      1  0.5751450000000  0.5942220000000  0.5258330000000 1.0
C      1  0.5739190000000  0.4051880000000  0.4744300000000 1.0
C      1  0.4255510000000  0.4746460000000  0.5949350000000 1.0
C      1  0.4255900000000  0.5258250000000  0.4058870000000 1.0
C      1  0.5712130000000  0.5266860000000  0.5980320000000 1.0
C      1  0.5729350000000  0.4752600000000  0.4039450000000 1.0
C      1  0.4206210000000  0.5731130000000  0.4282780000000 1.0
C      1  0.4194200000000  0.4283710000000  0.5708700000000 1.0
C      1  0.5799930000000  0.5719540000000  0.5732140000000 1.0
C      1  0.5803460000000  0.4292670000000  0.4282160000000 1.0
END
