TITL C-3201375-1262-1290 3.38534038809833e-08 125000 -464.264794874885 0 0 75 (C1) n - 1
REM
REM in /home/nfs/bkarasulu/CARBON/AIRSS/Generating-Clusters/LCBOP/Higher-Symm/SD-CG/FIRE-CG
REM
REM
REM
REM
REM
REM ./C.cell (b20cbc046b6831c77cfcea5457e17084)
REM AIRSS Version 0.9.1 bugfix July 2018 build 013d7b7c2542+ Fri, 06 Jul 2018 19:26:36 +0100
REM compiler GCC version 9.2.1 20190827 (Red Hat 9.2.1-1)
REM options -cpp -mtune=generic -march=x86-64 -g -O0 -fpre-include=/usr/include/finclude/math-vector-fortran.h
REM seed -1370312462 116379268 -704420033 1719624131 -1389787018 1957492873 267869829 1306683811 -1667439988 -1050886940 1178302707 -412955920 -235585186 1290426195 416212620 873407030 848337145 2139801515 -1570891586 -360643330 273784562 562896325 -1377260271 1745366447 -868220301 -734664613 -1766825838 232207498 194639932 -133107358 1828534142 -1287709640 -1837894078
REM
CELL 1.54180   50.00000   50.00000   50.00000   90.00000   90.00000   90.00000
LATT -1
SFAC C  
C      1  0.4493600000000  0.5584510000000  0.4962700000000 1.0
C      1  0.5149650000000  0.4651340000000  0.5398600000000 1.0
C      1  0.6104010000000  0.4953760000000  0.4211750000000 1.0
C      1  0.5860930000000  0.4808020000000  0.5020050000000 1.0
C      1  0.4581660000000  0.5121750000000  0.5022950000000 1.0
C      1  0.4473980000000  0.4725310000000  0.5245060000000 1.0
C      1  0.4845980000000  0.5231070000000  0.4042390000000 1.0
C      1  0.5477400000000  0.5135190000000  0.4539850000000 1.0
C      1  0.4152230000000  0.5394460000000  0.4604400000000 1.0
C      1  0.5081900000000  0.4939440000000  0.5811150000000 1.0
C      1  0.4444940000000  0.4732150000000  0.4769450000000 1.0
C      1  0.5072890000000  0.4840640000000  0.5198820000000 1.0
C      1  0.4611150000000  0.4829100000000  0.4993590000000 1.0
C      1  0.5139570000000  0.4716560000000  0.5670900000000 1.0
C      1  0.5034040000000  0.4297050000000  0.5135240000000 1.0
C      1  0.3910130000000  0.4893880000000  0.5552140000000 1.0
C      1  0.5659360000000  0.4092070000000  0.4904560000000 1.0
C      1  0.5827490000000  0.5056670000000  0.4879440000000 1.0
C      1  0.5222490000000  0.5076100000000  0.5202390000000 1.0
C      1  0.5538290000000  0.4414050000000  0.5256700000000 1.0
C      1  0.5025160000000  0.5196810000000  0.5708100000000 1.0
C      1  0.4749950000000  0.4974790000000  0.4000260000000 1.0
C      1  0.5498750000000  0.5401750000000  0.4982620000000 1.0
C      1  0.4707410000000  0.5754010000000  0.4886340000000 1.0
C      1  0.5274660000000  0.5052320000000  0.4727070000000 1.0
C      1  0.5255870000000  0.4414740000000  0.5278070000000 1.0
C      1  0.4964180000000  0.5615090000000  0.5298300000000 1.0
C      1  0.5184470000000  0.5589050000000  0.5476070000000 1.0
C      1  0.4939940000000  0.4446960000000  0.4904860000000 1.0
C      1  0.5685100000000  0.4599990000000  0.5426490000000 1.0
C      1  0.4960440000000  0.5252190000000  0.4309060000000 1.0
C      1  0.5174500000000  0.5715310000000  0.4827310000000 1.0
C      1  0.4199940000000  0.4653120000000  0.5230590000000 1.0
C      1  0.4130310000000  0.4946000000000  0.4333460000000 1.0
C      1  0.4695040000000  0.4295910000000  0.5512550000000 1.0
C      1  0.4834510000000  0.4191650000000  0.5307440000000 1.0
C      1  0.4565260000000  0.5036700000000  0.5617110000000 1.0
C      1  0.4965960000000  0.5732180000000  0.5035890000000 1.0
C      1  0.4577200000000  0.4768150000000  0.5508400000000 1.0
C      1  0.4911480000000  0.4754450000000  0.4945890000000 1.0
C      1  0.5030140000000  0.4912180000000  0.4686730000000 1.0
C      1  0.5448670000000  0.5632200000000  0.4828370000000 1.0
C      1  0.5133690000000  0.5455860000000  0.4400360000000 1.0
C      1  0.5768830000000  0.4840800000000  0.5297630000000 1.0
C      1  0.5842250000000  0.4546630000000  0.4917180000000 1.0
C      1  0.5250630000000  0.5334400000000  0.5588360000000 1.0
C      1  0.3971770000000  0.4724520000000  0.5352780000000 1.0
C      1  0.5399000000000  0.5160290000000  0.5416620000000 1.0
C      1  0.4621560000000  0.4527570000000  0.5658010000000 1.0
C      1  0.4909570000000  0.4982530000000  0.4440540000000 1.0
C      1  0.4318960000000  0.5111030000000  0.5733020000000 1.0
C      1  0.5040980000000  0.5673590000000  0.4561570000000 1.0
C      1  0.4106140000000  0.5191330000000  0.4437240000000 1.0
C      1  0.5749790000000  0.5064350000000  0.4602930000000 1.0
C      1  0.4788150000000  0.4823760000000  0.4229330000000 1.0
C      1  0.4816270000000  0.4331880000000  0.4677430000000 1.0
C      1  0.5759510000000  0.5763810000000  0.4456750000000 1.0
C      1  0.5727780000000  0.5255970000000  0.5073850000000 1.0
C      1  0.5417340000000  0.5397500000000  0.4430030000000 1.0
C      1  0.5678660000000  0.4338110000000  0.5019260000000 1.0
C      1  0.4273240000000  0.5539400000000  0.4793630000000 1.0
C      1  0.5670950000000  0.5114470000000  0.5333390000000 1.0
C      1  0.4769890000000  0.5234390000000  0.5575340000000 1.0
C      1  0.4601130000000  0.4372310000000  0.4518130000000 1.0
C      1  0.5287290000000  0.5202840000000  0.4964330000000 1.0
C      1  0.4575530000000  0.5374620000000  0.5136800000000 1.0
C      1  0.4774570000000  0.5767520000000  0.4606450000000 1.0
C      1  0.4749830000000  0.5425090000000  0.5356190000000 1.0
C      1  0.4057840000000  0.5054990000000  0.5708370000000 1.0
C      1  0.4413360000000  0.4582230000000  0.4535130000000 1.0
C      1  0.4239350000000  0.4700610000000  0.4349460000000 1.0
C      1  0.4584670000000  0.4518290000000  0.5928620000000 1.0
C      1  0.5932550000000  0.5006430000000  0.4400770000000 1.0
C      1  0.5560490000000  0.5612450000000  0.4561640000000 1.0
C      1  0.5747790000000  0.4541750000000  0.5685750000000 1.0
END
