TITL C-3201376-6384-2266 0.000166104581797794 125000 -342.208666128599 0 0 60 (C1) n - 1
REM
REM in /home/nfs/bkarasulu/CARBON/AIRSS/Generating-Clusters/LCBOP/Higher-Symm/SD-CG/FIRE-CG
REM
REM
REM
REM
REM
REM ./C.cell (b20cbc046b6831c77cfcea5457e17084)
REM AIRSS Version 0.9.1 bugfix July 2018 build 013d7b7c2542+ Fri, 06 Jul 2018 19:26:36 +0100
REM compiler GCC version 9.2.1 20190827 (Red Hat 9.2.1-1)
REM options -cpp -mtune=generic -march=x86-64 -g -O0 -fpre-include=/usr/include/finclude/math-vector-fortran.h
REM seed 1323943501 319617772 1030369492 -1889956685 1679320355 1253802471 612602188 -1797262056 263359020 537698951 1165985336 737586112 467269322 -1816199810 -407882666 -2089923739 -893205786 -1366030704 1541722364 135760975 -1897121435 -231173770 1247350349 72157840 1796687510 -1865761154 -985306304 -1623845072 -1434243440 11333605 -2092156022 -383950769 992111101
REM
CELL 1.54180   50.00000   50.00000   50.00000   90.00000   90.00000   90.00000
LATT -1
SFAC C  
C      1  0.5345730000000  0.5365250000000  0.5295750000000 1.0
C      1  0.5113570000000  0.5278730000000  0.5462480000000 1.0
C      1  0.5446530000000  0.5142240000000  0.5117590000000 1.0
C      1  0.4609690000000  0.4733170000000  0.5197560000000 1.0
C      1  0.5044920000000  0.5687330000000  0.5005190000000 1.0
C      1  0.5214630000000  0.4386470000000  0.4924280000000 1.0
C      1  0.4832700000000  0.4875960000000  0.5349140000000 1.0
C      1  0.4604710000000  0.5025210000000  0.4502690000000 1.0
C      1  0.5131310000000  0.4881920000000  0.4454780000000 1.0
C      1  0.4376270000000  0.4846920000000  0.5077160000000 1.0
C      1  0.4446840000000  0.4806470000000  0.4564750000000 1.0
C      1  0.5378390000000  0.4983570000000  0.4591920000000 1.0
C      1  0.5279120000000  0.5632640000000  0.5143340000000 1.0
C      1  0.4897410000000  0.5064680000000  0.4494880000000 1.0
C      1  0.5408770000000  0.5180540000000  0.4819890000000 1.0
C      1  0.5030580000000  0.4422660000000  0.4714970000000 1.0
C      1  0.4774370000000  0.5579210000000  0.5060050000000 1.0
C      1  0.5146830000000  0.4445830000000  0.5209920000000 1.0
C      1  0.5081260000000  0.4574830000000  0.4487200000000 1.0
C      1  0.4879660000000  0.5178890000000  0.5329580000000 1.0
C      1  0.5128010000000  0.4718500000000  0.5341980000000 1.0
C      1  0.4303930000000  0.4760140000000  0.4820160000000 1.0
C      1  0.4698870000000  0.5382110000000  0.5244380000000 1.0
C      1  0.5374440000000  0.4861060000000  0.5237010000000 1.0
C      1  0.5167160000000  0.4663310000000  0.5651260000000 1.0
C      1  0.5578800000000  0.5391980000000  0.4702320000000 1.0
C      1  0.4592700000000  0.5743300000000  0.4901270000000 1.0
C      1  0.5119020000000  0.5392260000000  0.6259420000000 1.0
C      1  0.5099130000000  0.4450900000000  0.4224820000000 1.0
C      1  0.4933110000000  0.5349170000000  0.4430780000000 1.0
C      1  0.4100890000000  0.4559620000000  0.4758980000000 1.0
C      1  0.4445290000000  0.5398760000000  0.5363930000000 1.0
C      1  0.5627660000000  0.4721520000000  0.5288040000000 1.0
C      1  0.5249810000000  0.4214230000000  0.5357720000000 1.0
C      1  0.5474640000000  0.5831730000000  0.5223040000000 1.0
C      1  0.4785560000000  0.4288630000000  0.4754370000000 1.0
C      1  0.5178070000000  0.4886650000000  0.4138570000000 1.0
C      1  0.5766320000000  0.5123810000000  0.5141620000000 1.0
C      1  0.5006110000000  0.5901560000000  0.4811810000000 1.0
C      1  0.4487730000000  0.5281400000000  0.4426190000000 1.0
C      1  0.4750320000000  0.4834380000000  0.5655130000000 1.0
C      1  0.5117940000000  0.5317020000000  0.5739290000000 1.0
C      1  0.4203850000000  0.5009610000000  0.5225720000000 1.0
C      1  0.4334000000000  0.4615750000000  0.4376040000000 1.0
C      1  0.5604190000000  0.5047230000000  0.4413960000000 1.0
C      1  0.5399170000000  0.4160820000000  0.4934570000000 1.0
C      1  0.5579970000000  0.5471990000000  0.5476400000000 1.0
C      1  0.4613540000000  0.4450300000000  0.5179840000000 1.0
C      1  0.4227740000000  0.5243340000000  0.5353410000000 1.0
C      1  0.5704750000000  0.5298450000000  0.4473660000000 1.0
C      1  0.5406890000000  0.4056600000000  0.5191580000000 1.0
C      1  0.4687360000000  0.5468410000000  0.4383160000000 1.0
C      1  0.4735830000000  0.5932750000000  0.4757370000000 1.0
C      1  0.4636290000000  0.4275720000000  0.4977340000000 1.0
C      1  0.5642090000000  0.5734050000000  0.5418580000000 1.0
C      1  0.4948740000000  0.4721580000000  0.5802670000000 1.0
C      1  0.5155130000000  0.4636050000000  0.4029360000000 1.0
C      1  0.5119030000000  0.5358220000000  0.6000970000000 1.0
C      1  0.5845930000000  0.4879410000000  0.5234490000000 1.0
C      1  0.4126690000000  0.4475180000000  0.4495680000000 1.0
END
