TITL C-3201373-1215-685 -0.375126889327753 125000 -84.9025922515515 0 0 24 (Oh) n - 1
REM
REM in /home/nfs/bkarasulu/CARBON/AIRSS/Generating-Clusters/LCBOP/Higher-Symm/SD-CG/FIRE-CG
REM
REM
REM
REM
REM
REM ./C.cell (b20cbc046b6831c77cfcea5457e17084)
REM AIRSS Version 0.9.1 bugfix July 2018 build 013d7b7c2542+ Fri, 06 Jul 2018 19:26:36 +0100
REM compiler GCC version 9.2.1 20190827 (Red Hat 9.2.1-1)
REM options -cpp -mtune=generic -march=x86-64 -g -O0 -fpre-include=/usr/include/finclude/math-vector-fortran.h
REM seed -651601000 -26564970 562160732 125421584 -1504184931 -834231824 409073020 1961853013 -58689398 62156549 1308975615 -123292924 464664052 1111947879 -494902445 -807682228 -842206910 -2054745241 1355195701 -255062909 -926236486 -1853524577 -996221289 -343798858 -1613615914 -1770096538 630144223 -427502956 -1425983560 -1357146875 408669275 -185744897 1617343949
REM
CELL 1.54180   50.00000   50.00000   50.00000   90.00000   90.00000   90.00000
LATT -1
SFAC C  
C      1  0.4580790000000  0.4843830000000  0.5162950000000 1.0
C      1  0.5162950000000  0.4580790000000  0.4843830000000 1.0
C      1  0.4843830000000  0.5162950000000  0.4580790000000 1.0
C      1  0.4580790000000  0.5156170000000  0.4837050000000 1.0
C      1  0.5419210000000  0.5156170000000  0.5162950000000 1.0
C      1  0.5419210000000  0.4843830000000  0.4837050000000 1.0
C      1  0.5162950000000  0.5419210000000  0.5156170000000 1.0
C      1  0.4837050000000  0.5419210000000  0.4843830000000 1.0
C      1  0.4837050000000  0.4580790000000  0.5156170000000 1.0
C      1  0.4843830000000  0.4837050000000  0.5419210000000 1.0
C      1  0.5156170000000  0.4837050000000  0.4580790000000 1.0
C      1  0.5156170000000  0.5162950000000  0.5419210000000 1.0
C      1  0.5419210000000  0.4843830000000  0.5162950000000 1.0
C      1  0.4837050000000  0.4580790000000  0.4843830000000 1.0
C      1  0.5156170000000  0.5162950000000  0.4580790000000 1.0
C      1  0.5419210000000  0.5156170000000  0.4837050000000 1.0
C      1  0.4580790000000  0.5156170000000  0.5162950000000 1.0
C      1  0.4580790000000  0.4843830000000  0.4837050000000 1.0
C      1  0.4837050000000  0.5419210000000  0.5156170000000 1.0
C      1  0.5162950000000  0.5419210000000  0.4843830000000 1.0
C      1  0.5162950000000  0.4580790000000  0.5156170000000 1.0
C      1  0.5156170000000  0.4837050000000  0.5419210000000 1.0
C      1  0.4843830000000  0.4837050000000  0.4580790000000 1.0
C      1  0.4843830000000  0.5162950000000  0.5419210000000 1.0
END
