TITL C-3201373-1215-2122 -1.33228875248743e-07 125000 -1010.38045847671 0 0 168 (C1) n - 1
REM
REM in /home/nfs/bkarasulu/CARBON/AIRSS/Generating-Clusters/LCBOP/Higher-Symm/SD-CG/FIRE-CG
REM
REM
REM
REM
REM
REM ./C.cell (b20cbc046b6831c77cfcea5457e17084)
REM AIRSS Version 0.9.1 bugfix July 2018 build 013d7b7c2542+ Fri, 06 Jul 2018 19:26:36 +0100
REM compiler GCC version 9.2.1 20190827 (Red Hat 9.2.1-1)
REM options -cpp -mtune=generic -march=x86-64 -g -O0 -fpre-include=/usr/include/finclude/math-vector-fortran.h
REM seed -620359603 826128837 2077217526 -1938066522 1104075758 1789417418 825257156 508157938 131374787 -435257132 -1839049507 -1433059612 -1381389956 289906653 -486897563 -103823175 2040647714 313486367 -472944173 924075828 828951635 -1454837034 1041408301 1197087280 -1877361378 1123965133 1583146793 2017906446 -2082178067 -295336343 372338040 1876859361 -1955666026
REM
CELL 1.54180   50.00000   50.00000   50.00000   90.00000   90.00000   90.00000
LATT -1
SFAC C  
C      1  0.4692530000000  0.4080390000000  0.5586680000000 1.0
C      1  0.4795310000000  0.6001360000000  0.4310750000000 1.0
C      1  0.4285620000000  0.4323530000000  0.5774080000000 1.0
C      1  0.4264940000000  0.5617460000000  0.4325840000000 1.0
C      1  0.5270040000000  0.4992400000000  0.6066320000000 1.0
C      1  0.5364330000000  0.4951750000000  0.3932670000000 1.0
C      1  0.4567990000000  0.5740720000000  0.4976940000000 1.0
C      1  0.4705890000000  0.4449820000000  0.5078730000000 1.0
C      1  0.5600110000000  0.5121300000000  0.3985310000000 1.0
C      1  0.5511470000000  0.4854740000000  0.5956970000000 1.0
C      1  0.5471260000000  0.5372660000000  0.5236120000000 1.0
C      1  0.5468470000000  0.4597350000000  0.4657240000000 1.0
C      1  0.5137060000000  0.4353800000000  0.5302040000000 1.0
C      1  0.5143960000000  0.5717670000000  0.4791300000000 1.0
C      1  0.5901890000000  0.4370850000000  0.5151710000000 1.0
C      1  0.5837010000000  0.5612590000000  0.4864100000000 1.0
C      1  0.4811050000000  0.5691070000000  0.5417630000000 1.0
C      1  0.4833590000000  0.4292120000000  0.4590650000000 1.0
C      1  0.3989960000000  0.5262910000000  0.5426620000000 1.0
C      1  0.3964570000000  0.4589150000000  0.4576090000000 1.0
C      1  0.6208170000000  0.4616470000000  0.4838120000000 1.0
C      1  0.6171620000000  0.5383400000000  0.5149940000000 1.0
C      1  0.5582610000000  0.4604270000000  0.5823610000000 1.0
C      1  0.5611210000000  0.5371300000000  0.4144870000000 1.0
C      1  0.5420590000000  0.4414200000000  0.5283820000000 1.0
C      1  0.5366080000000  0.5551410000000  0.4711770000000 1.0
C      1  0.5790500000000  0.4928060000000  0.4082130000000 1.0
C      1  0.5708630000000  0.5053580000000  0.5886550000000 1.0
C      1  0.5526670000000  0.5227820000000  0.5478810000000 1.0
C      1  0.5471780000000  0.4777280000000  0.4432350000000 1.0
C      1  0.5554050000000  0.5700640000000  0.5771210000000 1.0
C      1  0.5583950000000  0.4225000000000  0.4247860000000 1.0
C      1  0.5122340000000  0.5361980000000  0.5729690000000 1.0
C      1  0.4970770000000  0.4676150000000  0.4349170000000 1.0
C      1  0.4978960000000  0.6297830000000  0.3896260000000 1.0
C      1  0.4688130000000  0.3685330000000  0.5958510000000 1.0
C      1  0.5034250000000  0.4458410000000  0.6299640000000 1.0
C      1  0.4876750000000  0.5378510000000  0.3650270000000 1.0
C      1  0.6228390000000  0.5143070000000  0.5256430000000 1.0
C      1  0.6235310000000  0.4857560000000  0.4723810000000 1.0
C      1  0.5378900000000  0.4765040000000  0.4885150000000 1.0
C      1  0.5289860000000  0.5243040000000  0.5056490000000 1.0
C      1  0.4594770000000  0.5760910000000  0.5863000000000 1.0
C      1  0.4703600000000  0.4155390000000  0.4122580000000 1.0
C      1  0.5070760000000  0.3928070000000  0.4794200000000 1.0
C      1  0.5108720000000  0.6081630000000  0.5269310000000 1.0
C      1  0.4563030000000  0.5261660000000  0.5945780000000 1.0
C      1  0.4426010000000  0.4531620000000  0.4006880000000 1.0
C      1  0.5516680000000  0.5606340000000  0.4037970000000 1.0
C      1  0.5511290000000  0.4362690000000  0.5933160000000 1.0
C      1  0.4138270000000  0.4614070000000  0.5116920000000 1.0
C      1  0.4122870000000  0.5214760000000  0.4905670000000 1.0
C      1  0.4361280000000  0.5468980000000  0.4101570000000 1.0
C      1  0.4445820000000  0.4504210000000  0.5926670000000 1.0
C      1  0.4318200000000  0.5221320000000  0.5787230000000 1.0
C      1  0.4253490000000  0.4641420000000  0.4203060000000 1.0
C      1  0.5971030000000  0.5583450000000  0.5121940000000 1.0
C      1  0.6018950000000  0.4412720000000  0.4884930000000 1.0
C      1  0.5403770000000  0.4025730000000  0.4373150000000 1.0
C      1  0.5375950000000  0.5896260000000  0.5658120000000 1.0
C      1  0.5129580000000  0.4325280000000  0.6502380000000 1.0
C      1  0.4970740000000  0.5399410000000  0.3408120000000 1.0
C      1  0.4452670000000  0.5530460000000  0.4829890000000 1.0
C      1  0.4572880000000  0.4692500000000  0.5165950000000 1.0
C      1  0.3915910000000  0.4577830000000  0.5642400000000 1.0
C      1  0.4147600000000  0.5284670000000  0.4620480000000 1.0
C      1  0.5091000000000  0.4789380000000  0.4834210000000 1.0
C      1  0.5078650000000  0.5110180000000  0.5181840000000 1.0
C      1  0.5750560000000  0.4609390000000  0.5575710000000 1.0
C      1  0.5723970000000  0.5367600000000  0.4422880000000 1.0
C      1  0.3941580000000  0.4986670000000  0.5401400000000 1.0
C      1  0.3988750000000  0.4855470000000  0.4653460000000 1.0
C      1  0.5268350000000  0.5168280000000  0.5592790000000 1.0
C      1  0.5190220000000  0.4899630000000  0.4371250000000 1.0
C      1  0.5471960000000  0.5645320000000  0.5223520000000 1.0
C      1  0.5588130000000  0.4355820000000  0.4727180000000 1.0
C      1  0.5878900000000  0.4862050000000  0.5501310000000 1.0
C      1  0.5855880000000  0.5116470000000  0.4489110000000 1.0
C      1  0.5473060000000  0.5510340000000  0.5983180000000 1.0
C      1  0.5493040000000  0.4422040000000  0.4051220000000 1.0
C      1  0.5137300000000  0.5151350000000  0.4565000000000 1.0
C      1  0.5125220000000  0.4985880000000  0.5434010000000 1.0
C      1  0.4180810000000  0.4943300000000  0.4190220000000 1.0
C      1  0.4191780000000  0.4955040000000  0.5821500000000 1.0
C      1  0.5823270000000  0.5696590000000  0.5656150000000 1.0
C      1  0.5855380000000  0.4256210000000  0.4372290000000 1.0
C      1  0.4793960000000  0.5352950000000  0.3914110000000 1.0
C      1  0.4919940000000  0.4604550000000  0.6089510000000 1.0
C      1  0.4964000000000  0.5834170000000  0.5228110000000 1.0
C      1  0.4979150000000  0.4199940000000  0.4814310000000 1.0
C      1  0.4865260000000  0.5553350000000  0.4461850000000 1.0
C      1  0.5002160000000  0.4481230000000  0.5521240000000 1.0
C      1  0.4836620000000  0.5109630000000  0.5041110000000 1.0
C      1  0.4836970000000  0.4907320000000  0.4853020000000 1.0
C      1  0.4486390000000  0.4285010000000  0.4940500000000 1.0
C      1  0.4405940000000  0.5778860000000  0.5220840000000 1.0
C      1  0.5320850000000  0.3952860000000  0.4646000000000 1.0
C      1  0.5279450000000  0.6113310000000  0.5496570000000 1.0
C      1  0.4509900000000  0.4981290000000  0.4505490000000 1.0
C      1  0.4560300000000  0.4918300000000  0.5344420000000 1.0
C      1  0.4714560000000  0.5116140000000  0.4342580000000 1.0
C      1  0.4705760000000  0.4862540000000  0.5576240000000 1.0
C      1  0.4747900000000  0.6141800000000  0.4565340000000 1.0
C      1  0.4575560000000  0.4013740000000  0.5325510000000 1.0
C      1  0.5730020000000  0.4888850000000  0.4358890000000 1.0
C      1  0.5740920000000  0.5091340000000  0.5606920000000 1.0
C      1  0.3956730000000  0.4984130000000  0.4914170000000 1.0
C      1  0.3959640000000  0.4837860000000  0.5155570000000 1.0
C      1  0.3983990000000  0.4851180000000  0.5646520000000 1.0
C      1  0.4198520000000  0.5019310000000  0.4485330000000 1.0
C      1  0.4693100000000  0.5845840000000  0.5626080000000 1.0
C      1  0.4764070000000  0.4112900000000  0.4382150000000 1.0
C      1  0.4972700000000  0.4770490000000  0.5534650000000 1.0
C      1  0.4891480000000  0.5280460000000  0.4501220000000 1.0
C      1  0.4899630000000  0.4584670000000  0.4085120000000 1.0
C      1  0.4968520000000  0.5488100000000  0.5906930000000 1.0
C      1  0.5808070000000  0.5068460000000  0.4993990000000 1.0
C      1  0.5593560000000  0.4971060000000  0.4887680000000 1.0
C      1  0.4889850000000  0.6158190000000  0.4097430000000 1.0
C      1  0.4691000000000  0.3870480000000  0.5775160000000 1.0
C      1  0.4682470000000  0.4416120000000  0.4014330000000 1.0
C      1  0.4691810000000  0.5514800000000  0.5953930000000 1.0
C      1  0.5861340000000  0.4334030000000  0.4653860000000 1.0
C      1  0.5886980000000  0.5696120000000  0.5374880000000 1.0
C      1  0.4539950000000  0.6331970000000  0.4560050000000 1.0
C      1  0.4365790000000  0.4170670000000  0.5183190000000 1.0
C      1  0.4874100000000  0.5819080000000  0.4934140000000 1.0
C      1  0.4965050000000  0.4331920000000  0.5066790000000 1.0
C      1  0.6121310000000  0.4925040000000  0.5373340000000 1.0
C      1  0.6105930000000  0.5060640000000  0.4604860000000 1.0
C      1  0.4878320000000  0.6107760000000  0.4821580000000 1.0
C      1  0.4729190000000  0.3826820000000  0.5163500000000 1.0
C      1  0.5281540000000  0.5283410000000  0.4773880000000 1.0
C      1  0.5411570000000  0.4658540000000  0.5146460000000 1.0
C      1  0.5485020000000  0.4113500000000  0.4817430000000 1.0
C      1  0.5356620000000  0.6367760000000  0.5566310000000 1.0
C      1  0.6035070000000  0.5696000000000  0.5832660000000 1.0
C      1  0.6084020000000  0.4213870000000  0.4227930000000 1.0
C      1  0.5035000000000  0.6244090000000  0.5032270000000 1.0
C      1  0.4919630000000  0.3768960000000  0.4975720000000 1.0
C      1  0.4326480000000  0.4756400000000  0.5975150000000 1.0
C      1  0.4250540000000  0.5197140000000  0.4051130000000 1.0
C      1  0.4172660000000  0.4366210000000  0.5286180000000 1.0
C      1  0.4342080000000  0.6501450000000  0.4554830000000 1.0
C      1  0.4729260000000  0.4467630000000  0.5916720000000 1.0
C      1  0.4634890000000  0.5551960000000  0.4046710000000 1.0
C      1  0.4790020000000  0.4570260000000  0.4547400000000 1.0
C      1  0.4716070000000  0.5423180000000  0.5368510000000 1.0
C      1  0.4102770000000  0.4379570000000  0.5565220000000 1.0
C      1  0.4292040000000  0.5524750000000  0.4587290000000 1.0
C      1  0.4204910000000  0.5394530000000  0.5565360000000 1.0
C      1  0.4204300000000  0.4478330000000  0.4460520000000 1.0
C      1  0.4984450000000  0.4890200000000  0.6069330000000 1.0
C      1  0.5135870000000  0.5025530000000  0.4091320000000 1.0
C      1  0.5355780000000  0.5283860000000  0.6099680000000 1.0
C      1  0.5420140000000  0.4658100000000  0.3927340000000 1.0
C      1  0.4359570000000  0.4328080000000  0.4669990000000 1.0
C      1  0.4289970000000  0.5636710000000  0.5428300000000 1.0
C      1  0.4597260000000  0.5190980000000  0.5199300000000 1.0
C      1  0.4617000000000  0.4781540000000  0.4693690000000 1.0
C      1  0.4761370000000  0.5718700000000  0.4258530000000 1.0
C      1  0.4818580000000  0.4328440000000  0.5677460000000 1.0
C      1  0.4746830000000  0.5055990000000  0.6040650000000 1.0
C      1  0.4860480000000  0.5126670000000  0.4078060000000 1.0
C      1  0.4377080000000  0.4710050000000  0.4963950000000 1.0
C      1  0.4380780000000  0.5298900000000  0.5010380000000 1.0
C      1  0.5650680000000  0.5549840000000  0.4647420000000 1.0
C      1  0.5702670000000  0.4411230000000  0.5364070000000 1.0
END
