TITL C-3201378-2706-1294 -1.12439961702315 125000 -691.813340720457 0 0 114 (C1) n - 1
REM
REM in /home/nfs/bkarasulu/CARBON/AIRSS/Generating-Clusters/LCBOP/Higher-Symm/SD-CG/FIRE-CG
REM
REM
REM
REM
REM
REM ./C.cell (b20cbc046b6831c77cfcea5457e17084)
REM AIRSS Version 0.9.1 bugfix July 2018 build 013d7b7c2542+ Fri, 06 Jul 2018 19:26:36 +0100
REM compiler GCC version 9.2.1 20190827 (Red Hat 9.2.1-1)
REM options -cpp -mtune=generic -march=x86-64 -g -O0 -fpre-include=/usr/include/finclude/math-vector-fortran.h
REM seed 1245530186 842768545 1206263748 108986023 901143709 1757248805 -1010780418 1279549064 1541983754 -911834479 1387884999 1728110237 -180775402 800363437 -2023381848 1869947899 661186391 810385730 -1920382835 -1941136564 1783009418 854520584 -164559091 1231834259 -353886261 -122058117 -78557274 -54302226 1292984400 197779170 -546275821 -324893763 -1753414459
REM
CELL 1.54180   50.00000   50.00000   50.00000   90.00000   90.00000   90.00000
LATT -1
SFAC C  
C      1  0.5195560000000  0.4249690000000  0.4057540000000 1.0
C      1  0.5067650000000  0.5553560000000  0.4110200000000 1.0
C      1  0.5467780000000  0.5820130000000  0.4814460000000 1.0
C      1  0.5454310000000  0.4146210000000  0.4838600000000 1.0
C      1  0.5248840000000  0.4567280000000  0.5030030000000 1.0
C      1  0.5154720000000  0.5514880000000  0.5029540000000 1.0
C      1  0.5127860000000  0.4698410000000  0.4574790000000 1.0
C      1  0.5117930000000  0.5157080000000  0.4676840000000 1.0
C      1  0.4675640000000  0.4751210000000  0.5703140000000 1.0
C      1  0.4654670000000  0.5328920000000  0.5731050000000 1.0
C      1  0.5723090000000  0.5506570000000  0.5210130000000 1.0
C      1  0.5724930000000  0.4050440000000  0.5242960000000 1.0
C      1  0.5574220000000  0.5560940000000  0.4145950000000 1.0
C      1  0.5645670000000  0.4444520000000  0.4178440000000 1.0
C      1  0.5216520000000  0.4421080000000  0.5468650000000 1.0
C      1  0.5143290000000  0.5760350000000  0.5453150000000 1.0
C      1  0.4661420000000  0.4102680000000  0.4872310000000 1.0
C      1  0.4609650000000  0.5919000000000  0.4842730000000 1.0
C      1  0.4558250000000  0.4375210000000  0.4936340000000 1.0
C      1  0.4457090000000  0.5714370000000  0.4999760000000 1.0
C      1  0.4262660000000  0.5349790000000  0.5327240000000 1.0
C      1  0.4384600000000  0.4814310000000  0.5237140000000 1.0
C      1  0.4955610000000  0.4397660000000  0.5328210000000 1.0
C      1  0.4889590000000  0.5785470000000  0.5312940000000 1.0
C      1  0.4880810000000  0.5536700000000  0.4299660000000 1.0
C      1  0.4995970000000  0.4210590000000  0.4230720000000 1.0
C      1  0.5188740000000  0.4029660000000  0.4801490000000 1.0
C      1  0.5167710000000  0.5885950000000  0.4751950000000 1.0
C      1  0.5398560000000  0.4418390000000  0.5233740000000 1.0
C      1  0.5311040000000  0.5672460000000  0.5232980000000 1.0
C      1  0.4908010000000  0.4521080000000  0.4604500000000 1.0
C      1  0.4693080000000  0.5367140000000  0.4755810000000 1.0
C      1  0.5727470000000  0.4769350000000  0.4546100000000 1.0
C      1  0.5712240000000  0.5280460000000  0.4521970000000 1.0
C      1  0.5159190000000  0.4580830000000  0.5700510000000 1.0
C      1  0.5073340000000  0.5659980000000  0.5708850000000 1.0
C      1  0.4869030000000  0.5827320000000  0.4701540000000 1.0
C      1  0.4914510000000  0.4072420000000  0.4714470000000 1.0
C      1  0.4808050000000  0.5562850000000  0.4568430000000 1.0
C      1  0.4912360000000  0.4259650000000  0.4491420000000 1.0
C      1  0.5555700000000  0.5716510000000  0.5088940000000 1.0
C      1  0.5535330000000  0.4198340000000  0.5114510000000 1.0
C      1  0.4654500000000  0.5507790000000  0.4996130000000 1.0
C      1  0.4790380000000  0.4530160000000  0.4866840000000 1.0
C      1  0.4379700000000  0.4538110000000  0.5097190000000 1.0
C      1  0.4258210000000  0.5594730000000  0.5175230000000 1.0
C      1  0.5548260000000  0.5273700000000  0.4755230000000 1.0
C      1  0.5568110000000  0.4807380000000  0.4777070000000 1.0
C      1  0.5689090000000  0.5539930000000  0.4401290000000 1.0
C      1  0.5697420000000  0.4495230000000  0.4450640000000 1.0
C      1  0.5444360000000  0.4344330000000  0.4032950000000 1.0
C      1  0.5326250000000  0.5563740000000  0.4045280000000 1.0
C      1  0.5276140000000  0.5375170000000  0.4784680000000 1.0
C      1  0.5324880000000  0.4672450000000  0.4783350000000 1.0
C      1  0.4840580000000  0.5536630000000  0.5777540000000 1.0
C      1  0.4875280000000  0.4560290000000  0.5767060000000 1.0
C      1  0.4887490000000  0.5578470000000  0.5118120000000 1.0
C      1  0.4970010000000  0.4534960000000  0.5079390000000 1.0
C      1  0.4448720000000  0.4800860000000  0.5537710000000 1.0
C      1  0.4405170000000  0.5296080000000  0.5575570000000 1.0
C      1  0.5609100000000  0.4283500000000  0.4634030000000 1.0
C      1  0.5635530000000  0.5753100000000  0.4588320000000 1.0
C      1  0.4483120000000  0.4904670000000  0.3779560000000 1.0
C      1  0.4577750000000  0.4930830000000  0.4381590000000 1.0
C      1  0.6299180000000  0.5098620000000  0.4281180000000 1.0
C      1  0.5257160000000  0.4850720000000  0.5742930000000 1.0
C      1  0.5998900000000  0.4594290000000  0.5701630000000 1.0
C      1  0.3677100000000  0.4933190000000  0.5228100000000 1.0
C      1  0.4779100000000  0.4936100000000  0.6321420000000 1.0
C      1  0.3841850000000  0.4965560000000  0.4358130000000 1.0
C      1  0.3860260000000  0.4546220000000  0.3799420000000 1.0
C      1  0.6180500000000  0.4759390000000  0.5229890000000 1.0
C      1  0.4208790000000  0.4968520000000  0.4696830000000 1.0
C      1  0.6243320000000  0.4855990000000  0.4989930000000 1.0
C      1  0.5067400000000  0.4961520000000  0.4475020000000 1.0
C      1  0.4765870000000  0.5037100000000  0.5830680000000 1.0
C      1  0.4752580000000  0.5122210000000  0.5330600000000 1.0
C      1  0.5489170000000  0.4641550000000  0.6289480000000 1.0
C      1  0.5257060000000  0.4732110000000  0.6383610000000 1.0
C      1  0.4848190000000  0.4972360000000  0.4291060000000 1.0
C      1  0.4323620000000  0.4903710000000  0.4238280000000 1.0
C      1  0.5696720000000  0.4579610000000  0.6134450000000 1.0
C      1  0.6096870000000  0.4666530000000  0.5464880000000 1.0
C      1  0.5868450000000  0.4562020000000  0.5931560000000 1.0
C      1  0.5003650000000  0.5048510000000  0.4923150000000 1.0
C      1  0.5626570000000  0.5259430000000  0.5338720000000 1.0
C      1  0.4139140000000  0.4989860000000  0.5866590000000 1.0
C      1  0.5463100000000  0.5090380000000  0.5170220000000 1.0
C      1  0.3760130000000  0.4957790000000  0.4965800000000 1.0
C      1  0.4318870000000  0.4990520000000  0.6096200000000 1.0
C      1  0.4044930000000  0.5007110000000  0.4927140000000 1.0
C      1  0.5018670000000  0.5099330000000  0.5409080000000 1.0
C      1  0.4696730000000  0.5066790000000  0.4859830000000 1.0
C      1  0.4601710000000  0.4996190000000  0.5131930000000 1.0
C      1  0.5048450000000  0.5042710000000  0.5690750000000 1.0
C      1  0.3881820000000  0.4967150000000  0.5424840000000 1.0
C      1  0.6140320000000  0.5026550000000  0.4490850000000 1.0
C      1  0.5174850000000  0.5059400000000  0.5174480000000 1.0
C      1  0.5515240000000  0.4964570000000  0.5736020000000 1.0
C      1  0.4062060000000  0.4688350000000  0.3883090000000 1.0
C      1  0.4104760000000  0.4943290000000  0.4425390000000 1.0
C      1  0.4895430000000  0.4995470000000  0.4015390000000 1.0
C      1  0.5012310000000  0.4835510000000  0.6403060000000 1.0
C      1  0.4321360000000  0.5031670000000  0.5654070000000 1.0
C      1  0.4284850000000  0.4834460000000  0.3965980000000 1.0
C      1  0.5649710000000  0.5156910000000  0.5600710000000 1.0
C      1  0.3895190000000  0.4956100000000  0.5713820000000 1.0
C      1  0.4503340000000  0.4951870000000  0.4662900000000 1.0
C      1  0.5581310000000  0.5046180000000  0.4919380000000 1.0
C      1  0.6245600000000  0.4947980000000  0.4740000000000 1.0
C      1  0.5855260000000  0.5024830000000  0.4470230000000 1.0
C      1  0.4742510000000  0.4969540000000  0.3796940000000 1.0
C      1  0.4613930000000  0.5007180000000  0.6106150000000 1.0
C      1  0.4145890000000  0.5033610000000  0.5223580000000 1.0
END
