TITL C-3201379-3821-399 -7.31383775193474e-07 125000 -426.844068213844 0 0 70 (C1) n - 1
REM
REM in /home/nfs/bkarasulu/CARBON/AIRSS/Generating-Clusters/LCBOP/Higher-Symm/SD-CG/FIRE-CG
REM
REM
REM
REM
REM
REM ./C.cell (b20cbc046b6831c77cfcea5457e17084)
REM AIRSS Version 0.9.1 bugfix July 2018 build 013d7b7c2542+ Fri, 06 Jul 2018 19:26:36 +0100
REM compiler GCC version 9.2.1 20190827 (Red Hat 9.2.1-1)
REM options -cpp -mtune=generic -march=x86-64 -g -O0 -fpre-include=/usr/include/finclude/math-vector-fortran.h
REM seed -2014168645 514596852 -489597854 -1109794110 -640527491 -1486044114 357214056 -976476317 277486115 1903819809 242479344 44572975 -980355082 -14885249 1303971045 1334567549 741071605 -48090908 -1847478050 -488186493 -812800843 54874663 1361877109 -1403258773 -2108131451 1189841736 2059395448 -860126883 1419917661 -942669230 -1972193945 328207374 -745550247
REM
CELL 1.54180   50.00000   50.00000   50.00000   90.00000   90.00000   90.00000
LATT -1
SFAC C  
C      1  0.5532450000000  0.4862760000000  0.5290320000000 1.0
C      1  0.4447610000000  0.4862300000000  0.4714350000000 1.0
C      1  0.4467060000000  0.5098710000000  0.5323960000000 1.0
C      1  0.5503910000000  0.5133720000000  0.4694000000000 1.0
C      1  0.5411180000000  0.4399130000000  0.5284900000000 1.0
C      1  0.4575580000000  0.4398610000000  0.4719660000000 1.0
C      1  0.4629120000000  0.5546960000000  0.5333660000000 1.0
C      1  0.5308740000000  0.5574970000000  0.4686760000000 1.0
C      1  0.4871500000000  0.5083700000000  0.4733820000000 1.0
C      1  0.5104210000000  0.5082670000000  0.5278300000000 1.0
C      1  0.5092260000000  0.4883910000000  0.4737600000000 1.0
C      1  0.4890700000000  0.4874750000000  0.5273510000000 1.0
C      1  0.5240510000000  0.4912440000000  0.4292840000000 1.0
C      1  0.4744030000000  0.4892490000000  0.5721600000000 1.0
C      1  0.4713410000000  0.5023270000000  0.4285840000000 1.0
C      1  0.5271740000000  0.5026980000000  0.5717710000000 1.0
C      1  0.5048170000000  0.5670920000000  0.4735980000000 1.0
C      1  0.4873700000000  0.5632080000000  0.5200310000000 1.0
C      1  0.4815340000000  0.4283800000000  0.4809660000000 1.0
C      1  0.5173440000000  0.4281700000000  0.5193230000000 1.0
C      1  0.4927320000000  0.4743940000000  0.5541980000000 1.0
C      1  0.5060650000000  0.4753120000000  0.4468380000000 1.0
C      1  0.5082300000000  0.5188060000000  0.5558160000000 1.0
C      1  0.4889260000000  0.5188860000000  0.4454040000000 1.0
C      1  0.5521610000000  0.5144760000000  0.5775430000000 1.0
C      1  0.4465070000000  0.5137360000000  0.4218440000000 1.0
C      1  0.4494100000000  0.4776120000000  0.5781790000000 1.0
C      1  0.5496860000000  0.4809430000000  0.4235460000000 1.0
C      1  0.4802200000000  0.5181200000000  0.5651360000000 1.0
C      1  0.5169200000000  0.5198230000000  0.4363670000000 1.0
C      1  0.5212650000000  0.4745200000000  0.5623000000000 1.0
C      1  0.4774790000000  0.4744730000000  0.4384890000000 1.0
C      1  0.4367580000000  0.5959480000000  0.4522360000000 1.0
C      1  0.5915140000000  0.5920190000000  0.5408070000000 1.0
C      1  0.6084980000000  0.4148530000000  0.4583590000000 1.0
C      1  0.3937780000000  0.4087480000000  0.5425080000000 1.0
C      1  0.5717200000000  0.4788880000000  0.4413600000000 1.0
C      1  0.4274030000000  0.4742900000000  0.5605220000000 1.0
C      1  0.4282490000000  0.5220350000000  0.4420720000000 1.0
C      1  0.5721490000000  0.5207980000000  0.5583190000000 1.0
C      1  0.4283940000000  0.5486730000000  0.4508170000000 1.0
C      1  0.5783680000000  0.5468850000000  0.5504920000000 1.0
C      1  0.5835550000000  0.4548000000000  0.4489690000000 1.0
C      1  0.4166380000000  0.4496880000000  0.5529770000000 1.0
C      1  0.5407290000000  0.4643450000000  0.5431660000000 1.0
C      1  0.4576180000000  0.4643320000000  0.4573200000000 1.0
C      1  0.4605740000000  0.5303200000000  0.5474820000000 1.0
C      1  0.5353460000000  0.5330230000000  0.4544970000000 1.0
C      1  0.5798320000000  0.4329830000000  0.4923780000000 1.0
C      1  0.4196130000000  0.4305150000000  0.5083230000000 1.0
C      1  0.4544800000000  0.5682720000000  0.4873530000000 1.0
C      1  0.5659590000000  0.5678350000000  0.5081280000000 1.0
C      1  0.5331370000000  0.4979210000000  0.4860980000000 1.0
C      1  0.4647620000000  0.4960780000000  0.5150880000000 1.0
C      1  0.4638170000000  0.5001330000000  0.4874660000000 1.0
C      1  0.5340630000000  0.5008210000000  0.5138030000000 1.0
C      1  0.4233930000000  0.5012510000000  0.4608370000000 1.0
C      1  0.5754790000000  0.4999750000000  0.5393380000000 1.0
C      1  0.5733630000000  0.5011050000000  0.4589170000000 1.0
C      1  0.4245310000000  0.4962560000000  0.5428300000000 1.0
C      1  0.5645610000000  0.4333050000000  0.5142030000000 1.0
C      1  0.4342800000000  0.4326060000000  0.4861830000000 1.0
C      1  0.4428120000000  0.5623890000000  0.5133900000000 1.0
C      1  0.5513750000000  0.5666330000000  0.4858530000000 1.0
C      1  0.4098570000000  0.4294600000000  0.5346830000000 1.0
C      1  0.5907770000000  0.4340560000000  0.4664950000000 1.0
C      1  0.5787000000000  0.5690530000000  0.5331970000000 1.0
C      1  0.4398490000000  0.5711340000000  0.4633950000000 1.0
C      1  0.4835520000000  0.5683500000000  0.4915660000000 1.0
C      1  0.4994490000000  0.4238420000000  0.5001110000000 1.0
END
