TITL C-3201373-1215-1383 0.242231394213297 125000 -380.835449001452 0 0 64 (C1) n - 1
REM
REM in /home/nfs/bkarasulu/CARBON/AIRSS/Generating-Clusters/LCBOP/Higher-Symm/SD-CG/FIRE-CG
REM
REM
REM
REM
REM
REM ./C.cell (b20cbc046b6831c77cfcea5457e17084)
REM AIRSS Version 0.9.1 bugfix July 2018 build 013d7b7c2542+ Fri, 06 Jul 2018 19:26:36 +0100
REM compiler GCC version 9.2.1 20190827 (Red Hat 9.2.1-1)
REM options -cpp -mtune=generic -march=x86-64 -g -O0 -fpre-include=/usr/include/finclude/math-vector-fortran.h
REM seed -1603975584 -2008166807 -877597790 162821755 -1343697238 -1265667414 -880002100 -1857614543 1068467048 -308692861 -1229360635 -1824842581 551523822 -910526202 1981131377 376518124 -1138643440 -1796961409 -1355838956 1840628421 1584743897 -401639305 1595386618 -1151969475 -1839221366 1625617883 1230668535 -832871294 1543780590 483447535 1853534153 468585590 1726997032
REM
CELL 1.54180   50.00000   50.00000   50.00000   90.00000   90.00000   90.00000
LATT -1
SFAC C  
C      1  0.4259200000000  0.5167250000000  0.4807160000000 1.0
C      1  0.4413960000000  0.4689920000000  0.4992240000000 1.0
C      1  0.4285530000000  0.5144860000000  0.5287160000000 1.0
C      1  0.5099980000000  0.4733750000000  0.5836530000000 1.0
C      1  0.4932450000000  0.5846720000000  0.4668970000000 1.0
C      1  0.5119400000000  0.4421350000000  0.4340960000000 1.0
C      1  0.4938120000000  0.5546920000000  0.4281170000000 1.0
C      1  0.4871690000000  0.4184090000000  0.4707980000000 1.0
C      1  0.4975480000000  0.5219190000000  0.5872440000000 1.0
C      1  0.5304540000000  0.4316250000000  0.5004590000000 1.0
C      1  0.5386240000000  0.5291420000000  0.5473080000000 1.0
C      1  0.5388850000000  0.5331400000000  0.4514730000000 1.0
C      1  0.5699430000000  0.4705710000000  0.4656810000000 1.0
C      1  0.5659250000000  0.4664820000000  0.5437210000000 1.0
C      1  0.5433250000000  0.5578150000000  0.5090860000000 1.0
C      1  0.4314640000000  0.4815870000000  0.4747630000000 1.0
C      1  0.4299190000000  0.4931810000000  0.5489940000000 1.0
C      1  0.4190350000000  0.5326720000000  0.5068800000000 1.0
C      1  0.4560480000000  0.4460710000000  0.5106300000000 1.0
C      1  0.4690910000000  0.5465670000000  0.5527400000000 1.0
C      1  0.4725750000000  0.5085550000000  0.4232410000000 1.0
C      1  0.5744860000000  0.4970370000000  0.4639750000000 1.0
C      1  0.5696400000000  0.4431640000000  0.5310450000000 1.0
C      1  0.5684220000000  0.5550670000000  0.5220190000000 1.0
C      1  0.5281270000000  0.4650650000000  0.4415280000000 1.0
C      1  0.5184680000000  0.4615490000000  0.5581050000000 1.0
C      1  0.5029920000000  0.5753570000000  0.4922560000000 1.0
C      1  0.5219390000000  0.5443530000000  0.5264770000000 1.0
C      1  0.5171450000000  0.5153990000000  0.4444030000000 1.0
C      1  0.5051380000000  0.4418110000000  0.5096470000000 1.0
C      1  0.5174770000000  0.5019320000000  0.5851640000000 1.0
C      1  0.5080040000000  0.5723370000000  0.4450640000000 1.0
C      1  0.5111240000000  0.4228440000000  0.4558500000000 1.0
C      1  0.5362720000000  0.5053060000000  0.5625330000000 1.0
C      1  0.5320580000000  0.5602820000000  0.4581990000000 1.0
C      1  0.5345960000000  0.4311340000000  0.4722820000000 1.0
C      1  0.4668750000000  0.5557470000000  0.5253680000000 1.0
C      1  0.4580640000000  0.4872920000000  0.4315410000000 1.0
C      1  0.4674620000000  0.4544890000000  0.5378060000000 1.0
C      1  0.4977730000000  0.4904940000000  0.5272710000000 1.0
C      1  0.4909620000000  0.5272920000000  0.4915180000000 1.0
C      1  0.5002850000000  0.4833390000000  0.4759480000000 1.0
C      1  0.4937060000000  0.5515290000000  0.5104760000000 1.0
C      1  0.5163810000000  0.4882950000000  0.4527090000000 1.0
C      1  0.4995210000000  0.4593120000000  0.5339780000000 1.0
C      1  0.4553390000000  0.5122010000000  0.5186670000000 1.0
C      1  0.4472330000000  0.5295310000000  0.4665350000000 1.0
C      1  0.4597290000000  0.4893960000000  0.5067660000000 1.0
C      1  0.4798830000000  0.4986330000000  0.5508550000000 1.0
C      1  0.4757090000000  0.5299480000000  0.4666910000000 1.0
C      1  0.4779900000000  0.4652930000000  0.4716800000000 1.0
C      1  0.4800090000000  0.5235420000000  0.5651480000000 1.0
C      1  0.4896100000000  0.5272970000000  0.4390510000000 1.0
C      1  0.4795170000000  0.4399580000000  0.4906210000000 1.0
C      1  0.4563640000000  0.4794350000000  0.5521590000000 1.0
C      1  0.4395640000000  0.5559210000000  0.5118690000000 1.0
C      1  0.4540190000000  0.4750580000000  0.4566190000000 1.0
C      1  0.5486830000000  0.4534210000000  0.4594910000000 1.0
C      1  0.5424920000000  0.4786610000000  0.5524800000000 1.0
C      1  0.5316180000000  0.5685320000000  0.4861260000000 1.0
C      1  0.5528100000000  0.4279940000000  0.5168250000000 1.0
C      1  0.5657880000000  0.5395210000000  0.5444960000000 1.0
C      1  0.5633820000000  0.5206690000000  0.4577100000000 1.0
C      1  0.5006100000000  0.5008290000000  0.4992500000000 1.0
END
