TITL C-3201379-3821-297 0.551804121151339 125000 -83.490383916803 0 0 15 (Cs) n - 1
REM
REM in /home/nfs/bkarasulu/CARBON/AIRSS/Generating-Clusters/LCBOP/Higher-Symm/SD-CG/FIRE-CG
REM
REM
REM
REM
REM
REM ./C.cell (b20cbc046b6831c77cfcea5457e17084)
REM AIRSS Version 0.9.1 bugfix July 2018 build 013d7b7c2542+ Fri, 06 Jul 2018 19:26:36 +0100
REM compiler GCC version 9.2.1 20190827 (Red Hat 9.2.1-1)
REM options -cpp -mtune=generic -march=x86-64 -g -O0 -fpre-include=/usr/include/finclude/math-vector-fortran.h
REM seed -1169009235 462919156 1923803541 -1293592205 2099982710 -484238888 1145071268 -962167018 1965190084 -2011624053 137172908 -1860673474 1881401094 -1147223594 -1857769195 -1236580204 -250487832 896388171 -515546947 1802548324 1904889527 1390030077 -1258904006 692271846 2100432592 -1362593710 1944616495 -1001949269 -2136552560 -726535438 -1799416750 -1719100449 177544022
REM
CELL 1.54180   50.00000   50.00000   50.00000   90.00000   90.00000   90.00000
LATT -1
SFAC C  
C      1  0.4583450000000  0.4663620000000  0.5676320000000 1.0
C      1  0.5963190000000  0.5912190000000  0.4329580000000 1.0
C      1  0.4762520000000  0.4778960000000  0.5191020000000 1.0
C      1  0.4943430000000  0.4824860000000  0.4231050000000 1.0
C      1  0.5231650000000  0.5156920000000  0.4423420000000 1.0
C      1  0.4852050000000  0.4836640000000  0.4948370000000 1.0
C      1  0.4404360000000  0.4548260000000  0.6161700000000 1.0
C      1  0.5415210000000  0.5346410000000  0.4399690000000 1.0
C      1  0.4493920000000  0.4605950000000  0.5918980000000 1.0
C      1  0.4316280000000  0.4491520000000  0.6400420000000 1.0
C      1  0.5037860000000  0.4957250000000  0.4450980000000 1.0
C      1  0.4941700000000  0.4894460000000  0.4705920000000 1.0
C      1  0.4672980000000  0.4721290000000  0.5433670000000 1.0
C      1  0.5598850000000  0.5536010000000  0.4376190000000 1.0
C      1  0.5782530000000  0.5725660000000  0.4352690000000 1.0
END
