TITL C-3201376-6384-1988 -1.20309706007433e-05 125000 -702.011367467595 0 0 116 (Ci) n - 1
REM
REM in /home/nfs/bkarasulu/CARBON/AIRSS/Generating-Clusters/LCBOP/Higher-Symm/SD-CG/FIRE-CG
REM
REM
REM
REM
REM
REM ./C.cell (b20cbc046b6831c77cfcea5457e17084)
REM AIRSS Version 0.9.1 bugfix July 2018 build 013d7b7c2542+ Fri, 06 Jul 2018 19:26:36 +0100
REM compiler GCC version 9.2.1 20190827 (Red Hat 9.2.1-1)
REM options -cpp -mtune=generic -march=x86-64 -g -O0 -fpre-include=/usr/include/finclude/math-vector-fortran.h
REM seed -942380525 696909127 2109357190 -1198988272 459946302 -1695285666 530904688 -198532938 670808092 -395507273 1690917351 -1011652083 -1603462204 1707117436 -1795695001 -2077229814 922154 -1221843944 1563061659 1425816923 393683229 -1100610650 1074726371 1875071611 -1340620586 1347916199 -800360200 -704705406 358579496 -1671397383 -1922984933 1164161052 1081611112
REM
CELL 1.54180   50.00000   50.00000   50.00000   90.00000   90.00000   90.00000
LATT -1
SFAC C  
C      1  0.4911890000000  0.4874250000000  0.5386040000000 1.0
C      1  0.4798080000000  0.5173480000000  0.4572020000000 1.0
C      1  0.4929010000000  0.5173670000000  0.5416860000000 1.0
C      1  0.5089020000000  0.5124460000000  0.4613960000000 1.0
C      1  0.5202830000000  0.4825230000000  0.5427980000000 1.0
C      1  0.5071910000000  0.4825040000000  0.4583140000000 1.0
C      1  0.5457310000000  0.4924160000000  0.3983010000000 1.0
C      1  0.5144540000000  0.4487890000000  0.6107520000000 1.0
C      1  0.4670150000000  0.4688670000000  0.3937330000000 1.0
C      1  0.4543600000000  0.5074550000000  0.6016990000000 1.0
C      1  0.4856380000000  0.5510810000000  0.3892480000000 1.0
C      1  0.5330760000000  0.5310040000000  0.6062670000000 1.0
C      1  0.4551230000000  0.5184240000000  0.5041160000000 1.0
C      1  0.4924790000000  0.5426640000000  0.4981010000000 1.0
C      1  0.5324390000000  0.5234950000000  0.5084450000000 1.0
C      1  0.5449680000000  0.4814470000000  0.4958840000000 1.0
C      1  0.5076130000000  0.4572060000000  0.5018990000000 1.0
C      1  0.4676530000000  0.4763750000000  0.4915550000000 1.0
C      1  0.5520560000000  0.5364250000000  0.5871780000000 1.0
C      1  0.5534670000000  0.4698860000000  0.4113540000000 1.0
C      1  0.5070880000000  0.4264610000000  0.5968350000000 1.0
C      1  0.4480350000000  0.4634450000000  0.4128220000000 1.0
C      1  0.4466240000000  0.5299850000000  0.5886460000000 1.0
C      1  0.4930030000000  0.5734090000000  0.4031650000000 1.0
C      1  0.5083270000000  0.5745120000000  0.5426760000000 1.0
C      1  0.5631910000000  0.5250310000000  0.4548020000000 1.0
C      1  0.5604640000000  0.4516160000000  0.5495130000000 1.0
C      1  0.4917650000000  0.4253580000000  0.4573240000000 1.0
C      1  0.4369000000000  0.4748390000000  0.5451980000000 1.0
C      1  0.4396280000000  0.5482550000000  0.4504870000000 1.0
C      1  0.4880260000000  0.4227800000000  0.5258270000000 1.0
C      1  0.4246740000000  0.4738520000000  0.4766260000000 1.0
C      1  0.4357540000000  0.5554340000000  0.5212550000000 1.0
C      1  0.5120660000000  0.5770900000000  0.4741730000000 1.0
C      1  0.5754170000000  0.5260190000000  0.5233740000000 1.0
C      1  0.5643370000000  0.4444370000000  0.4787450000000 1.0
C      1  0.4662160000000  0.5834150000000  0.4941470000000 1.0
C      1  0.5539000000000  0.5679680000000  0.5002920000000 1.0
C      1  0.5922920000000  0.4850590000000  0.4997400000000 1.0
C      1  0.5338750000000  0.4164550000000  0.5058530000000 1.0
C      1  0.4461910000000  0.4319030000000  0.4997080000000 1.0
C      1  0.4077990000000  0.5148120000000  0.5002600000000 1.0
C      1  0.5106400000000  0.5237650000000  0.5645210000000 1.0
C      1  0.5242480000000  0.5191880000000  0.4356230000000 1.0
C      1  0.5256780000000  0.4710910000000  0.5687840000000 1.0
C      1  0.4894510000000  0.4761060000000  0.4354790000000 1.0
C      1  0.4758430000000  0.4806820000000  0.5643770000000 1.0
C      1  0.4744130000000  0.5287800000000  0.4312160000000 1.0
C      1  0.5216550000000  0.4273400000000  0.4501630000000 1.0
C      1  0.4549960000000  0.4428780000000  0.5556990000000 1.0
C      1  0.4284830000000  0.5187860000000  0.4450100000000 1.0
C      1  0.4784360000000  0.5725310000000  0.5498370000000 1.0
C      1  0.5450960000000  0.5569930000000  0.4443010000000 1.0
C      1  0.5716090000000  0.4810840000000  0.5549900000000 1.0
C      1  0.4687570000000  0.5988040000000  0.5404680000000 1.0
C      1  0.5654050000000  0.5739240000000  0.4541710000000 1.0
C      1  0.6000600000000  0.4776300000000  0.5475450000000 1.0
C      1  0.5313350000000  0.4010660000000  0.4595320000000 1.0
C      1  0.4346860000000  0.4259470000000  0.5458290000000 1.0
C      1  0.4000310000000  0.5222400000000  0.4524550000000 1.0
C      1  0.4867770000000  0.4740660000000  0.5116040000000 1.0
C      1  0.4619200000000  0.5031530000000  0.4780140000000 1.0
C      1  0.4770040000000  0.5319980000000  0.5209190000000 1.0
C      1  0.5133140000000  0.5258050000000  0.4883960000000 1.0
C      1  0.5381710000000  0.4967180000000  0.5219860000000 1.0
C      1  0.5230870000000  0.4678730000000  0.4790810000000 1.0
C      1  0.4823520000000  0.5266210000000  0.4034980000000 1.0
C      1  0.5098810000000  0.5198010000000  0.5940820000000 1.0
C      1  0.5260360000000  0.5100050000000  0.4083400000000 1.0
C      1  0.5177390000000  0.4732490000000  0.5965020000000 1.0
C      1  0.4902100000000  0.4800690000000  0.4059180000000 1.0
C      1  0.4740550000000  0.4898660000000  0.5916600000000 1.0
C      1  0.5403180000000  0.5335610000000  0.5596040000000 1.0
C      1  0.5538670000000  0.4708890000000  0.4395450000000 1.0
C      1  0.5087740000000  0.4287950000000  0.5682490000000 1.0
C      1  0.4597730000000  0.4663090000000  0.4403960000000 1.0
C      1  0.4462240000000  0.5289810000000  0.5604550000000 1.0
C      1  0.4913170000000  0.5710750000000  0.4317510000000 1.0
C      1  0.4593520000000  0.5499960000000  0.5407490000000 1.0
C      1  0.5172410000000  0.5685140000000  0.4471980000000 1.0
C      1  0.5599310000000  0.5078180000000  0.5430030000000 1.0
C      1  0.5407390000000  0.4498740000000  0.4592510000000 1.0
C      1  0.4828500000000  0.4313560000000  0.5528020000000 1.0
C      1  0.4401610000000  0.4920530000000  0.4569970000000 1.0
C      1  0.5742770000000  0.5636030000000  0.4795630000000 1.0
C      1  0.5978020000000  0.4651650000000  0.5212480000000 1.0
C      1  0.5195970000000  0.3992940000000  0.4863090000000 1.0
C      1  0.4258150000000  0.4362680000000  0.5204370000000 1.0
C      1  0.4022890000000  0.5347050000000  0.4787520000000 1.0
C      1  0.4804940000000  0.6005760000000  0.5136910000000 1.0
C      1  0.4190110000000  0.4660610000000  0.5232710000000 1.0
C      1  0.4245800000000  0.5569710000000  0.4749490000000 1.0
C      1  0.5100280000000  0.5917650000000  0.5182880000000 1.0
C      1  0.5810800000000  0.5338100000000  0.4767290000000 1.0
C      1  0.5755110000000  0.4428990000000  0.5250510000000 1.0
C      1  0.4900630000000  0.4081060000000  0.4817120000000 1.0
C      1  0.4675050000000  0.4382630000000  0.4496080000000 1.0
C      1  0.4383130000000  0.5023450000000  0.5513470000000 1.0
C      1  0.4657110000000  0.5556340000000  0.4388200000000 1.0
C      1  0.5325860000000  0.5616080000000  0.5503920000000 1.0
C      1  0.5617780000000  0.4975260000000  0.4486530000000 1.0
C      1  0.5343800000000  0.4442370000000  0.5611800000000 1.0
C      1  0.4294240000000  0.5275760000000  0.5132670000000 1.0
C      1  0.4873910000000  0.5665760000000  0.4844250000000 1.0
C      1  0.5528900000000  0.5431100000000  0.5140560000000 1.0
C      1  0.5706670000000  0.4722940000000  0.4867330000000 1.0
C      1  0.5127000000000  0.4332940000000  0.5155750000000 1.0
C      1  0.4472020000000  0.4567610000000  0.4859440000000 1.0
C      1  0.4396190000000  0.5706280000000  0.4966870000000 1.0
C      1  0.5290630000000  0.5835850000000  0.4969790000000 1.0
C      1  0.5891990000000  0.5150200000000  0.4997750000000 1.0
C      1  0.5604720000000  0.4292430000000  0.5033130000000 1.0
C      1  0.4710290000000  0.4162850000000  0.5030210000000 1.0
C      1  0.4108920000000  0.4848500000000  0.5002250000000 1.0
C      1  0.4999460000000  0.5052700000000  0.3983830000000 1.0
C      1  0.5001450000000  0.4946000000000  0.6016170000000 1.0
END
