TITL C-3201372-1405-2125 -8.49903391815668e-07 125000 -442.179619664081 0 0 74 (C1) n - 1
REM
REM in /home/nfs/bkarasulu/CARBON/AIRSS/Generating-Clusters/LCBOP/Higher-Symm/SD-CG/FIRE-CG
REM
REM
REM
REM
REM
REM ./C.cell (b20cbc046b6831c77cfcea5457e17084)
REM AIRSS Version 0.9.1 bugfix July 2018 build 013d7b7c2542+ Fri, 06 Jul 2018 19:26:36 +0100
REM compiler GCC version 9.2.1 20190827 (Red Hat 9.2.1-1)
REM options -cpp -mtune=generic -march=x86-64 -g -O0 -fpre-include=/usr/include/finclude/math-vector-fortran.h
REM seed -252466432 1997723876 436320544 -257276574 495271371 -1977700331 -2036842069 1340739176 93074859 -717565481 1390692481 -1172489209 1951541429 -1268075324 969122407 -375962398 -472936600 -234144007 1012332002 696950174 146865645 -484914171 550798999 -286962149 436082402 1217287483 304632793 1927922293 -1993911517 1968008733 -1618180586 -754537697 74782559
REM
CELL 1.54180   50.00000   50.00000   50.00000   90.00000   90.00000   90.00000
LATT -1
SFAC C  
C      1  0.5204790000000  0.4267130000000  0.5015690000000 1.0
C      1  0.4496190000000  0.5123430000000  0.5095010000000 1.0
C      1  0.5096440000000  0.4873240000000  0.4668320000000 1.0
C      1  0.4433030000000  0.5332450000000  0.4706540000000 1.0
C      1  0.4931730000000  0.5339130000000  0.5629020000000 1.0
C      1  0.4464490000000  0.3937920000000  0.4497530000000 1.0
C      1  0.4481230000000  0.5100760000000  0.4121690000000 1.0
C      1  0.5764150000000  0.4928740000000  0.5184300000000 1.0
C      1  0.5319910000000  0.4621310000000  0.4327420000000 1.0
C      1  0.4212700000000  0.4753120000000  0.5214880000000 1.0
C      1  0.5196290000000  0.5462220000000  0.5189350000000 1.0
C      1  0.4480530000000  0.4411830000000  0.5040350000000 1.0
C      1  0.5046720000000  0.5288920000000  0.5368840000000 1.0
C      1  0.4624830000000  0.5524890000000  0.4817920000000 1.0
C      1  0.4877870000000  0.4855080000000  0.5170260000000 1.0
C      1  0.4915820000000  0.5097030000000  0.5791280000000 1.0
C      1  0.5660670000000  0.5728460000000  0.4137380000000 1.0
C      1  0.4286960000000  0.4619740000000  0.4955810000000 1.0
C      1  0.4505250000000  0.4429060000000  0.5330560000000 1.0
C      1  0.4813190000000  0.4883520000000  0.4700670000000 1.0
C      1  0.5385080000000  0.5411220000000  0.4721460000000 1.0
C      1  0.4743140000000  0.4852740000000  0.5735580000000 1.0
C      1  0.5896770000000  0.5522550000000  0.5516460000000 1.0
C      1  0.5441910000000  0.4685930000000  0.5607830000000 1.0
C      1  0.4561370000000  0.4087370000000  0.4687780000000 1.0
C      1  0.5276740000000  0.4847860000000  0.4878840000000 1.0
C      1  0.5460940000000  0.4638090000000  0.4914270000000 1.0
C      1  0.4374660000000  0.4660200000000  0.5443410000000 1.0
C      1  0.5620540000000  0.4672620000000  0.5152290000000 1.0
C      1  0.4903440000000  0.5552920000000  0.4739020000000 1.0
C      1  0.5227020000000  0.4880630000000  0.4414790000000 1.0
C      1  0.4478090000000  0.4987200000000  0.4374820000000 1.0
C      1  0.4938860000000  0.5677430000000  0.4493850000000 1.0
C      1  0.4674390000000  0.4801850000000  0.4462900000000 1.0
C      1  0.5317730000000  0.4318420000000  0.5278000000000 1.0
C      1  0.4658590000000  0.4242400000000  0.4899050000000 1.0
C      1  0.5355970000000  0.5078020000000  0.5003370000000 1.0
C      1  0.5148140000000  0.5494410000000  0.4889480000000 1.0
C      1  0.5197970000000  0.4702400000000  0.5765200000000 1.0
C      1  0.4228810000000  0.5025580000000  0.5143220000000 1.0
C      1  0.5796090000000  0.5105520000000  0.4953740000000 1.0
C      1  0.4715220000000  0.4563860000000  0.4336250000000 1.0
C      1  0.4388870000000  0.5309990000000  0.5538500000000 1.0
C      1  0.4656960000000  0.5188530000000  0.3940670000000 1.0
C      1  0.4923830000000  0.4625790000000  0.5732310000000 1.0
C      1  0.4547970000000  0.5712700000000  0.5017290000000 1.0
C      1  0.4707230000000  0.5780140000000  0.5502880000000 1.0
C      1  0.5391160000000  0.5367880000000  0.4437630000000 1.0
C      1  0.5039290000000  0.5014890000000  0.5308470000000 1.0
C      1  0.4334160000000  0.5087490000000  0.5682480000000 1.0
C      1  0.5464170000000  0.5498650000000  0.5291350000000 1.0
C      1  0.5269750000000  0.5141610000000  0.4301780000000 1.0
C      1  0.4823490000000  0.5596700000000  0.5662610000000 1.0
C      1  0.5708030000000  0.5078280000000  0.5426190000000 1.0
C      1  0.4921070000000  0.5219110000000  0.3916010000000 1.0
C      1  0.5330350000000  0.4411130000000  0.4523900000000 1.0
C      1  0.6092530000000  0.5662740000000  0.5616150000000 1.0
C      1  0.4336420000000  0.5072130000000  0.4609530000000 1.0
C      1  0.5555960000000  0.5238620000000  0.4873770000000 1.0
C      1  0.4250660000000  0.4818750000000  0.4744060000000 1.0
C      1  0.4523320000000  0.5317200000000  0.5302030000000 1.0
C      1  0.5585790000000  0.4943510000000  0.5642260000000 1.0
C      1  0.4706350000000  0.4954770000000  0.4967800000000 1.0
C      1  0.4930510000000  0.4216610000000  0.4975260000000 1.0
C      1  0.5148200000000  0.5193120000000  0.4052940000000 1.0
C      1  0.5533400000000  0.5553050000000  0.4282090000000 1.0
C      1  0.5439110000000  0.5091000000000  0.5842140000000 1.0
C      1  0.5688850000000  0.5368260000000  0.5411180000000 1.0
C      1  0.4472420000000  0.4841760000000  0.5645770000000 1.0
C      1  0.5394500000000  0.4575520000000  0.4068420000000 1.0
C      1  0.5486050000000  0.4533870000000  0.5372090000000 1.0
C      1  0.4602140000000  0.5818150000000  0.5258450000000 1.0
C      1  0.5174900000000  0.4985490000000  0.5873780000000 1.0
C      1  0.5358320000000  0.4395350000000  0.4805780000000 1.0
END
