TITL C-3201375-1262-382 -0.966201402423184 125000 -953.992811011973 0 0 154 (C1) n - 1
REM
REM in /home/nfs/bkarasulu/CARBON/AIRSS/Generating-Clusters/LCBOP/Higher-Symm/SD-CG/FIRE-CG
REM
REM
REM
REM
REM
REM ./C.cell (b20cbc046b6831c77cfcea5457e17084)
REM AIRSS Version 0.9.1 bugfix July 2018 build 013d7b7c2542+ Fri, 06 Jul 2018 19:26:36 +0100
REM compiler GCC version 9.2.1 20190827 (Red Hat 9.2.1-1)
REM options -cpp -mtune=generic -march=x86-64 -g -O0 -fpre-include=/usr/include/finclude/math-vector-fortran.h
REM seed 838198260 -733687013 -489074415 -512373418 1231775619 1123306916 -2013582851 -321337817 1255030586 872846507 1916554826 1521632365 1629917553 -534015747 1726945591 1302390433 1775287929 2098167010 1292171417 1003857764 1694356386 -257289526 -243928 -342118857 -842171800 -2018169597 158820647 -156371658 -150294126 1552790680 929832936 -2004253431 -697373495
REM
CELL 1.54180   50.00000   50.00000   50.00000   90.00000   90.00000   90.00000
LATT -1
SFAC C  
C      1  0.4682940000000  0.5656810000000  0.5844770000000 1.0
C      1  0.4680610000000  0.4416200000000  0.4160500000000 1.0
C      1  0.5301980000000  0.5697420000000  0.5708760000000 1.0
C      1  0.5295430000000  0.4373820000000  0.4311260000000 1.0
C      1  0.4883890000000  0.5158020000000  0.6247420000000 1.0
C      1  0.4899360000000  0.4934960000000  0.3767200000000 1.0
C      1  0.5149330000000  0.5207240000000  0.6228830000000 1.0
C      1  0.5164120000000  0.4881520000000  0.3784260000000 1.0
C      1  0.5129190000000  0.5417220000000  0.5235200000000 1.0
C      1  0.5130560000000  0.4859680000000  0.5140560000000 1.0
C      1  0.4875130000000  0.5512840000000  0.5277990000000 1.0
C      1  0.4815660000000  0.4862710000000  0.5110990000000 1.0
C      1  0.5088960000000  0.4223030000000  0.4450990000000 1.0
C      1  0.5102870000000  0.5871960000000  0.5588440000000 1.0
C      1  0.4834250000000  0.4264920000000  0.4321580000000 1.0
C      1  0.4846650000000  0.5826330000000  0.5714730000000 1.0
C      1  0.4378390000000  0.4579660000000  0.5621120000000 1.0
C      1  0.4339380000000  0.5535880000000  0.4462180000000 1.0
C      1  0.5639830000000  0.4598320000000  0.5577650000000 1.0
C      1  0.5695120000000  0.5544800000000  0.4482910000000 1.0
C      1  0.5424760000000  0.4547110000000  0.5395690000000 1.0
C      1  0.5540780000000  0.5655870000000  0.4688940000000 1.0
C      1  0.4596580000000  0.4530330000000  0.5437410000000 1.0
C      1  0.4489500000000  0.5651760000000  0.4669500000000 1.0
C      1  0.5227320000000  0.4911830000000  0.4458440000000 1.0
C      1  0.5213580000000  0.5091200000000  0.5561870000000 1.0
C      1  0.4733730000000  0.4926880000000  0.4444630000000 1.0
C      1  0.4711660000000  0.5057190000000  0.5566570000000 1.0
C      1  0.5307160000000  0.5219100000000  0.5993590000000 1.0
C      1  0.5314550000000  0.4846140000000  0.4021230000000 1.0
C      1  0.4688620000000  0.5161450000000  0.6041210000000 1.0
C      1  0.4704510000000  0.4910220000000  0.3971210000000 1.0
C      1  0.4746250000000  0.5613370000000  0.4227280000000 1.0
C      1  0.4737470000000  0.4429890000000  0.5889660000000 1.0
C      1  0.5284670000000  0.5602320000000  0.4245910000000 1.0
C      1  0.5283830000000  0.4455510000000  0.5855820000000 1.0
C      1  0.3626490000000  0.5537160000000  0.4924380000000 1.0
C      1  0.3380350000000  0.4182060000000  0.4824450000000 1.0
C      1  0.6388010000000  0.5538170000000  0.4941380000000 1.0
C      1  0.6674570000000  0.4188770000000  0.4793330000000 1.0
C      1  0.4564340000000  0.4269920000000  0.5336600000000 1.0
C      1  0.4471110000000  0.5937080000000  0.4704050000000 1.0
C      1  0.5439720000000  0.4281160000000  0.5301610000000 1.0
C      1  0.5544940000000  0.5937920000000  0.4749940000000 1.0
C      1  0.4733830000000  0.4083120000000  0.5485090000000 1.0
C      1  0.4726940000000  0.6031130000000  0.4576820000000 1.0
C      1  0.5265700000000  0.4104850000000  0.5451250000000 1.0
C      1  0.5290840000000  0.6023870000000  0.4612820000000 1.0
C      1  0.4461490000000  0.5598750000000  0.4215680000000 1.0
C      1  0.4453040000000  0.4458960000000  0.5867930000000 1.0
C      1  0.5569100000000  0.5590530000000  0.4235250000000 1.0
C      1  0.5565920000000  0.4492240000000  0.5829750000000 1.0
C      1  0.5233720000000  0.4042070000000  0.4954700000000 1.0
C      1  0.5271710000000  0.6090670000000  0.5106740000000 1.0
C      1  0.4700300000000  0.3979490000000  0.5008700000000 1.0
C      1  0.4691620000000  0.6162140000000  0.5045630000000 1.0
C      1  0.5280830000000  0.5580220000000  0.4806360000000 1.0
C      1  0.5156030000000  0.4654900000000  0.5366060000000 1.0
C      1  0.4741170000000  0.5587530000000  0.4811330000000 1.0
C      1  0.4881890000000  0.4596540000000  0.5446280000000 1.0
C      1  0.5130450000000  0.3956040000000  0.5229260000000 1.0
C      1  0.5138040000000  0.6140150000000  0.4837700000000 1.0
C      1  0.4849150000000  0.3926080000000  0.5260420000000 1.0
C      1  0.4858710000000  0.6167460000000  0.4803010000000 1.0
C      1  0.3716190000000  0.4734480000000  0.5200940000000 1.0
C      1  0.3906810000000  0.4903110000000  0.4656150000000 1.0
C      1  0.6320780000000  0.4726700000000  0.5176320000000 1.0
C      1  0.6137640000000  0.4908040000000  0.4639090000000 1.0
C      1  0.6585650000000  0.5356210000000  0.4943950000000 1.0
C      1  0.6587410000000  0.4409120000000  0.4916680000000 1.0
C      1  0.3437640000000  0.5346440000000  0.4934970000000 1.0
C      1  0.3461030000000  0.4407980000000  0.4941970000000 1.0
C      1  0.3474450000000  0.4018270000000  0.4634500000000 1.0
C      1  0.3865350000000  0.5575160000000  0.5039210000000 1.0
C      1  0.6590520000000  0.4031870000000  0.4593120000000 1.0
C      1  0.6145550000000  0.5558500000000  0.5053190000000 1.0
C      1  0.5279070000000  0.4980590000000  0.5819960000000 1.0
C      1  0.5280470000000  0.5063750000000  0.4219250000000 1.0
C      1  0.4697800000000  0.4945720000000  0.5842950000000 1.0
C      1  0.4722170000000  0.5087460000000  0.4202400000000 1.0
C      1  0.3917420000000  0.4182770000000  0.4435260000000 1.0
C      1  0.3945850000000  0.5348000000000  0.5461150000000 1.0
C      1  0.6155300000000  0.4200160000000  0.4381450000000 1.0
C      1  0.6066450000000  0.5307100000000  0.5460850000000 1.0
C      1  0.4860180000000  0.5334400000000  0.4767560000000 1.0
C      1  0.4636780000000  0.5033320000000  0.5286810000000 1.0
C      1  0.5156660000000  0.5332900000000  0.4751170000000 1.0
C      1  0.5266460000000  0.5131520000000  0.5264430000000 1.0
C      1  0.6040800000000  0.5143850000000  0.4565850000000 1.0
C      1  0.6119210000000  0.4629520000000  0.5344700000000 1.0
C      1  0.3998500000000  0.5134360000000  0.4563600000000 1.0
C      1  0.3905220000000  0.4638470000000  0.5383640000000 1.0
C      1  0.4607320000000  0.4925460000000  0.4695410000000 1.0
C      1  0.4325770000000  0.5467890000000  0.5166970000000 1.0
C      1  0.5357270000000  0.4911960000000  0.4701890000000 1.0
C      1  0.5687200000000  0.5431400000000  0.5167830000000 1.0
C      1  0.5289310000000  0.4729480000000  0.4901240000000 1.0
C      1  0.5283100000000  0.5600230000000  0.5092070000000 1.0
C      1  0.4673590000000  0.4725190000000  0.4892500000000 1.0
C      1  0.4727650000000  0.5650340000000  0.5090520000000 1.0
C      1  0.6379440000000  0.4036540000000  0.4428300000000 1.0
C      1  0.5962830000000  0.5432420000000  0.5226520000000 1.0
C      1  0.3692680000000  0.4019210000000  0.4479270000000 1.0
C      1  0.4048650000000  0.5465970000000  0.5222870000000 1.0
C      1  0.5904800000000  0.5366520000000  0.4517430000000 1.0
C      1  0.5899080000000  0.4643370000000  0.5492070000000 1.0
C      1  0.4133970000000  0.5352760000000  0.4496790000000 1.0
C      1  0.4121660000000  0.4638920000000  0.5536930000000 1.0
C      1  0.5097550000000  0.6051850000000  0.5345850000000 1.0
C      1  0.5080600000000  0.4058040000000  0.4701260000000 1.0
C      1  0.4836460000000  0.6166420000000  0.5289830000000 1.0
C      1  0.4825050000000  0.3937110000000  0.4759650000000 1.0
C      1  0.4867710000000  0.5847730000000  0.4378290000000 1.0
C      1  0.4865030000000  0.4208440000000  0.5726290000000 1.0
C      1  0.5162300000000  0.5841330000000  0.4394060000000 1.0
C      1  0.5155890000000  0.4225230000000  0.5704500000000 1.0
C      1  0.6138470000000  0.4435960000000  0.4533780000000 1.0
C      1  0.6286660000000  0.5136520000000  0.5426210000000 1.0
C      1  0.3925240000000  0.4426070000000  0.4576170000000 1.0
C      1  0.3741970000000  0.5157870000000  0.5430250000000 1.0
C      1  0.5964340000000  0.4133530000000  0.4198420000000 1.0
C      1  0.5959160000000  0.5353100000000  0.5707570000000 1.0
C      1  0.4117320000000  0.4108440000000  0.4265260000000 1.0
C      1  0.4037080000000  0.5420600000000  0.5707880000000 1.0
C      1  0.5513410000000  0.5198260000000  0.5083440000000 1.0
C      1  0.5385870000000  0.5159360000000  0.4815320000000 1.0
C      1  0.4492370000000  0.5222350000000  0.5106000000000 1.0
C      1  0.4626540000000  0.5169210000000  0.4837400000000 1.0
C      1  0.5148750000000  0.4716660000000  0.5890490000000 1.0
C      1  0.5157530000000  0.5337830000000  0.4201990000000 1.0
C      1  0.4859810000000  0.4700290000000  0.5905940000000 1.0
C      1  0.4868170000000  0.5347390000000  0.4195120000000 1.0
C      1  0.3667190000000  0.4597530000000  0.4958030000000 1.0
C      1  0.3425150000000  0.5115370000000  0.5072010000000 1.0
C      1  0.6379460000000  0.4596650000000  0.4931900000000 1.0
C      1  0.6606940000000  0.5118940000000  0.5069030000000 1.0
C      1  0.6428130000000  0.4981980000000  0.5237810000000 1.0
C      1  0.6216720000000  0.4646980000000  0.4701570000000 1.0
C      1  0.3606430000000  0.4991530000000  0.5248160000000 1.0
C      1  0.3835660000000  0.4642800000000  0.4730770000000 1.0
C      1  0.5354480000000  0.5477890000000  0.5865360000000 1.0
C      1  0.5355080000000  0.4578330000000  0.4136060000000 1.0
C      1  0.4610730000000  0.5422610000000  0.5956090000000 1.0
C      1  0.4619520000000  0.4642920000000  0.4028360000000 1.0
C      1  0.4582290000000  0.4460260000000  0.4897620000000 1.0
C      1  0.4457630000000  0.5733280000000  0.5145780000000 1.0
C      1  0.5413670000000  0.4482950000000  0.4879240000000 1.0
C      1  0.5544390000000  0.5689740000000  0.5170420000000 1.0
C      1  0.5424170000000  0.4246180000000  0.5020150000000 1.0
C      1  0.5534190000000  0.5959980000000  0.5051920000000 1.0
C      1  0.4560120000000  0.4227920000000  0.5054630000000 1.0
C      1  0.4454500000000  0.5991930000000  0.4997800000000 1.0
C      1  0.4951760000000  0.5208420000000  0.5588530000000 1.0
C      1  0.4977420000000  0.4786280000000  0.4455210000000 1.0
END
