TITL C-3201376-6384-108 -5.02817603846416e-08 125000 -105.964937269707 0 0 18 (D2h) n - 1
REM
REM in /home/nfs/bkarasulu/CARBON/AIRSS/Generating-Clusters/LCBOP/Higher-Symm/SD-CG/FIRE-CG
REM
REM
REM
REM
REM
REM ./C.cell (b20cbc046b6831c77cfcea5457e17084)
REM AIRSS Version 0.9.1 bugfix July 2018 build 013d7b7c2542+ Fri, 06 Jul 2018 19:26:36 +0100
REM compiler GCC version 9.2.1 20190827 (Red Hat 9.2.1-1)
REM options -cpp -mtune=generic -march=x86-64 -g -O0 -fpre-include=/usr/include/finclude/math-vector-fortran.h
REM seed -1312648904 -819196607 447677572 1556272451 597680651 1187934058 1498967701 207032574 1026198979 162133483 367836225 -1994844420 1094587992 -1005156446 1819571148 -76220429 1099324768 220559483 -2066509881 385823605 -1722420017 401831483 -756708128 1102989393 -1905742558 -474569834 -1798380653 1697054770 1697251569 1744003741 76416622 1530666233 326293752
REM
CELL 1.54180   50.00000   50.00000   50.00000   90.00000   90.00000   90.00000
LATT -1
SFAC C  
C      1  0.5346510000000  0.4796360000000  0.4665200000000 1.0
C      1  0.4653490000000  0.5203640000000  0.5334800000000 1.0
C      1  0.5454140000000  0.4800890000000  0.4911570000000 1.0
C      1  0.4545860000000  0.5199110000000  0.5088430000000 1.0
C      1  0.4835310000000  0.5421160000000  0.4778150000000 1.0
C      1  0.5164690000000  0.4578840000000  0.5221850000000 1.0
C      1  0.5189870000000  0.5448500000000  0.5128480000000 1.0
C      1  0.4810130000000  0.4551500000000  0.4871520000000 1.0
C      1  0.4945280000000  0.4488580000000  0.5095290000000 1.0
C      1  0.5054720000000  0.5511420000000  0.4904710000000 1.0
C      1  0.4840450000000  0.4749730000000  0.4672070000000 1.0
C      1  0.5159550000000  0.5250270000000  0.5327930000000 1.0
C      1  0.4900410000000  0.5226460000000  0.5438760000000 1.0
C      1  0.5099590000000  0.4773540000000  0.4561240000000 1.0
C      1  0.4652170000000  0.5211130000000  0.4826610000000 1.0
C      1  0.5347830000000  0.4788870000000  0.5173390000000 1.0
C      1  0.4672220000000  0.4974720000000  0.4676130000000 1.0
C      1  0.5327780000000  0.5025280000000  0.5323870000000 1.0
END
