TITL C-3201376-6384-2170 5.42982043217899e-05 125000 -564.381027672222 0 0 90 (Cs) n - 1
REM
REM in /home/nfs/bkarasulu/CARBON/AIRSS/Generating-Clusters/LCBOP/Higher-Symm/SD-CG/FIRE-CG
REM
REM
REM
REM
REM
REM ./C.cell (b20cbc046b6831c77cfcea5457e17084)
REM AIRSS Version 0.9.1 bugfix July 2018 build 013d7b7c2542+ Fri, 06 Jul 2018 19:26:36 +0100
REM compiler GCC version 9.2.1 20190827 (Red Hat 9.2.1-1)
REM options -cpp -mtune=generic -march=x86-64 -g -O0 -fpre-include=/usr/include/finclude/math-vector-fortran.h
REM seed 609935696 -810910446 -574452669 -1134721665 2071357625 -161140073 561080140 2012231333 -1046087788 -935030513 -782421302 -661929390 417562383 799728190 -952777643 1118367904 1881028548 1156120360 -791064207 1387802684 1967747169 14837114 -2074539710 -349825517 -1014927965 -1091821052 -406268301 -1486083057 -1237744749 268180814 -229086536 283596434 -1254725589
REM
CELL 1.54180   50.00000   50.00000   50.00000   90.00000   90.00000   90.00000
LATT -1
SFAC C  
C      1  0.3941590000000  0.4433860000000  0.4676040000000 1.0
C      1  0.6055560000000  0.5577740000000  0.4684970000000 1.0
C      1  0.3944440000000  0.5577730000000  0.4684970000000 1.0
C      1  0.6058410000000  0.4433870000000  0.4676050000000 1.0
C      1  0.5598460000000  0.4489450000000  0.4453600000000 1.0
C      1  0.4399730000000  0.5516220000000  0.4455920000000 1.0
C      1  0.5600270000000  0.5516230000000  0.4455920000000 1.0
C      1  0.4401550000000  0.4489450000000  0.4453590000000 1.0
C      1  0.5256920000000  0.4859260000000  0.5433190000000 1.0
C      1  0.4743670000000  0.5139380000000  0.5431320000000 1.0
C      1  0.5256320000000  0.5139380000000  0.5431320000000 1.0
C      1  0.4743080000000  0.4859260000000  0.5433180000000 1.0
C      1  0.5271840000000  0.5399940000000  0.5874190000000 1.0
C      1  0.4728170000000  0.4601910000000  0.5877610000000 1.0
C      1  0.5271830000000  0.4601910000000  0.5877610000000 1.0
C      1  0.4728160000000  0.5399940000000  0.5874190000000 1.0
C      1  0.6302210000000  0.4872660000000  0.4814240000000 1.0
C      1  0.3698230000000  0.5138650000000  0.4816830000000 1.0
C      1  0.6301770000000  0.5138660000000  0.4816830000000 1.0
C      1  0.3697790000000  0.4872650000000  0.4814230000000 1.0
C      1  0.5145250000000  0.4725260000000  0.5656780000000 1.0
C      1  0.4854780000000  0.5275230000000  0.5654180000000 1.0
C      1  0.5145220000000  0.5275230000000  0.5654180000000 1.0
C      1  0.4854750000000  0.4725260000000  0.5656780000000 1.0
C      1  0.5342150000000  0.5537420000000  0.4585830000000 1.0
C      1  0.4656350000000  0.4459530000000  0.4586310000000 1.0
C      1  0.5343650000000  0.4459530000000  0.4586310000000 1.0
C      1  0.4657850000000  0.5537420000000  0.4585830000000 1.0
C      1  0.4719910000000  0.4717670000000  0.5187990000000 1.0
C      1  0.5278380000000  0.5279950000000  0.5184740000000 1.0
C      1  0.4721620000000  0.5279940000000  0.5184740000000 1.0
C      1  0.5280090000000  0.4717670000000  0.5187990000000 1.0
C      1  0.4857220000000  0.4857830000000  0.4480280000000 1.0
C      1  0.5201290000000  0.5121780000000  0.4459660000000 1.0
C      1  0.4798720000000  0.5121780000000  0.4459660000000 1.0
C      1  0.5142780000000  0.4857830000000  0.4480280000000 1.0
C      1  0.4133660000000  0.5132100000000  0.5388990000000 1.0
C      1  0.5866640000000  0.4863260000000  0.5389640000000 1.0
C      1  0.4133360000000  0.4863260000000  0.5389630000000 1.0
C      1  0.5866340000000  0.5132110000000  0.5388990000000 1.0
C      1  0.4173490000000  0.5642930000000  0.4563790000000 1.0
C      1  0.5829150000000  0.4366650000000  0.4556470000000 1.0
C      1  0.4170850000000  0.4366650000000  0.4556460000000 1.0
C      1  0.5826510000000  0.5642930000000  0.4563800000000 1.0
C      1  0.5653690000000  0.5271450000000  0.4311070000000 1.0
C      1  0.4355890000000  0.4736860000000  0.4311150000000 1.0
C      1  0.5644120000000  0.4736860000000  0.4311160000000 1.0
C      1  0.4346310000000  0.5271450000000  0.4311070000000 1.0
C      1  0.6220530000000  0.5388390000000  0.4773900000000 1.0
C      1  0.3777900000000  0.4623360000000  0.4766920000000 1.0
C      1  0.6222100000000  0.4623360000000  0.4766930000000 1.0
C      1  0.3779470000000  0.5388380000000  0.4773890000000 1.0
C      1  0.4848150000000  0.5744100000000  0.4651170000000 1.0
C      1  0.5152900000000  0.4250070000000  0.4649650000000 1.0
C      1  0.4847100000000  0.4250070000000  0.4649650000000 1.0
C      1  0.5151840000000  0.5744100000000  0.4651170000000 1.0
C      1  0.4863670000000  0.5516490000000  0.6079800000000 1.0
C      1  0.5136330000000  0.4486650000000  0.6083950000000 1.0
C      1  0.4863670000000  0.4486650000000  0.6083950000000 1.0
C      1  0.5136320000000  0.5516500000000  0.6079800000000 1.0
C      1  0.5338730000000  0.5555810000000  0.5223880000000 1.0
C      1  0.4661230000000  0.4441240000000  0.5226320000000 1.0
C      1  0.5338780000000  0.4441240000000  0.5226320000000 1.0
C      1  0.4661260000000  0.5555810000000  0.5223880000000 1.0
C      1  0.5287430000000  0.5145660000000  0.4932580000000 1.0
C      1  0.4709980000000  0.4850810000000  0.4935940000000 1.0
C      1  0.5290020000000  0.4850810000000  0.4935940000000 1.0
C      1  0.4712570000000  0.5145660000000  0.4932580000000 1.0
C      1  0.5149030000000  0.4246500000000  0.5137750000000 1.0
C      1  0.4850850000000  0.5751540000000  0.5137670000000 1.0
C      1  0.5149140000000  0.5751540000000  0.5137670000000 1.0
C      1  0.4850980000000  0.4246500000000  0.5137750000000 1.0
C      1  0.4394240000000  0.4414060000000  0.5320550000000 1.0
C      1  0.5605870000000  0.5581460000000  0.5318090000000 1.0
C      1  0.4394130000000  0.5581460000000  0.5318080000000 1.0
C      1  0.5605760000000  0.4414070000000  0.5320550000000 1.0
C      1  0.5237420000000  0.5880450000000  0.4893360000000 1.0
C      1  0.4762150000000  0.4116330000000  0.4894160000000 1.0
C      1  0.5237850000000  0.4116330000000  0.4894160000000 1.0
C      1  0.4762580000000  0.5880450000000  0.4893360000000 1.0
C      1  0.4730660000000  0.5278590000000  0.4676790000000 1.0
C      1  0.5264170000000  0.4712730000000  0.4685120000000 1.0
C      1  0.4735830000000  0.4712730000000  0.4685120000000 1.0
C      1  0.5269330000000  0.5278590000000  0.4676790000000 1.0
C      1  0.4209330000000  0.5389830000000  0.5370750000000 1.0
C      1  0.5791110000000  0.4605410000000  0.5372540000000 1.0
C      1  0.4208890000000  0.4605410000000  0.5372530000000 1.0
C      1  0.5790670000000  0.5389830000000  0.5370750000000 1.0
C      1  0.5676640000000  0.5003560000000  0.4279650000000 1.0
C      1  0.4323360000000  0.5003550000000  0.4279650000000 1.0
END
