TITL C-3201373-1215-2335 -1.50605889945805e-07 125000 -830.296294789162 0 0 137 (C1) n - 1
REM
REM in /home/nfs/bkarasulu/CARBON/AIRSS/Generating-Clusters/LCBOP/Higher-Symm/SD-CG/FIRE-CG
REM
REM
REM
REM
REM
REM ./C.cell (b20cbc046b6831c77cfcea5457e17084)
REM AIRSS Version 0.9.1 bugfix July 2018 build 013d7b7c2542+ Fri, 06 Jul 2018 19:26:36 +0100
REM compiler GCC version 9.2.1 20190827 (Red Hat 9.2.1-1)
REM options -cpp -mtune=generic -march=x86-64 -g -O0 -fpre-include=/usr/include/finclude/math-vector-fortran.h
REM seed 534949560 1558778040 446473221 568062146 676757210 -1015118144 -1867759344 91102018 -153339193 313017578 1554714220 1811590502 -1350724002 787785067 258057525 1446006735 -374151713 214618463 1153677658 1756343841 1748611736 5664979 543068222 -1845905370 1802782808 1334593402 2035578757 1074815680 1227865286 2104526348 31572754 -678631763 1792329159
REM
CELL 1.54180   50.00000   50.00000   50.00000   90.00000   90.00000   90.00000
LATT -1
SFAC C  
C      1  0.4131290000000  0.5526960000000  0.4553140000000 1.0
C      1  0.4334880000000  0.5087490000000  0.5613710000000 1.0
C      1  0.4047880000000  0.4404970000000  0.4648700000000 1.0
C      1  0.4954570000000  0.6030950000000  0.5389870000000 1.0
C      1  0.5072850000000  0.3938080000000  0.5504460000000 1.0
C      1  0.5056830000000  0.4964800000000  0.4045750000000 1.0
C      1  0.5656350000000  0.5173150000000  0.4652720000000 1.0
C      1  0.5594160000000  0.5214820000000  0.5298280000000 1.0
C      1  0.5748250000000  0.4593400000000  0.5058760000000 1.0
C      1  0.5083570000000  0.4663250000000  0.6081290000000 1.0
C      1  0.4989590000000  0.4235630000000  0.4208190000000 1.0
C      1  0.5090860000000  0.6234860000000  0.4544410000000 1.0
C      1  0.5104050000000  0.4637070000000  0.5578520000000 1.0
C      1  0.4981510000000  0.4621660000000  0.4567420000000 1.0
C      1  0.5127450000000  0.5830680000000  0.4803650000000 1.0
C      1  0.4793190000000  0.5755990000000  0.4236150000000 1.0
C      1  0.4773560000000  0.5282100000000  0.6133750000000 1.0
C      1  0.4844020000000  0.3979170000000  0.4677710000000 1.0
C      1  0.5284770000000  0.5712720000000  0.4195350000000 1.0
C      1  0.5249490000000  0.5228110000000  0.6010250000000 1.0
C      1  0.5352670000000  0.3977430000000  0.4676670000000 1.0
C      1  0.5064310000000  0.6148870000000  0.4276400000000 1.0
C      1  0.5025550000000  0.4881350000000  0.6246820000000 1.0
C      1  0.5076900000000  0.3976930000000  0.4271870000000 1.0
C      1  0.5197290000000  0.4730990000000  0.5827420000000 1.0
C      1  0.5106820000000  0.4433640000000  0.4376960000000 1.0
C      1  0.5258140000000  0.6054970000000  0.4691180000000 1.0
C      1  0.4635690000000  0.4132710000000  0.5334560000000 1.0
C      1  0.4649640000000  0.5139850000000  0.4206430000000 1.0
C      1  0.4508360000000  0.5846610000000  0.5581930000000 1.0
C      1  0.6034510000000  0.5400660000000  0.5522900000000 1.0
C      1  0.6162140000000  0.4382380000000  0.4979650000000 1.0
C      1  0.6100030000000  0.5178450000000  0.4471370000000 1.0
C      1  0.4083100000000  0.4606790000000  0.5109430000000 1.0
C      1  0.4006670000000  0.5071380000000  0.4482810000000 1.0
C      1  0.4013040000000  0.5335860000000  0.5365880000000 1.0
C      1  0.4903160000000  0.4279750000000  0.5832670000000 1.0
C      1  0.4714110000000  0.4623370000000  0.4164640000000 1.0
C      1  0.4800950000000  0.6152940000000  0.4933970000000 1.0
C      1  0.5223240000000  0.5943370000000  0.5336230000000 1.0
C      1  0.5354620000000  0.3946590000000  0.5454120000000 1.0
C      1  0.5307200000000  0.4864360000000  0.4120260000000 1.0
C      1  0.4745700000000  0.4735590000000  0.4444620000000 1.0
C      1  0.4857630000000  0.5873180000000  0.4887700000000 1.0
C      1  0.4882930000000  0.4461870000000  0.5608040000000 1.0
C      1  0.4671460000000  0.5396380000000  0.5069490000000 1.0
C      1  0.4858740000000  0.4998070000000  0.5268930000000 1.0
C      1  0.4480730000000  0.4958950000000  0.5006820000000 1.0
C      1  0.5502430000000  0.4778810000000  0.4303300000000 1.0
C      1  0.5444070000000  0.5777370000000  0.5268000000000 1.0
C      1  0.5559200000000  0.4133700000000  0.5394270000000 1.0
C      1  0.5815790000000  0.5310720000000  0.4850700000000 1.0
C      1  0.6001980000000  0.4917550000000  0.5386750000000 1.0
C      1  0.5861810000000  0.4741140000000  0.4843280000000 1.0
C      1  0.4789550000000  0.5861190000000  0.5549480000000 1.0
C      1  0.4898830000000  0.4005930000000  0.5282670000000 1.0
C      1  0.4936350000000  0.5183210000000  0.4185990000000 1.0
C      1  0.6284660000000  0.5125650000000  0.4914790000000 1.0
C      1  0.6315690000000  0.5209160000000  0.5180350000000 1.0
C      1  0.6331040000000  0.4850830000000  0.4853340000000 1.0
C      1  0.4833810000000  0.6214400000000  0.5208160000000 1.0
C      1  0.4976710000000  0.4016660000000  0.5760260000000 1.0
C      1  0.4857370000000  0.4776360000000  0.3967230000000 1.0
C      1  0.4069800000000  0.5792630000000  0.5220970000000 1.0
C      1  0.4185960000000  0.4407390000000  0.5540790000000 1.0
C      1  0.4138610000000  0.4799210000000  0.4102720000000 1.0
C      1  0.4665510000000  0.4171470000000  0.4747270000000 1.0
C      1  0.4579350000000  0.5654610000000  0.4360540000000 1.0
C      1  0.4562830000000  0.5345090000000  0.5979670000000 1.0
C      1  0.4486000000000  0.5347830000000  0.5687210000000 1.0
C      1  0.4559540000000  0.4342880000000  0.4946210000000 1.0
C      1  0.4393340000000  0.5435290000000  0.4443540000000 1.0
C      1  0.4708510000000  0.5660280000000  0.4987680000000 1.0
C      1  0.4725200000000  0.4412070000000  0.5387370000000 1.0
C      1  0.4639450000000  0.5001350000000  0.4475540000000 1.0
C      1  0.4740650000000  0.4341040000000  0.4122810000000 1.0
C      1  0.4873240000000  0.6319330000000  0.4711670000000 1.0
C      1  0.4959820000000  0.4408500000000  0.6078750000000 1.0
C      1  0.4362610000000  0.4840080000000  0.5748680000000 1.0
C      1  0.4073830000000  0.4382520000000  0.4381890000000 1.0
C      1  0.4108810000000  0.5754210000000  0.4714370000000 1.0
C      1  0.5645220000000  0.5377760000000  0.5072260000000 1.0
C      1  0.5839710000000  0.4696530000000  0.5319720000000 1.0
C      1  0.5661430000000  0.4891410000000  0.4708150000000 1.0
C      1  0.5048590000000  0.5872600000000  0.4204210000000 1.0
C      1  0.5020990000000  0.5150170000000  0.6158240000000 1.0
C      1  0.5097210000000  0.3926370000000  0.4552030000000 1.0
C      1  0.5276490000000  0.4587860000000  0.5356540000000 1.0
C      1  0.5189600000000  0.4615070000000  0.4799410000000 1.0
C      1  0.5249990000000  0.5581440000000  0.4840050000000 1.0
C      1  0.4344410000000  0.5609370000000  0.5587880000000 1.0
C      1  0.4402980000000  0.4199620000000  0.5153780000000 1.0
C      1  0.4373690000000  0.5242050000000  0.4198570000000 1.0
C      1  0.4189140000000  0.4372430000000  0.5257310000000 1.0
C      1  0.4158690000000  0.5046580000000  0.4234880000000 1.0
C      1  0.4121590000000  0.5591930000000  0.5408950000000 1.0
C      1  0.5453840000000  0.4741600000000  0.4591490000000 1.0
C      1  0.5447960000000  0.5585400000000  0.5047000000000 1.0
C      1  0.5492410000000  0.4410790000000  0.5442230000000 1.0
C      1  0.4766510000000  0.5385430000000  0.5551350000000 1.0
C      1  0.4691490000000  0.4543280000000  0.5127320000000 1.0
C      1  0.4528910000000  0.5225670000000  0.4633120000000 1.0
C      1  0.5571730000000  0.5333860000000  0.4431870000000 1.0
C      1  0.5499960000000  0.5180180000000  0.5546690000000 1.0
C      1  0.5621710000000  0.4351220000000  0.4951670000000 1.0
C      1  0.5776060000000  0.4844730000000  0.4235890000000 1.0
C      1  0.5672330000000  0.5764690000000  0.5437660000000 1.0
C      1  0.5827710000000  0.4094200000000  0.5285500000000 1.0
C      1  0.4522450000000  0.5216990000000  0.4907350000000 1.0
C      1  0.4799980000000  0.5273510000000  0.5296210000000 1.0
C      1  0.4688320000000  0.4819890000000  0.5130670000000 1.0
C      1  0.6090040000000  0.5256160000000  0.4750810000000 1.0
C      1  0.6129950000000  0.5170900000000  0.5389450000000 1.0
C      1  0.6138660000000  0.4644200000000  0.4850780000000 1.0
C      1  0.3998710000000  0.4874620000000  0.4687860000000 1.0
C      1  0.3656910000000  0.5401350000000  0.4571320000000 1.0
C      1  0.4061130000000  0.4851120000000  0.5261890000000 1.0
C      1  0.5125310000000  0.4319650000000  0.4896850000000 1.0
C      1  0.5150890000000  0.5378550000000  0.4664180000000 1.0
C      1  0.5128740000000  0.5638480000000  0.5798680000000 1.0
C      1  0.4076250000000  0.5849770000000  0.4960780000000 1.0
C      1  0.4275980000000  0.4586920000000  0.5720170000000 1.0
C      1  0.4105110000000  0.4540800000000  0.4167420000000 1.0
C      1  0.4912830000000  0.5617680000000  0.5634990000000 1.0
C      1  0.5042220000000  0.4125410000000  0.5064700000000 1.0
C      1  0.5058950000000  0.5290340000000  0.4424260000000 1.0
C      1  0.6040660000000  0.4195320000000  0.5142130000000 1.0
C      1  0.5986900000000  0.5004760000000  0.4295600000000 1.0
C      1  0.5881930000000  0.5621730000000  0.5526260000000 1.0
C      1  0.4036200000000  0.4625780000000  0.4824690000000 1.0
C      1  0.3919680000000  0.5336510000000  0.4539090000000 1.0
C      1  0.4129660000000  0.5084750000000  0.5408770000000 1.0
C      1  0.5468290000000  0.5534020000000  0.4281990000000 1.0
C      1  0.5410500000000  0.5211800000000  0.5796550000000 1.0
C      1  0.5532360000000  0.4141800000000  0.4800270000000 1.0
C      1  0.5714130000000  0.4561180000000  0.5530120000000 1.0
C      1  0.5250140000000  0.4719960000000  0.5089960000000 1.0
END
