TITL C-3201379-3821-260 -8.47737009176396e-07 125000 -1045.42252586309 0 0 165 (C1) n - 1
REM
REM in /home/nfs/bkarasulu/CARBON/AIRSS/Generating-Clusters/LCBOP/Higher-Symm/SD-CG/FIRE-CG
REM
REM
REM
REM
REM
REM ./C.cell (b20cbc046b6831c77cfcea5457e17084)
REM AIRSS Version 0.9.1 bugfix July 2018 build 013d7b7c2542+ Fri, 06 Jul 2018 19:26:36 +0100
REM compiler GCC version 9.2.1 20190827 (Red Hat 9.2.1-1)
REM options -cpp -mtune=generic -march=x86-64 -g -O0 -fpre-include=/usr/include/finclude/math-vector-fortran.h
REM seed 874850918 1533194554 1307628288 1880716409 -1899939651 161115350 919328961 -694696786 1718429212 130077201 1336547116 -582355951 -2035483944 -834930608 225242168 -1171939743 456443480 -407406917 1224928434 -633525811 -141928585 -324051568 -1791016899 411757533 2831131 -82056167 -849733168 -1934231495 -200835433 192423678 1587226254 1109240577 1504763125
REM
CELL 1.54180   50.00000   50.00000   50.00000   90.00000   90.00000   90.00000
LATT -1
SFAC C  
C      1  0.6142480000000  0.5614420000000  0.4647060000000 1.0
C      1  0.5502170000000  0.4439880000000  0.6208600000000 1.0
C      1  0.3865420000000  0.5550690000000  0.5542770000000 1.0
C      1  0.4529120000000  0.4460900000000  0.3795390000000 1.0
C      1  0.4790230000000  0.5160440000000  0.3758100000000 1.0
C      1  0.6165190000000  0.4902070000000  0.4887900000000 1.0
C      1  0.5269860000000  0.5142960000000  0.6208610000000 1.0
C      1  0.3801980000000  0.4865690000000  0.5238850000000 1.0
C      1  0.5478720000000  0.5326550000000  0.5117920000000 1.0
C      1  0.4855000000000  0.4627300000000  0.5537410000000 1.0
C      1  0.4490320000000  0.5359950000000  0.4847700000000 1.0
C      1  0.5138430000000  0.4634090000000  0.4493440000000 1.0
C      1  0.4504460000000  0.4748150000000  0.3807990000000 1.0
C      1  0.6142280000000  0.5326500000000  0.4638630000000 1.0
C      1  0.5531840000000  0.4726940000000  0.6200770000000 1.0
C      1  0.3865430000000  0.5261350000000  0.5543500000000 1.0
C      1  0.5298260000000  0.5277700000000  0.4132820000000 1.0
C      1  0.5866140000000  0.4685650000000  0.5322510000000 1.0
C      1  0.4749660000000  0.5268120000000  0.5913180000000 1.0
C      1  0.4094800000000  0.4758280000000  0.4706450000000 1.0
C      1  0.4860080000000  0.5341230000000  0.3963410000000 1.0
C      1  0.6006260000000  0.4664100000000  0.4883730000000 1.0
C      1  0.5208300000000  0.5313920000000  0.5992970000000 1.0
C      1  0.3990790000000  0.4667760000000  0.5161980000000 1.0
C      1  0.4448590000000  0.5894150000000  0.4110230000000 1.0
C      1  0.5856440000000  0.4082300000000  0.4428080000000 1.0
C      1  0.5676180000000  0.5813740000000  0.5478320000000 1.0
C      1  0.4176080000000  0.4042070000000  0.5540320000000 1.0
C      1  0.4056750000000  0.5484030000000  0.4662800000000 1.0
C      1  0.5362350000000  0.4687260000000  0.4074750000000 1.0
C      1  0.5900030000000  0.5359400000000  0.5364170000000 1.0
C      1  0.4638220000000  0.4551740000000  0.5965050000000 1.0
C      1  0.4439340000000  0.4084700000000  0.5589180000000 1.0
C      1  0.4401870000000  0.5825730000000  0.4368250000000 1.0
C      1  0.5593590000000  0.4125200000000  0.4378130000000 1.0
C      1  0.5529780000000  0.5909580000000  0.5249750000000 1.0
C      1  0.4590660000000  0.5765340000000  0.4572110000000 1.0
C      1  0.5388730000000  0.4193960000000  0.4562750000000 1.0
C      1  0.5283630000000  0.5773390000000  0.5213710000000 1.0
C      1  0.4635830000000  0.4183400000000  0.5408610000000 1.0
C      1  0.4218560000000  0.4628310000000  0.5329540000000 1.0
C      1  0.4691550000000  0.5347390000000  0.4194850000000 1.0
C      1  0.5788320000000  0.4647720000000  0.4698140000000 1.0
C      1  0.5346740000000  0.5315390000000  0.5742360000000 1.0
C      1  0.4673160000000  0.4465340000000  0.5392230000000 1.0
C      1  0.4645010000000  0.5495520000000  0.4651530000000 1.0
C      1  0.5335890000000  0.4468710000000  0.4609130000000 1.0
C      1  0.5310120000000  0.5493510000000  0.5274360000000 1.0
C      1  0.4258050000000  0.4123440000000  0.4379910000000 1.0
C      1  0.5610350000000  0.5907670000000  0.4229220000000 1.0
C      1  0.5710740000000  0.4073500000000  0.5607230000000 1.0
C      1  0.4493740000000  0.5893840000000  0.5735810000000 1.0
C      1  0.5157480000000  0.5739190000000  0.4021890000000 1.0
C      1  0.5932400000000  0.4232060000000  0.5146450000000 1.0
C      1  0.4976290000000  0.5726350000000  0.5900380000000 1.0
C      1  0.4057090000000  0.4281930000000  0.4845910000000 1.0
C      1  0.3650590000000  0.5319230000000  0.5120020000000 1.0
C      1  0.4939240000000  0.4718450000000  0.3617280000000 1.0
C      1  0.6161140000000  0.5341420000000  0.5120110000000 1.0
C      1  0.5091860000000  0.4718230000000  0.6389110000000 1.0
C      1  0.4832740000000  0.6084260000000  0.4845400000000 1.0
C      1  0.5112990000000  0.3947690000000  0.4894910000000 1.0
C      1  0.4899440000000  0.6056300000000  0.5099510000000 1.0
C      1  0.4900020000000  0.3956120000000  0.5051800000000 1.0
C      1  0.5310280000000  0.4881120000000  0.6306640000000 1.0
C      1  0.3739690000000  0.5131490000000  0.5315060000000 1.0
C      1  0.4727320000000  0.4893630000000  0.3691560000000 1.0
C      1  0.6183660000000  0.5186550000000  0.4888660000000 1.0
C      1  0.4818830000000  0.5169080000000  0.5181060000000 1.0
C      1  0.4801740000000  0.4773840000000  0.4830570000000 1.0
C      1  0.5150770000000  0.5164680000000  0.4789480000000 1.0
C      1  0.5178380000000  0.4775160000000  0.5178650000000 1.0
C      1  0.4752890000000  0.4434020000000  0.6177440000000 1.0
C      1  0.3862900000000  0.5614310000000  0.4794900000000 1.0
C      1  0.5273070000000  0.4512760000000  0.3891760000000 1.0
C      1  0.5887930000000  0.5650990000000  0.5371630000000 1.0
C      1  0.5577260000000  0.4680240000000  0.5720490000000 1.0
C      1  0.4351310000000  0.5282490000000  0.5578110000000 1.0
C      1  0.4434430000000  0.4715390000000  0.4300380000000 1.0
C      1  0.5698250000000  0.5320180000000  0.4433800000000 1.0
C      1  0.5359080000000  0.4018460000000  0.4788170000000 1.0
C      1  0.5066210000000  0.5940840000000  0.5286100000000 1.0
C      1  0.4659040000000  0.4037640000000  0.5162000000000 1.0
C      1  0.4796710000000  0.5960750000000  0.4600900000000 1.0
C      1  0.5297850000000  0.4318260000000  0.5811590000000 1.0
C      1  0.4253650000000  0.5672730000000  0.5327500000000 1.0
C      1  0.4698650000000  0.4332800000000  0.4202670000000 1.0
C      1  0.5698930000000  0.5713780000000  0.4702300000000 1.0
C      1  0.4572310000000  0.5313940000000  0.5119060000000 1.0
C      1  0.4864100000000  0.4653850000000  0.4571520000000 1.0
C      1  0.5404820000000  0.5304500000000  0.4844160000000 1.0
C      1  0.5128210000000  0.4662400000000  0.5450970000000 1.0
C      1  0.4347890000000  0.4268630000000  0.3910080000000 1.0
C      1  0.6060520000000  0.5776840000000  0.4420880000000 1.0
C      1  0.5668710000000  0.4242680000000  0.6078860000000 1.0
C      1  0.4014680000000  0.5726100000000  0.5718730000000 1.0
C      1  0.5872100000000  0.4118390000000  0.5398780000000 1.0
C      1  0.4723800000000  0.5856220000000  0.5867960000000 1.0
C      1  0.4096210000000  0.4186420000000  0.4582920000000 1.0
C      1  0.5415280000000  0.5845970000000  0.4058260000000 1.0
C      1  0.5014400000000  0.4500750000000  0.3787370000000 1.0
C      1  0.6032270000000  0.5695360000000  0.5123250000000 1.0
C      1  0.5018370000000  0.4478730000000  0.6251850000000 1.0
C      1  0.3794930000000  0.5558180000000  0.5059910000000 1.0
C      1  0.4281350000000  0.5105180000000  0.4061830000000 1.0
C      1  0.5980600000000  0.4946010000000  0.4350260000000 1.0
C      1  0.5745770000000  0.5081000000000  0.5914520000000 1.0
C      1  0.4118220000000  0.4885790000000  0.5739830000000 1.0
C      1  0.5032580000000  0.5196830000000  0.4527510000000 1.0
C      1  0.5399510000000  0.4680040000000  0.5029350000000 1.0
C      1  0.4954580000000  0.5232730000000  0.5423930000000 1.0
C      1  0.4578640000000  0.4686840000000  0.4978960000000 1.0
C      1  0.5232880000000  0.4810690000000  0.4290670000000 1.0
C      1  0.5698670000000  0.5201260000000  0.5249580000000 1.0
C      1  0.4759280000000  0.4732860000000  0.5785150000000 1.0
C      1  0.4230080000000  0.5283860000000  0.4758970000000 1.0
C      1  0.5118750000000  0.5455430000000  0.4000950000000 1.0
C      1  0.5969620000000  0.4515810000000  0.5122910000000 1.0
C      1  0.4962600000000  0.5448640000000  0.5974430000000 1.0
C      1  0.4015220000000  0.4562680000000  0.4897630000000 1.0
C      1  0.4150550000000  0.4105560000000  0.5049600000000 1.0
C      1  0.4942890000000  0.5907480000000  0.4104460000000 1.0
C      1  0.5861060000000  0.4072200000000  0.4922170000000 1.0
C      1  0.5202390000000  0.5858960000000  0.5760710000000 1.0
C      1  0.4129520000000  0.5025550000000  0.4780950000000 1.0
C      1  0.5179790000000  0.5086080000000  0.4308440000000 1.0
C      1  0.5753060000000  0.4930270000000  0.5246090000000 1.0
C      1  0.4803160000000  0.4992530000000  0.5880190000000 1.0
C      1  0.5086190000000  0.6023790000000  0.5554240000000 1.0
C      1  0.4416410000000  0.4009100000000  0.5020600000000 1.0
C      1  0.4952260000000  0.6006530000000  0.4370900000000 1.0
C      1  0.5599100000000  0.3962010000000  0.4925340000000 1.0
C      1  0.5955060000000  0.5714220000000  0.4858550000000 1.0
C      1  0.5230980000000  0.4370320000000  0.6098820000000 1.0
C      1  0.3961630000000  0.5642340000000  0.5272910000000 1.0
C      1  0.4792060000000  0.4386940000000  0.3924200000000 1.0
C      1  0.4673440000000  0.4569300000000  0.4370740000000 1.0
C      1  0.5577170000000  0.5450310000000  0.4661460000000 1.0
C      1  0.5324160000000  0.4560550000000  0.5645360000000 1.0
C      1  0.4401580000000  0.5420870000000  0.5328460000000 1.0
C      1  0.5197600000000  0.5355830000000  0.5496820000000 1.0
C      1  0.4482420000000  0.4599960000000  0.5226940000000 1.0
C      1  0.4795210000000  0.5341950000000  0.4463570000000 1.0
C      1  0.5518310000000  0.4601510000000  0.4785980000000 1.0
C      1  0.5858220000000  0.4722490000000  0.4436150000000 1.0
C      1  0.5622370000000  0.5273870000000  0.5773700000000 1.0
C      1  0.4176640000000  0.4661650000000  0.5605430000000 1.0
C      1  0.4415640000000  0.5320410000000  0.4147740000000 1.0
C      1  0.5566810000000  0.5325200000000  0.4186570000000 1.0
C      1  0.5803440000000  0.4604700000000  0.5576540000000 1.0
C      1  0.4512070000000  0.5347640000000  0.5796880000000 1.0
C      1  0.4212180000000  0.4688860000000  0.4465870000000 1.0
C      1  0.5983400000000  0.4070190000000  0.4667290000000 1.0
C      1  0.5494560000000  0.5817670000000  0.5714990000000 1.0
C      1  0.4040420000000  0.4062410000000  0.5306440000000 1.0
C      1  0.4687090000000  0.5921300000000  0.3984440000000 1.0
C      1  0.5958920000000  0.5206240000000  0.4453150000000 1.0
C      1  0.5638300000000  0.4825950000000  0.5957450000000 1.0
C      1  0.4107420000000  0.5146110000000  0.5638740000000 1.0
C      1  0.4388740000000  0.4846550000000  0.4048970000000 1.0
C      1  0.4436010000000  0.4187770000000  0.4175380000000 1.0
C      1  0.5777820000000  0.5845170000000  0.4441650000000 1.0
C      1  0.5555690000000  0.4160450000000  0.5822270000000 1.0
C      1  0.4266380000000  0.5811330000000  0.5596000000000 1.0
C      1  0.4985880000000  0.4980080000000  0.4992940000000 1.0
END
