TITL C-3201376-6384-978 -9.10421952430494e-07 125000 -322.699905496209 0 0 54 (D2) n - 1
REM
REM in /home/nfs/bkarasulu/CARBON/AIRSS/Generating-Clusters/LCBOP/Higher-Symm/SD-CG/FIRE-CG
REM
REM
REM
REM
REM
REM ./C.cell (b20cbc046b6831c77cfcea5457e17084)
REM AIRSS Version 0.9.1 bugfix July 2018 build 013d7b7c2542+ Fri, 06 Jul 2018 19:26:36 +0100
REM compiler GCC version 9.2.1 20190827 (Red Hat 9.2.1-1)
REM options -cpp -mtune=generic -march=x86-64 -g -O0 -fpre-include=/usr/include/finclude/math-vector-fortran.h
REM seed -746939228 382769032 566511771 962628178 -808894880 -1435248728 -986945472 87188226 947280431 -1784778490 -950157234 -1080317181 1656653641 1873073689 -965895759 -58355602 80519504 -853492273 453607079 81573259 1205968095 -1449617400 -2102066924 101626672 -1658492440 574750929 -63962044 348474691 446397174 -1369394062 1050082137 755192258 -308327073
REM
CELL 1.54180   50.00000   50.00000   50.00000   90.00000   90.00000   90.00000
LATT -1
SFAC C  
C      1  0.4530210000000  0.4417340000000  0.5864980000000 1.0
C      1  0.5469780000000  0.4417350000000  0.4135020000000 1.0
C      1  0.5469800000000  0.5561730000000  0.5864980000000 1.0
C      1  0.4530200000000  0.5561750000000  0.4135030000000 1.0
C      1  0.4540270000000  0.5167450000000  0.5557490000000 1.0
C      1  0.5459730000000  0.5167460000000  0.4442510000000 1.0
C      1  0.5459730000000  0.4811620000000  0.5557480000000 1.0
C      1  0.4540260000000  0.4811630000000  0.4442520000000 1.0
C      1  0.5305430000000  0.5337160000000  0.4837790000000 1.0
C      1  0.4694570000000  0.5337160000000  0.5162210000000 1.0
C      1  0.4694560000000  0.4641930000000  0.4837790000000 1.0
C      1  0.5305430000000  0.4641920000000  0.5162200000000 1.0
C      1  0.5339540000000  0.4678710000000  0.4522850000000 1.0
C      1  0.4660460000000  0.4678710000000  0.5477150000000 1.0
C      1  0.4660450000000  0.5300380000000  0.4522860000000 1.0
C      1  0.5339550000000  0.5300370000000  0.5477140000000 1.0
C      1  0.4587320000000  0.4936560000000  0.5388750000000 1.0
C      1  0.5412680000000  0.4936560000000  0.4611250000000 1.0
C      1  0.5412690000000  0.5042510000000  0.5388740000000 1.0
C      1  0.4587310000000  0.5042520000000  0.4611260000000 1.0
C      1  0.5389380000000  0.5909950000000  0.4365910000000 1.0
C      1  0.4610630000000  0.5909950000000  0.5634100000000 1.0
C      1  0.4610610000000  0.4069140000000  0.4365910000000 1.0
C      1  0.5389380000000  0.4069130000000  0.5634080000000 1.0
C      1  0.5241180000000  0.4496150000000  0.4713060000000 1.0
C      1  0.4758820000000  0.4496150000000  0.5286930000000 1.0
C      1  0.4758820000000  0.5482940000000  0.4713070000000 1.0
C      1  0.5241190000000  0.5482930000000  0.5286940000000 1.0
C      1  0.5390290000000  0.5415430000000  0.4572930000000 1.0
C      1  0.4609720000000  0.5415430000000  0.5427070000000 1.0
C      1  0.4609700000000  0.4563650000000  0.4572930000000 1.0
C      1  0.5390290000000  0.4563650000000  0.5427060000000 1.0
C      1  0.5398420000000  0.5669390000000  0.4465720000000 1.0
C      1  0.4601590000000  0.5669390000000  0.5534290000000 1.0
C      1  0.4601570000000  0.4309690000000  0.4465710000000 1.0
C      1  0.5398420000000  0.4309680000000  0.5534280000000 1.0
C      1  0.5325420000000  0.5357310000000  0.5755410000000 1.0
C      1  0.4674580000000  0.5357320000000  0.4244590000000 1.0
C      1  0.4674590000000  0.4621770000000  0.5755420000000 1.0
C      1  0.5325410000000  0.4621770000000  0.4244580000000 1.0
C      1  0.5140350000000  0.4510630000000  0.4975170000000 1.0
C      1  0.4859640000000  0.4510630000000  0.5024820000000 1.0
C      1  0.4859640000000  0.5468460000000  0.4975180000000 1.0
C      1  0.5140360000000  0.5468460000000  0.5024820000000 1.0
C      1  0.5357390000000  0.5052170000000  0.4874990000000 1.0
C      1  0.4642610000000  0.5052170000000  0.5125010000000 1.0
C      1  0.4642610000000  0.4926910000000  0.4874990000000 1.0
C      1  0.5357390000000  0.4926910000000  0.5125010000000 1.0
C      1  0.5160220000000  0.5194690000000  0.5913220000000 1.0
C      1  0.4839780000000  0.5194700000000  0.4086780000000 1.0
C      1  0.4839790000000  0.4784390000000  0.5913220000000 1.0
C      1  0.5160210000000  0.4784390000000  0.4086770000000 1.0
C      1  0.4999990000000  0.4989550000000  0.4033920000000 1.0
C      1  0.5000010000000  0.4989540000000  0.5966080000000 1.0
END
