TITL C-3201378-2706-1573 0.555676978383689 125000 -580.998438681962 0 0 97 (C1) n - 1
REM
REM in /home/nfs/bkarasulu/CARBON/AIRSS/Generating-Clusters/LCBOP/Higher-Symm/SD-CG/FIRE-CG
REM
REM
REM
REM
REM
REM ./C.cell (b20cbc046b6831c77cfcea5457e17084)
REM AIRSS Version 0.9.1 bugfix July 2018 build 013d7b7c2542+ Fri, 06 Jul 2018 19:26:36 +0100
REM compiler GCC version 9.2.1 20190827 (Red Hat 9.2.1-1)
REM options -cpp -mtune=generic -march=x86-64 -g -O0 -fpre-include=/usr/include/finclude/math-vector-fortran.h
REM seed -1337488829 220576265 625070268 -1218783984 -562386956 -1729369302 1026040764 1719521897 -1658787974 -1310419973 -1596355945 -2015409538 174197718 1731360226 -664516625 1745948587 1416976631 1658730247 -1495686765 774403513 2059365239 -838524354 544181843 466435869 1127027145 1169913585 -1953184273 268004552 -1783644047 -512701968 1011478334 1499317562 1679457570
REM
CELL 1.54180   50.00000   50.00000   50.00000   90.00000   90.00000   90.00000
LATT -1
SFAC C  
C      1  0.4338170000000  0.4525060000000  0.4341240000000 1.0
C      1  0.5076240000000  0.4968680000000  0.5180380000000 1.0
C      1  0.5245410000000  0.5559170000000  0.4267930000000 1.0
C      1  0.5286800000000  0.5756780000000  0.4073700000000 1.0
C      1  0.5865320000000  0.4889890000000  0.5469390000000 1.0
C      1  0.5427820000000  0.5635520000000  0.5814610000000 1.0
C      1  0.5204380000000  0.4130900000000  0.5474170000000 1.0
C      1  0.5528730000000  0.4851260000000  0.5087250000000 1.0
C      1  0.4891750000000  0.5524790000000  0.5713300000000 1.0
C      1  0.5688710000000  0.4171260000000  0.4827740000000 1.0
C      1  0.5218330000000  0.4709430000000  0.4704660000000 1.0
C      1  0.4556090000000  0.4546110000000  0.4186500000000 1.0
C      1  0.4979530000000  0.4831580000000  0.4057580000000 1.0
C      1  0.5243130000000  0.5638330000000  0.4538870000000 1.0
C      1  0.5174110000000  0.5578680000000  0.5693830000000 1.0
C      1  0.4273670000000  0.5059050000000  0.4442210000000 1.0
C      1  0.6387910000000  0.5498910000000  0.5745410000000 1.0
C      1  0.4781230000000  0.4653970000000  0.4088810000000 1.0
C      1  0.4170620000000  0.4879250000000  0.4630730000000 1.0
C      1  0.3945370000000  0.4439930000000  0.4620940000000 1.0
C      1  0.5452520000000  0.5135220000000  0.4726520000000 1.0
C      1  0.5369470000000  0.6327630000000  0.3533080000000 1.0
C      1  0.3754010000000  0.5486800000000  0.5358090000000 1.0
C      1  0.5847820000000  0.5173040000000  0.5406190000000 1.0
C      1  0.5360490000000  0.4317410000000  0.5320470000000 1.0
C      1  0.5785010000000  0.5234450000000  0.5129870000000 1.0
C      1  0.3995810000000  0.5364210000000  0.5319190000000 1.0
C      1  0.4571360000000  0.4177630000000  0.5843070000000 1.0
C      1  0.5332160000000  0.4641370000000  0.5667840000000 1.0
C      1  0.4594010000000  0.5256870000000  0.5039370000000 1.0
C      1  0.4715790000000  0.5482280000000  0.5486720000000 1.0
C      1  0.4607640000000  0.4666920000000  0.5778690000000 1.0
C      1  0.4666700000000  0.5931560000000  0.4905800000000 1.0
C      1  0.4836770000000  0.5809890000000  0.5100470000000 1.0
C      1  0.5977660000000  0.3964230000000  0.4477650000000 1.0
C      1  0.5206140000000  0.5293440000000  0.4180700000000 1.0
C      1  0.5057610000000  0.5230590000000  0.5086370000000 1.0
C      1  0.5877120000000  0.5381210000000  0.5607770000000 1.0
C      1  0.4834690000000  0.4816130000000  0.5207910000000 1.0
C      1  0.4148630000000  0.4609720000000  0.4535000000000 1.0
C      1  0.6141620000000  0.5444040000000  0.5680230000000 1.0
C      1  0.5820370000000  0.3815210000000  0.4317700000000 1.0
C      1  0.5256640000000  0.5409140000000  0.5470520000000 1.0
C      1  0.5911320000000  0.4110740000000  0.4692900000000 1.0
C      1  0.4204580000000  0.5679750000000  0.4987200000000 1.0
C      1  0.5317060000000  0.5946150000000  0.3891010000000 1.0
C      1  0.4470400000000  0.4427190000000  0.5835660000000 1.0
C      1  0.5111280000000  0.6587360000000  0.4192170000000 1.0
C      1  0.4834910000000  0.4633740000000  0.4978690000000 1.0
C      1  0.4547060000000  0.5082730000000  0.4387300000000 1.0
C      1  0.4880660000000  0.4681750000000  0.5871920000000 1.0
C      1  0.5240050000000  0.3600840000000  0.5384080000000 1.0
C      1  0.5767650000000  0.4633590000000  0.5468480000000 1.0
C      1  0.4192460000000  0.4961610000000  0.4903310000000 1.0
C      1  0.4991850000000  0.6431680000000  0.4363810000000 1.0
C      1  0.5352610000000  0.3841540000000  0.4490710000000 1.0
C      1  0.5285150000000  0.4347150000000  0.5039680000000 1.0
C      1  0.4499920000000  0.4861150000000  0.5603370000000 1.0
C      1  0.5671190000000  0.5531300000000  0.5741780000000 1.0
C      1  0.5555710000000  0.3771210000000  0.4331940000000 1.0
C      1  0.5211840000000  0.5716890000000  0.4792880000000 1.0
C      1  0.5106700000000  0.4538560000000  0.4910250000000 1.0
C      1  0.4723080000000  0.4945800000000  0.4567930000000 1.0
C      1  0.4092540000000  0.5179110000000  0.5511200000000 1.0
C      1  0.4939990000000  0.4850950000000  0.6079940000000 1.0
C      1  0.5410130000000  0.4159770000000  0.4861470000000 1.0
C      1  0.5344550000000  0.6136750000000  0.3708890000000 1.0
C      1  0.3754790000000  0.4282010000000  0.4702510000000 1.0
C      1  0.4316270000000  0.5212240000000  0.4977800000000 1.0
C      1  0.4759960000000  0.6121970000000  0.4725680000000 1.0
C      1  0.5518040000000  0.4491920000000  0.5493120000000 1.0
C      1  0.4995530000000  0.3912280000000  0.4802750000000 1.0
C      1  0.4094790000000  0.4793310000000  0.5096920000000 1.0
C      1  0.5045870000000  0.4243350000000  0.5683570000000 1.0
C      1  0.5249690000000  0.3970370000000  0.4718490000000 1.0
C      1  0.5099440000000  0.5696740000000  0.5052220000000 1.0
C      1  0.4148340000000  0.5420760000000  0.5083240000000 1.0
C      1  0.4249890000000  0.4992140000000  0.5622980000000 1.0
C      1  0.5207730000000  0.4995210000000  0.4660970000000 1.0
C      1  0.5337070000000  0.4897160000000  0.5547080000000 1.0
C      1  0.4702340000000  0.5719200000000  0.5331390000000 1.0
C      1  0.5089700000000  0.4519710000000  0.5757420000000 1.0
C      1  0.4847530000000  0.5254700000000  0.4896470000000 1.0
C      1  0.5337350000000  0.5166900000000  0.5601300000000 1.0
C      1  0.5316100000000  0.4867930000000  0.5266230000000 1.0
C      1  0.4935200000000  0.5107760000000  0.4665340000000 1.0
C      1  0.4869970000000  0.6280090000000  0.4543860000000 1.0
C      1  0.4395700000000  0.5850080000000  0.4908260000000 1.0
C      1  0.4823720000000  0.4104670000000  0.5786010000000 1.0
C      1  0.5169190000000  0.5458850000000  0.5205300000000 1.0
C      1  0.4627980000000  0.5256960000000  0.4193370000000 1.0
C      1  0.4660800000000  0.4954440000000  0.5391210000000 1.0
C      1  0.4643290000000  0.5241500000000  0.5336210000000 1.0
C      1  0.5124010000000  0.5054870000000  0.4090790000000 1.0
C      1  0.5620170000000  0.5083740000000  0.4952460000000 1.0
C      1  0.5218500000000  0.3856720000000  0.5428540000000 1.0
C      1  0.4684970000000  0.4717530000000  0.4743460000000 1.0
END
