TITL C-3201376-6384-238 3.59668572624387e-08 125000 -77.5274182054653 0 0 14 (C3v) n - 1
REM
REM in /home/nfs/bkarasulu/CARBON/AIRSS/Generating-Clusters/LCBOP/Higher-Symm/SD-CG/FIRE-CG
REM
REM
REM
REM
REM
REM ./C.cell (b20cbc046b6831c77cfcea5457e17084)
REM AIRSS Version 0.9.1 bugfix July 2018 build 013d7b7c2542+ Fri, 06 Jul 2018 19:26:36 +0100
REM compiler GCC version 9.2.1 20190827 (Red Hat 9.2.1-1)
REM options -cpp -mtune=generic -march=x86-64 -g -O0 -fpre-include=/usr/include/finclude/math-vector-fortran.h
REM seed -739886925 -95312175 -563692059 -976892678 -1634176820 -455124385 382696009 1224976955 445185029 -1478576865 -1972465981 -536913788 -399522455 -282098835 502427004 -862011031 741645544 657838058 5657964 -1021157328 -1862286095 983536816 1312592049 -1223133769 1275122923 1261192106 1330863755 -480007407 -1338457207 103703173 67260707 37577650 -1274580964
REM
CELL 1.54180   50.00000   50.00000   50.00000   90.00000   90.00000   90.00000
LATT -1
SFAC C  
C      1  0.5381320000000  0.5381740000000  0.5223680000000 1.0
C      1  0.5035690000000  0.5381850000000  0.4525330000000 1.0
C      1  0.4603710000000  0.5381840000000  0.5173820000000 1.0
C      1  0.5025150000000  0.5164050000000  0.4689300000000 1.0
C      1  0.4750970000000  0.5164040000000  0.5100910000000 1.0
C      1  0.5244520000000  0.5163980000000  0.5132550000000 1.0
C      1  0.5327640000000  0.4899400000000  0.5187910000000 1.0
C      1  0.5031510000000  0.4899500000000  0.4589570000000 1.0
C      1  0.4661400000000  0.4899490000000  0.5145190000000 1.0
C      1  0.5024510000000  0.4652640000000  0.4698250000000 1.0
C      1  0.4759000000000  0.4652640000000  0.5096850000000 1.0
C      1  0.5236950000000  0.4652570000000  0.5127490000000 1.0
C      1  0.5006810000000  0.4589500000000  0.4974190000000 1.0
C      1  0.5006880000000  0.5190440000000  0.4974250000000 1.0
END
