TITL C-3201378-2706-1769 -1.56752966681589e-07 125000 -274.75954299868 0 0 46 (C1) n - 1
REM
REM in /home/nfs/bkarasulu/CARBON/AIRSS/Generating-Clusters/LCBOP/Higher-Symm/SD-CG/FIRE-CG
REM
REM
REM
REM
REM
REM ./C.cell (b20cbc046b6831c77cfcea5457e17084)
REM AIRSS Version 0.9.1 bugfix July 2018 build 013d7b7c2542+ Fri, 06 Jul 2018 19:26:36 +0100
REM compiler GCC version 9.2.1 20190827 (Red Hat 9.2.1-1)
REM options -cpp -mtune=generic -march=x86-64 -g -O0 -fpre-include=/usr/include/finclude/math-vector-fortran.h
REM seed -1371768008 2060243301 -1003905795 -1186600962 178389851 -18163956 1844261425 650887297 693307179 -1483543024 -1712891656 490600021 1795325815 1031219660 -1788565199 723224956 -2129361795 865866340 290249668 470171682 2062680259 -855776025 -554742469 199634486 1329514455 -1323681205 299161508 -1675778388 1316327281 275846718 -1278394672 1185974898 -1461757308
REM
CELL 1.54180   50.00000   50.00000   50.00000   90.00000   90.00000   90.00000
LATT -1
SFAC C  
C      1  0.4921020000000  0.4320120000000  0.5242910000000 1.0
C      1  0.5503880000000  0.5262840000000  0.5249910000000 1.0
C      1  0.4609500000000  0.5357240000000  0.5249090000000 1.0
C      1  0.5197550000000  0.5522380000000  0.4948730000000 1.0
C      1  0.4632670000000  0.4886590000000  0.5097610000000 1.0
C      1  0.5240260000000  0.4661950000000  0.5093010000000 1.0
C      1  0.5146080000000  0.4392330000000  0.5079530000000 1.0
C      1  0.5459250000000  0.5449370000000  0.5034900000000 1.0
C      1  0.4492550000000  0.5132880000000  0.5114240000000 1.0
C      1  0.5762090000000  0.4946110000000  0.4978840000000 1.0
C      1  0.4596850000000  0.5655790000000  0.4861400000000 1.0
C      1  0.4586810000000  0.4323660000000  0.4884930000000 1.0
C      1  0.4615310000000  0.5381850000000  0.5787540000000 1.0
C      1  0.4976610000000  0.4046770000000  0.5703430000000 1.0
C      1  0.5440990000000  0.5411160000000  0.5764700000000 1.0
C      1  0.5119170000000  0.4837070000000  0.4907300000000 1.0
C      1  0.5121440000000  0.5464990000000  0.4682420000000 1.0
C      1  0.4829710000000  0.4863460000000  0.4898210000000 1.0
C      1  0.5477940000000  0.5346020000000  0.5515100000000 1.0
C      1  0.4603550000000  0.5373620000000  0.5527350000000 1.0
C      1  0.4948460000000  0.4175100000000  0.5478390000000 1.0
C      1  0.5165520000000  0.4256430000000  0.4830360000000 1.0
C      1  0.5673610000000  0.5501610000000  0.4855970000000 1.0
C      1  0.4285500000000  0.5180530000000  0.4926710000000 1.0
C      1  0.4981510000000  0.4246000000000  0.4631170000000 1.0
C      1  0.5789410000000  0.5320700000000  0.4690550000000 1.0
C      1  0.4289450000000  0.5332770000000  0.4703090000000 1.0
C      1  0.4560010000000  0.4653520000000  0.5244380000000 1.0
C      1  0.5426340000000  0.4767920000000  0.5279470000000 1.0
C      1  0.5005690000000  0.5635610000000  0.5126820000000 1.0
C      1  0.4954750000000  0.5316870000000  0.4507350000000 1.0
C      1  0.4773670000000  0.4864110000000  0.4607080000000 1.0
C      1  0.5227830000000  0.4931730000000  0.4652320000000 1.0
C      1  0.4401570000000  0.4662380000000  0.5466360000000 1.0
C      1  0.5457220000000  0.4663300000000  0.5529770000000 1.0
C      1  0.5078690000000  0.5817600000000  0.5317500000000 1.0
C      1  0.4665830000000  0.4408020000000  0.5144730000000 1.0
C      1  0.5580130000000  0.4991440000000  0.5191530000000 1.0
C      1  0.4732310000000  0.5563610000000  0.5092380000000 1.0
C      1  0.4722940000000  0.4364350000000  0.4637690000000 1.0
C      1  0.5727570000000  0.5045260000000  0.4715060000000 1.0
C      1  0.4502570000000  0.5507100000000  0.4638340000000 1.0
C      1  0.5497500000000  0.4948320000000  0.4583630000000 1.0
C      1  0.4700540000000  0.5428470000000  0.4452680000000 1.0
C      1  0.4684260000000  0.4615300000000  0.4509150000000 1.0
C      1  0.4992280000000  0.5034290000000  0.4506680000000 1.0
END
