TITL C-3201372-1405-1554 -251.253337654272 125000 -508.634194633152 0 0 83 (C1) n - 1
REM
REM in /home/nfs/bkarasulu/CARBON/AIRSS/Generating-Clusters/LCBOP/Higher-Symm/SD-CG/FIRE-CG
REM
REM
REM
REM
REM
REM ./C.cell (b20cbc046b6831c77cfcea5457e17084)
REM AIRSS Version 0.9.1 bugfix July 2018 build 013d7b7c2542+ Fri, 06 Jul 2018 19:26:36 +0100
REM compiler GCC version 9.2.1 20190827 (Red Hat 9.2.1-1)
REM options -cpp -mtune=generic -march=x86-64 -g -O0 -fpre-include=/usr/include/finclude/math-vector-fortran.h
REM seed 743796952 351670462 315258631 -259208909 2057505756 -1936651418 394333628 1156848765 130783712 703581838 -791919638 -1907264582 -1094330402 -42570795 65320827 -1999455865 -1368177296 687287902 1710110447 -1155937507 474706661 678675243 579457269 -661271402 -921038861 -559533279 -1773638436 288321521 -997306440 -448560757 796720306 1771494751 1724691854
REM
CELL 1.54180   50.00000   50.00000   50.00000   90.00000   90.00000   90.00000
LATT -1
SFAC C  
C      1  0.5070170000000  0.4190940000000  0.5207820000000 1.0
C      1  0.5211230000000  0.4189510000000  0.4941130000000 1.0
C      1  0.4916230000000  0.4181050000000  0.4758420000000 1.0
C      1  0.4796290000000  0.4187640000000  0.5094820000000 1.0
C      1  0.5079130000000  0.5795490000000  0.4773220000000 1.0
C      1  0.5205090000000  0.5794750000000  0.5081760000000 1.0
C      1  0.4922980000000  0.5793700000000  0.5207920000000 1.0
C      1  0.4785430000000  0.5791530000000  0.4931130000000 1.0
C      1  0.4852800000000  0.4391560000000  0.4590030000000 1.0
C      1  0.4602060000000  0.4385310000000  0.5142840000000 1.0
C      1  0.5132620000000  0.4389410000000  0.5400000000000 1.0
C      1  0.5398850000000  0.4387900000000  0.4869230000000 1.0
C      1  0.4863280000000  0.5593000000000  0.5399350000000 1.0
C      1  0.4597020000000  0.5591250000000  0.4864410000000 1.0
C      1  0.5142570000000  0.5590280000000  0.4595020000000 1.0
C      1  0.5396760000000  0.5594780000000  0.5139360000000 1.0
C      1  0.4945410000000  0.4856240000000  0.5481240000000 1.0
C      1  0.5483720000000  0.4859820000000  0.5048880000000 1.0
C      1  0.5045680000000  0.4853080000000  0.4510500000000 1.0
C      1  0.4514260000000  0.4847170000000  0.4946890000000 1.0
C      1  0.4950310000000  0.5127630000000  0.4510930000000 1.0
C      1  0.5482230000000  0.5132370000000  0.4947510000000 1.0
C      1  0.5050890000000  0.5126820000000  0.5481110000000 1.0
C      1  0.4512530000000  0.5120140000000  0.5048090000000 1.0
C      1  0.5288390000000  0.4785980000000  0.4383830000000 1.0
C      1  0.4387550000000  0.4788160000000  0.4701950000000 1.0
C      1  0.4705470000000  0.4792380000000  0.5613560000000 1.0
C      1  0.5612420000000  0.4793940000000  0.5290510000000 1.0
C      1  0.5290950000000  0.5190390000000  0.5613450000000 1.0
C      1  0.4383350000000  0.5186300000000  0.5289390000000 1.0
C      1  0.4707280000000  0.5195570000000  0.4385440000000 1.0
C      1  0.5609560000000  0.5191830000000  0.4703090000000 1.0
C      1  0.4112980000000  0.4824450000000  0.5361070000000 1.0
C      1  0.5359290000000  0.4829170000000  0.5885030000000 1.0
C      1  0.5881390000000  0.4827330000000  0.4640000000000 1.0
C      1  0.4633710000000  0.4837860000000  0.4108100000000 1.0
C      1  0.4113320000000  0.5151520000000  0.4639530000000 1.0
C      1  0.5362040000000  0.5147970000000  0.4110880000000 1.0
C      1  0.5883340000000  0.5155660000000  0.5360930000000 1.0
C      1  0.4636190000000  0.5153070000000  0.5884890000000 1.0
C      1  0.4941740000000  0.4648440000000  0.4675540000000 1.0
C      1  0.4671330000000  0.4640850000000  0.5048090000000 1.0
C      1  0.5044220000000  0.4648630000000  0.5320380000000 1.0
C      1  0.5319030000000  0.4652520000000  0.4947120000000 1.0
C      1  0.4952410000000  0.5334200000000  0.5319440000000 1.0
C      1  0.4677070000000  0.5327850000000  0.4946410000000 1.0
C      1  0.5054750000000  0.5331530000000  0.4676180000000 1.0
C      1  0.5325290000000  0.5338550000000  0.5048640000000 1.0
C      1  0.4501190000000  0.4970350000000  0.5697990000000 1.0
C      1  0.5697120000000  0.4971560000000  0.5495250000000 1.0
C      1  0.5492340000000  0.4964540000000  0.4299890000000 1.0
C      1  0.4301820000000  0.4971930000000  0.4503390000000 1.0
C      1  0.4502990000000  0.5018280000000  0.4299650000000 1.0
C      1  0.5693970000000  0.5008230000000  0.4503740000000 1.0
C      1  0.5494490000000  0.5011710000000  0.5698160000000 1.0
C      1  0.4298690000000  0.5009450000000  0.5494800000000 1.0
C      1  0.5640180000000  0.4375610000000  0.4725840000000 1.0
C      1  0.4709020000000  0.4387200000000  0.4348440000000 1.0
C      1  0.4360270000000  0.4373570000000  0.5286530000000 1.0
C      1  0.5276780000000  0.4379350000000  0.5640580000000 1.0
C      1  0.5637720000000  0.5606990000000  0.5284180000000 1.0
C      1  0.4719050000000  0.5602540000000  0.5639980000000 1.0
C      1  0.4354720000000  0.5602790000000  0.4722790000000 1.0
C      1  0.5286690000000  0.5598330000000  0.4353850000000 1.0
C      1  0.4169340000000  0.5428840000000  0.4633870000000 1.0
C      1  0.4628990000000  0.5429640000000  0.5825640000000 1.0
C      1  0.5823990000000  0.5432360000000  0.5370470000000 1.0
C      1  0.5374440000000  0.5424730000000  0.4167860000000 1.0
C      1  0.4173210000000  0.4547980000000  0.5371490000000 1.0
C      1  0.4621740000000  0.4560680000000  0.4162370000000 1.0
C      1  0.5824200000000  0.4550140000000  0.4634950000000 1.0
C      1  0.5366590000000  0.4552500000000  0.5826160000000 1.0
C      1  0.4872040000000  0.4941190000000  0.3976730000000 1.0
C      1  0.3980590000000  0.4928460000000  0.5123250000000 1.0
C      1  0.5122250000000  0.4935160000000  0.6017210000000 1.0
C      1  0.6014510000000  0.4936080000000  0.4875360000000 1.0
C      1  0.4873230000000  0.5047240000000  0.6017210000000 1.0
C      1  0.3980990000000  0.5042410000000  0.4875040000000 1.0
C      1  0.5123840000000  0.5046500000000  0.3977740000000 1.0
C      1  0.6015410000000  0.5050560000000  0.5123360000000 1.0
C      1  0.5014960000000  0.4696860000000  0.4994900000000 1.0
C      1  0.4981170000000  0.5283820000000  0.4994610000000 1.0
C      1  0.4997730000000  0.4990270000000  0.4997360000000 1.0
END
