TITL C-3201378-2706-583 -1.49115991972256e-06 125000 -278.018215804393 0 0 47 (C1) n - 1
REM
REM in /home/nfs/bkarasulu/CARBON/AIRSS/Generating-Clusters/LCBOP/Higher-Symm/SD-CG/FIRE-CG
REM
REM
REM
REM
REM
REM ./C.cell (b20cbc046b6831c77cfcea5457e17084)
REM AIRSS Version 0.9.1 bugfix July 2018 build 013d7b7c2542+ Fri, 06 Jul 2018 19:26:36 +0100
REM compiler GCC version 9.2.1 20190827 (Red Hat 9.2.1-1)
REM options -cpp -mtune=generic -march=x86-64 -g -O0 -fpre-include=/usr/include/finclude/math-vector-fortran.h
REM seed -879576478 1244432105 466953771 857527668 -404456707 1522152206 963662584 2110721770 -196591826 1935083162 -1550824531 117815358 1244868421 -20085802 1052103147 -13275601 867651671 -111924378 1984763719 -1543196344 1065145450 337732275 -1075976120 161935349 -374146759 -182286490 -1800841164 -319657237 1906753301 -1193566978 2084080293 -541099721 438985557
REM
CELL 1.54180   50.00000   50.00000   50.00000   90.00000   90.00000   90.00000
LATT -1
SFAC C  
C      1  0.5697500000000  0.4630970000000  0.5529920000000 1.0
C      1  0.4271980000000  0.5357470000000  0.4520540000000 1.0
C      1  0.5379440000000  0.4269660000000  0.5559350000000 1.0
C      1  0.4540940000000  0.5759150000000  0.4478430000000 1.0
C      1  0.5258010000000  0.4754720000000  0.5538090000000 1.0
C      1  0.4713370000000  0.5296520000000  0.4418580000000 1.0
C      1  0.4497130000000  0.5494590000000  0.4397320000000 1.0
C      1  0.5438360000000  0.4536460000000  0.5622210000000 1.0
C      1  0.5665330000000  0.4240990000000  0.4921620000000 1.0
C      1  0.4396570000000  0.5695370000000  0.5149340000000 1.0
C      1  0.5356810000000  0.5634630000000  0.5088220000000 1.0
C      1  0.4675760000000  0.4344240000000  0.4928940000000 1.0
C      1  0.5191910000000  0.5237550000000  0.4407340000000 1.0
C      1  0.4780880000000  0.4770270000000  0.5620700000000 1.0
C      1  0.4915720000000  0.4245010000000  0.4871660000000 1.0
C      1  0.5129010000000  0.5766830000000  0.5125450000000 1.0
C      1  0.5466600000000  0.5152410000000  0.4881520000000 1.0
C      1  0.4435080000000  0.4712700000000  0.5224000000000 1.0
C      1  0.5772460000000  0.4501250000000  0.4939400000000 1.0
C      1  0.4317870000000  0.5427570000000  0.5113230000000 1.0
C      1  0.4366770000000  0.5166390000000  0.4714380000000 1.0
C      1  0.5661950000000  0.4796330000000  0.5299920000000 1.0
C      1  0.5356260000000  0.5177020000000  0.4606420000000 1.0
C      1  0.4567230000000  0.4727120000000  0.5470050000000 1.0
C      1  0.5273450000000  0.4997730000000  0.5068300000000 1.0
C      1  0.4821230000000  0.4973210000000  0.4792580000000 1.0
C      1  0.4267340000000  0.5853300000000  0.5331880000000 1.0
C      1  0.5800720000000  0.4045340000000  0.4786220000000 1.0
C      1  0.5082840000000  0.5007960000000  0.5907480000000 1.0
C      1  0.4953010000000  0.5335160000000  0.4001500000000 1.0
C      1  0.4571900000000  0.5865660000000  0.4722640000000 1.0
C      1  0.5397800000000  0.4140590000000  0.5324580000000 1.0
C      1  0.4293580000000  0.4936120000000  0.5132090000000 1.0
C      1  0.5720820000000  0.4991200000000  0.4876670000000 1.0
C      1  0.4610860000000  0.5803710000000  0.4994340000000 1.0
C      1  0.5415110000000  0.4180800000000  0.5046230000000 1.0
C      1  0.5040420000000  0.4845590000000  0.5691320000000 1.0
C      1  0.4952950000000  0.5291260000000  0.4271310000000 1.0
C      1  0.4303270000000  0.5175930000000  0.4988840000000 1.0
C      1  0.5764750000000  0.4763490000000  0.5038940000000 1.0
C      1  0.4499420000000  0.4500610000000  0.5052340000000 1.0
C      1  0.5495550000000  0.5423880000000  0.5002270000000 1.0
C      1  0.5379170000000  0.4885440000000  0.5307390000000 1.0
C      1  0.4642360000000  0.5111740000000  0.4632010000000 1.0
C      1  0.4869610000000  0.5819000000000  0.5100560000000 1.0
C      1  0.5174650000000  0.4193150000000  0.4902630000000 1.0
C      1  0.5016150000000  0.4948790000000  0.4971030000000 1.0
END
