TITL C-3201373-1215-2183 2218.37970148058 125000 -1100.5139407848 0 0 180 (C1) n - 1
REM
REM in /home/nfs/bkarasulu/CARBON/AIRSS/Generating-Clusters/LCBOP/Higher-Symm/SD-CG/FIRE-CG
REM
REM
REM
REM
REM
REM ./C.cell (b20cbc046b6831c77cfcea5457e17084)
REM AIRSS Version 0.9.1 bugfix July 2018 build 013d7b7c2542+ Fri, 06 Jul 2018 19:26:36 +0100
REM compiler GCC version 9.2.1 20190827 (Red Hat 9.2.1-1)
REM options -cpp -mtune=generic -march=x86-64 -g -O0 -fpre-include=/usr/include/finclude/math-vector-fortran.h
REM seed 1762180919 -1587898729 441096935 168571661 135626469 1831115141 -1465802916 -1110972130 -236814783 1986436356 -1542021699 1187634122 1666105757 493690 1934032122 211809115 1763931115 802829050 21081062 1568504866 -2018438498 358401330 -1732673618 -1082119364 416299036 -1353040713 2064758972 -209717042 13872091 -1902764451 1579945144 -837770479 -1030855778
REM
CELL 1.54180   50.00000   50.00000   50.00000   90.00000   90.00000   90.00000
LATT -1
SFAC C  
C      1  0.4052350000000  0.4369690000000  0.5259780000000 1.0
C      1  0.4032820000000  0.5232910000000  0.5668200000000 1.0
C      1  0.3989700000000  0.5645090000000  0.4810420000000 1.0
C      1  0.4005110000000  0.4782890000000  0.4384660000000 1.0
C      1  0.6004210000000  0.4109240000000  0.4181240000000 1.0
C      1  0.6066950000000  0.4225180000000  0.5873060000000 1.0
C      1  0.6020120000000  0.5909860000000  0.5791550000000 1.0
C      1  0.6241160000000  0.5939010000000  0.4397040000000 1.0
C      1  0.5873040000000  0.4065970000000  0.5774790000000 1.0
C      1  0.5823810000000  0.5804170000000  0.5942830000000 1.0
C      1  0.5989250000000  0.6013920000000  0.4336780000000 1.0
C      1  0.5811620000000  0.4223130000000  0.4031090000000 1.0
C      1  0.4395470000000  0.5020740000000  0.5234300000000 1.0
C      1  0.4383220000000  0.5219320000000  0.5002380000000 1.0
C      1  0.4396730000000  0.4995790000000  0.4799120000000 1.0
C      1  0.4413810000000  0.4774970000000  0.5030470000000 1.0
C      1  0.5807030000000  0.4570250000000  0.5234520000000 1.0
C      1  0.5803410000000  0.5256480000000  0.5439300000000 1.0
C      1  0.5777080000000  0.5436750000000  0.4772270000000 1.0
C      1  0.5780570000000  0.4741660000000  0.4565660000000 1.0
C      1  0.4833000000000  0.4632790000000  0.4596590000000 1.0
C      1  0.4855410000000  0.4652680000000  0.5413420000000 1.0
C      1  0.4819570000000  0.5375410000000  0.5356120000000 1.0
C      1  0.4813140000000  0.5381120000000  0.4626150000000 1.0
C      1  0.4512050000000  0.5465400000000  0.5004310000000 1.0
C      1  0.4519840000000  0.5005690000000  0.4552310000000 1.0
C      1  0.4585500000000  0.4563850000000  0.5010270000000 1.0
C      1  0.4531390000000  0.5002890000000  0.5475030000000 1.0
C      1  0.4756650000000  0.4019150000000  0.4998910000000 1.0
C      1  0.4772540000000  0.5001060000000  0.6003030000000 1.0
C      1  0.4739890000000  0.5999100000000  0.5017940000000 1.0
C      1  0.4709560000000  0.5042970000000  0.4005480000000 1.0
C      1  0.5231370000000  0.4767170000000  0.4862620000000 1.0
C      1  0.5258550000000  0.4853750000000  0.5153250000000 1.0
C      1  0.5334970000000  0.5154320000000  0.5124780000000 1.0
C      1  0.5232360000000  0.5265540000000  0.4873710000000 1.0
C      1  0.5563550000000  0.5512220000000  0.4593790000000 1.0
C      1  0.5532580000000  0.4627770000000  0.4470600000000 1.0
C      1  0.5561340000000  0.4471620000000  0.5348600000000 1.0
C      1  0.5545410000000  0.5351530000000  0.5532490000000 1.0
C      1  0.4204350000000  0.5770840000000  0.5468880000000 1.0
C      1  0.4175190000000  0.5466220000000  0.4274330000000 1.0
C      1  0.4209680000000  0.4261990000000  0.4572320000000 1.0
C      1  0.4222070000000  0.4559480000000  0.5799480000000 1.0
C      1  0.4211580000000  0.5361180000000  0.5848140000000 1.0
C      1  0.4159330000000  0.5833170000000  0.4686410000000 1.0
C      1  0.4167070000000  0.4658830000000  0.4184170000000 1.0
C      1  0.4237970000000  0.4192970000000  0.5380790000000 1.0
C      1  0.4417170000000  0.4628330000000  0.4048250000000 1.0
C      1  0.4496130000000  0.4080450000000  0.5418220000000 1.0
C      1  0.4469920000000  0.5401980000000  0.5960640000000 1.0
C      1  0.4404810000000  0.5968130000000  0.4645990000000 1.0
C      1  0.4931640000000  0.5171160000000  0.4841350000000 1.0
C      1  0.4973150000000  0.4871940000000  0.4754960000000 1.0
C      1  0.4952730000000  0.4891640000000  0.5235950000000 1.0
C      1  0.4857050000000  0.5145500000000  0.5138060000000 1.0
C      1  0.5692800000000  0.6054240000000  0.4720780000000 1.0
C      1  0.5873320000000  0.4699440000000  0.3945240000000 1.0
C      1  0.5918300000000  0.3955390000000  0.5301640000000 1.0
C      1  0.5882190000000  0.5333620000000  0.6058410000000 1.0
C      1  0.3934500000000  0.5053510000000  0.4345280000000 1.0
C      1  0.3979670000000  0.4327850000000  0.4990320000000 1.0
C      1  0.3968450000000  0.4962920000000  0.5717800000000 1.0
C      1  0.3926140000000  0.5689490000000  0.5081130000000 1.0
C      1  0.5495440000000  0.5516960000000  0.3610960000000 1.0
C      1  0.4776140000000  0.4405340000000  0.3792770000000 1.0
C      1  0.4836740000000  0.3797030000000  0.5632010000000 1.0
C      1  0.4817460000000  0.5647740000000  0.6208780000000 1.0
C      1  0.5559460000000  0.5648430000000  0.4119650000000 1.0
C      1  0.5223430000000  0.4520200000000  0.4084920000000 1.0
C      1  0.5274610000000  0.4092730000000  0.5504240000000 1.0
C      1  0.5238680000000  0.5526080000000  0.5888070000000 1.0
C      1  0.5883280000000  0.4898040000000  0.3445500000000 1.0
C      1  0.5929960000000  0.3445760000000  0.5130160000000 1.0
C      1  0.5873710000000  0.5163600000000  0.6568580000000 1.0
C      1  0.5394710000000  0.6491300000000  0.4817350000000 1.0
C      1  0.5080780000000  0.4173650000000  0.4656150000000 1.0
C      1  0.5146850000000  0.4713980000000  0.5816540000000 1.0
C      1  0.5117950000000  0.5767810000000  0.5263260000000 1.0
C      1  0.5082480000000  0.5323950000000  0.4204850000000 1.0
C      1  0.6193910000000  0.5542140000000  0.5519750000000 1.0
C      1  0.6215120000000  0.5659790000000  0.4800110000000 1.0
C      1  0.6172490000000  0.4459380000000  0.4479410000000 1.0
C      1  0.6213660000000  0.4506600000000  0.5500560000000 1.0
C      1  0.5714870000000  0.5544430000000  0.5961260000000 1.0
C      1  0.5740940000000  0.5951960000000  0.4457130000000 1.0
C      1  0.5702920000000  0.4483590000000  0.4024810000000 1.0
C      1  0.5754860000000  0.4043670000000  0.5519440000000 1.0
C      1  0.4389810000000  0.3825050000000  0.5816760000000 1.0
C      1  0.4351920000000  0.5779960000000  0.6239470000000 1.0
C      1  0.4442760000000  0.6393140000000  0.4316800000000 1.0
C      1  0.4324060000000  0.4226590000000  0.3792800000000 1.0
C      1  0.5612600000000  0.5705660000000  0.4387420000000 1.0
C      1  0.5482270000000  0.4548360000000  0.4194620000000 1.0
C      1  0.5527600000000  0.4203880000000  0.5454190000000 1.0
C      1  0.5496880000000  0.5470360000000  0.5792060000000 1.0
C      1  0.5811320000000  0.5178350000000  0.4863020000000 1.0
C      1  0.5797930000000  0.4895260000000  0.4798230000000 1.0
C      1  0.5814280000000  0.4805150000000  0.5087090000000 1.0
C      1  0.5830860000000  0.5111720000000  0.5205690000000 1.0
C      1  0.4676910000000  0.5232600000000  0.5861360000000 1.0
C      1  0.4633930000000  0.5867850000000  0.4784270000000 1.0
C      1  0.4622910000000  0.4803290000000  0.4137000000000 1.0
C      1  0.4699730000000  0.4167820000000  0.5238050000000 1.0
C      1  0.4130820000000  0.5920990000000  0.5685210000000 1.0
C      1  0.4091090000000  0.5690520000000  0.4142570000000 1.0
C      1  0.4126260000000  0.4119470000000  0.4354820000000 1.0
C      1  0.4142110000000  0.4347500000000  0.5952010000000 1.0
C      1  0.5942490000000  0.5647580000000  0.4872320000000 1.0
C      1  0.6021660000000  0.4690890000000  0.4421300000000 1.0
C      1  0.6053250000000  0.4433650000000  0.5279870000000 1.0
C      1  0.6040090000000  0.5315210000000  0.5587210000000 1.0
C      1  0.6338710000000  0.5785390000000  0.4595950000000 1.0
C      1  0.6160970000000  0.4210740000000  0.4375660000000 1.0
C      1  0.6215460000000  0.4416570000000  0.5754750000000 1.0
C      1  0.6181430000000  0.5796780000000  0.5607520000000 1.0
C      1  0.4476000000000  0.6285090000000  0.5317280000000 1.0
C      1  0.4408960000000  0.5328910000000  0.3742960000000 1.0
C      1  0.4409840000000  0.3753830000000  0.4776670000000 1.0
C      1  0.4493560000000  0.4731060000000  0.6303410000000 1.0
C      1  0.3867450000000  0.5173750000000  0.4889760000000 1.0
C      1  0.3874280000000  0.4864360000000  0.4858870000000 1.0
C      1  0.3881420000000  0.4822660000000  0.5189580000000 1.0
C      1  0.3876390000000  0.5154180000000  0.5200870000000 1.0
C      1  0.4596790000000  0.5557460000000  0.5261190000000 1.0
C      1  0.4588880000000  0.5265220000000  0.4458910000000 1.0
C      1  0.4629080000000  0.4464840000000  0.4748340000000 1.0
C      1  0.4617160000000  0.4748340000000  0.5574020000000 1.0
C      1  0.5538360000000  0.5589480000000  0.3862260000000 1.0
C      1  0.4994480000000  0.4449650000000  0.3966410000000 1.0
C      1  0.5059250000000  0.3963710000000  0.5591830000000 1.0
C      1  0.5024740000000  0.5608950000000  0.6022840000000 1.0
C      1  0.6046670000000  0.5225180000000  0.5855760000000 1.0
C      1  0.5809570000000  0.5893680000000  0.4922980000000 1.0
C      1  0.6033700000000  0.4794510000000  0.4157790000000 1.0
C      1  0.6068070000000  0.4166210000000  0.5187510000000 1.0
C      1  0.4658360000000  0.4796750000000  0.4416080000000 1.0
C      1  0.4736300000000  0.4449430000000  0.5223290000000 1.0
C      1  0.4688450000000  0.5218920000000  0.5579090000000 1.0
C      1  0.4660040000000  0.5584640000000  0.4789810000000 1.0
C      1  0.4014450000000  0.5604700000000  0.5334540000000 1.0
C      1  0.3996620000000  0.5312840000000  0.4436280000000 1.0
C      1  0.4028120000000  0.4417580000000  0.4727480000000 1.0
C      1  0.4036770000000  0.4702160000000  0.5635770000000 1.0
C      1  0.4464850000000  0.5792000000000  0.5353900000000 1.0
C      1  0.4436810000000  0.5359940000000  0.4236120000000 1.0
C      1  0.4472230000000  0.4234900000000  0.4678550000000 1.0
C      1  0.4486370000000  0.4665490000000  0.5813490000000 1.0
C      1  0.4511360000000  0.5249300000000  0.3982500000000 1.0
C      1  0.4538290000000  0.3991190000000  0.4815180000000 1.0
C      1  0.4578300000000  0.4794780000000  0.6052300000000 1.0
C      1  0.4554660000000  0.6037400000000  0.5234900000000 1.0
C      1  0.4570480000000  0.3901790000000  0.5625820000000 1.0
C      1  0.4542680000000  0.5612630000000  0.6136170000000 1.0
C      1  0.4423510000000  0.6188920000000  0.4477530000000 1.0
C      1  0.4501720000000  0.4416640000000  0.3878560000000 1.0
C      1  0.5303070000000  0.5415780000000  0.4642300000000 1.0
C      1  0.5321210000000  0.4592080000000  0.4654570000000 1.0
C      1  0.5338590000000  0.4647400000000  0.5361940000000 1.0
C      1  0.5327310000000  0.5331720000000  0.5350530000000 1.0
C      1  0.5072200000000  0.5430190000000  0.4466460000000 1.0
C      1  0.5081470000000  0.4443500000000  0.4577660000000 1.0
C      1  0.5121690000000  0.4609800000000  0.5555510000000 1.0
C      1  0.5095380000000  0.5503330000000  0.5361110000000 1.0
C      1  0.4880780000000  0.5715110000000  0.6467040000000 1.0
C      1  0.5442110000000  0.5445650000000  0.3365950000000 1.0
C      1  0.4828470000000  0.4354620000000  0.3527840000000 1.0
C      1  0.4875190000000  0.3528520000000  0.5672020000000 1.0
C      1  0.3935660000000  0.5381980000000  0.4707500000000 1.0
C      1  0.3954560000000  0.4683580000000  0.4652490000000 1.0
C      1  0.3976250000000  0.4625580000000  0.5367060000000 1.0
C      1  0.3961200000000  0.5332940000000  0.5407390000000 1.0
C      1  0.5880540000000  0.5245480000000  0.6321260000000 1.0
C      1  0.5544240000000  0.6282920000000  0.4771150000000 1.0
C      1  0.5877950000000  0.4804070000000  0.3688500000000 1.0
C      1  0.5926410000000  0.3692910000000  0.5212740000000 1.0
C      1  0.4971810000000  0.5143170000000  0.4039290000000 1.0
C      1  0.5006160000000  0.4025950000000  0.4868450000000 1.0
C      1  0.5035620000000  0.4903310000000  0.5972070000000 1.0
C      1  0.5005180000000  0.5949510000000  0.5100880000000 1.0
END
