TITL C-3201377-4638-2145 -1.43540056440732e-06 125000 -1192.07642724747 0 0 195 (C5) n - 1
REM
REM in /home/nfs/bkarasulu/CARBON/AIRSS/Generating-Clusters/LCBOP/Higher-Symm/SD-CG/FIRE-CG
REM
REM
REM
REM
REM
REM ./C.cell (b20cbc046b6831c77cfcea5457e17084)
REM AIRSS Version 0.9.1 bugfix July 2018 build 013d7b7c2542+ Fri, 06 Jul 2018 19:26:36 +0100
REM compiler GCC version 9.2.1 20190827 (Red Hat 9.2.1-1)
REM options -cpp -mtune=generic -march=x86-64 -g -O0 -fpre-include=/usr/include/finclude/math-vector-fortran.h
REM seed 1539252811 1696504082 665095151 2135679755 2069184590 1210554772 1486526182 -139782350 -2133250243 -662210765 -2012384004 -292697238 -1801585061 -30217888 -2101350287 1205681523 -720032785 1520997366 -1474206277 -1331021201 -1736013376 995524666 420070490 135889273 2035289416 -143178564 1742212761 -1575886913 1114387078 189825334 503681062 -833142233 1271646307
REM
CELL 1.54180   50.00000   50.00000   50.00000   90.00000   90.00000   90.00000
LATT -1
SFAC C  
C      1  0.5065470000000  0.6162470000000  0.4758340000000 1.0
C      1  0.4790670000000  0.6162510000000  0.4863030000000 1.0
C      1  0.4805320000000  0.6162560000000  0.5156730000000 1.0
C      1  0.5089170000000  0.6162550000000  0.5233550000000 1.0
C      1  0.5249950000000  0.6162490000000  0.4987340000000 1.0
C      1  0.5491170000000  0.5128430000000  0.5672990000000 1.0
C      1  0.5791870000000  0.5128230000000  0.4740830000000 1.0
C      1  0.4998240000000  0.5128220000000  0.4166800000000 1.0
C      1  0.4207070000000  0.5128400000000  0.4744190000000 1.0
C      1  0.4511710000000  0.5128530000000  0.5675070000000 1.0
C      1  0.4742800000000  0.4707540000000  0.6265660000000 1.0
C      1  0.6124170000000  0.4707290000000  0.5635730000000 1.0
C      1  0.5951930000000  0.4707040000000  0.4127310000000 1.0
C      1  0.4464120000000  0.4707140000000  0.3824990000000 1.0
C      1  0.3716830000000  0.4707450000000  0.5146560000000 1.0
C      1  0.4386110000000  0.5646430000000  0.4876550000000 1.0
C      1  0.4693040000000  0.5646520000000  0.5545680000000 1.0
C      1  0.5424270000000  0.5646430000000  0.5460540000000 1.0
C      1  0.5569260000000  0.5646290000000  0.4738800000000 1.0
C      1  0.4927640000000  0.5646290000000  0.4377870000000 1.0
C      1  0.5737870000000  0.4670050000000  0.3962150000000 1.0
C      1  0.4240890000000  0.4670210000000  0.3977540000000 1.0
C      1  0.3792920000000  0.4670500000000  0.5406010000000 1.0
C      1  0.5013050000000  0.4670530000000  0.6273470000000 1.0
C      1  0.6215100000000  0.4670250000000  0.5381120000000 1.0
C      1  0.5384990000000  0.4979020000000  0.4404000000000 1.0
C      1  0.4552130000000  0.4979110000000  0.4449680000000 1.0
C      1  0.4338210000000  0.4979280000000  0.5255890000000 1.0
C      1  0.5038860000000  0.4979280000000  0.5708480000000 1.0
C      1  0.5685800000000  0.4979130000000  0.5181980000000 1.0
C      1  0.6117550000000  0.5638030000000  0.4802210000000 1.0
C      1  0.5157380000000  0.5637970000000  0.3876010000000 1.0
C      1  0.3979810000000  0.5638200000000  0.4502980000000 1.0
C      1  0.4212200000000  0.5638400000000  0.5816660000000 1.0
C      1  0.5533390000000  0.5638300000000  0.6001590000000 1.0
C      1  0.5003120000000  0.5012180000000  0.4714180000000 1.0
C      1  0.4729140000000  0.5012240000000  0.4908710000000 1.0
C      1  0.4829480000000  0.5012290000000  0.5229400000000 1.0
C      1  0.5165480000000  0.5012260000000  0.5233060000000 1.0
C      1  0.5272790000000  0.5012190000000  0.4914640000000 1.0
C      1  0.5236990000000  0.5520720000000  0.5001890000000 1.0
C      1  0.5075160000000  0.5520700000000  0.4775180000000 1.0
C      1  0.4809530000000  0.5520740000000  0.4859040000000 1.0
C      1  0.4807200000000  0.5520790000000  0.5137570000000 1.0
C      1  0.5071390000000  0.5520780000000  0.5225860000000 1.0
C      1  0.5480700000000  0.3887890000000  0.4426330000000 1.0
C      1  0.4602690000000  0.3887970000000  0.4365580000000 1.0
C      1  0.4273590000000  0.3888140000000  0.5181850000000 1.0
C      1  0.4948210000000  0.3888170000000  0.5747080000000 1.0
C      1  0.5694250000000  0.3888020000000  0.5280140000000 1.0
C      1  0.5702600000000  0.4493150000000  0.5371930000000 1.0
C      1  0.5570720000000  0.4493000000000  0.4446740000000 1.0
C      1  0.4650060000000  0.4493070000000  0.4286250000000 1.0
C      1  0.4212930000000  0.4493260000000  0.5112270000000 1.0
C      1  0.4863430000000  0.4493310000000  0.5783250000000 1.0
C      1  0.3763720000000  0.4664200000000  0.4881880000000 1.0
C      1  0.4505550000000  0.4664340000000  0.6139280000000 1.0
C      1  0.5930640000000  0.4664140000000  0.5822320000000 1.0
C      1  0.6069580000000  0.4663870000000  0.4369020000000 1.0
C      1  0.4730340000000  0.4663910000000  0.3787800000000 1.0
C      1  0.5414330000000  0.5756080000000  0.3989240000000 1.0
C      1  0.4166920000000  0.5756260000000  0.4293590000000 1.0
C      1  0.4070910000000  0.5756490000000  0.5573990000000 1.0
C      1  0.5258970000000  0.5756460000000  0.6060970000000 1.0
C      1  0.6089250000000  0.5756200000000  0.5081540000000 1.0
C      1  0.5113030000000  0.5464610000000  0.4507650000000 1.0
C      1  0.4566780000000  0.5464700000000  0.4740350000000 1.0
C      1  0.4619300000000  0.5464800000000  0.5331770000000 1.0
C      1  0.5197990000000  0.5464760000000  0.5464580000000 1.0
C      1  0.5503140000000  0.5464640000000  0.4955250000000 1.0
C      1  0.3818310000000  0.5674360000000  0.5056220000000 1.0
C      1  0.4688460000000  0.5674460000000  0.6141210000000 1.0
C      1  0.5989250000000  0.5674240000000  0.5648930000000 1.0
C      1  0.5923020000000  0.5674000000000  0.4259680000000 1.0
C      1  0.4581310000000  0.5674080000000  0.3893370000000 1.0
C      1  0.4231330000000  0.5478220000000  0.5045260000000 1.0
C      1  0.4805630000000  0.5478280000000  0.5745020000000 1.0
C      1  0.5648610000000  0.5478140000000  0.5415070000000 1.0
C      1  0.5595300000000  0.5477990000000  0.4511390000000 1.0
C      1  0.4719380000000  0.5478040000000  0.4282830000000 1.0
C      1  0.5219340000000  0.3979130000000  0.4858060000000 1.0
C      1  0.4932550000000  0.3979140000000  0.4747560000000 1.0
C      1  0.4738830000000  0.3979200000000  0.4986170000000 1.0
C      1  0.4905900000000  0.3979230000000  0.5244140000000 1.0
C      1  0.5202870000000  0.3979190000000  0.5164960000000 1.0
C      1  0.4002310000000  0.4522960000000  0.5533780000000 1.0
C      1  0.5199240000000  0.4522940000000  0.6113810000000 1.0
C      1  0.6120760000000  0.4522670000000  0.5154710000000 1.0
C      1  0.5493360000000  0.4522530000000  0.3981920000000 1.0
C      1  0.4184090000000  0.4522710000000  0.4216200000000 1.0
C      1  0.5198600000000  0.6087090000000  0.5485210000000 1.0
C      1  0.5523090000000  0.6086970000000  0.4961040000000 1.0
C      1  0.5124840000000  0.6086920000000  0.4490450000000 1.0
C      1  0.4554220000000  0.6087020000000  0.4723780000000 1.0
C      1  0.4599810000000  0.6087130000000  0.5338580000000 1.0
C      1  0.4509710000000  0.5159140000000  0.4701160000000 1.0
C      1  0.4564310000000  0.5159250000000  0.5373940000000 1.0
C      1  0.5221040000000  0.5159210000000  0.5529910000000 1.0
C      1  0.5572320000000  0.5159070000000  0.4953520000000 1.0
C      1  0.5132690000000  0.5159030000000  0.4441320000000 1.0
C      1  0.5088040000000  0.6116390000000  0.5745700000000 1.0
C      1  0.5736680000000  0.6116220000000  0.5146670000000 1.0
C      1  0.5367410000000  0.6116120000000  0.4344680000000 1.0
C      1  0.4490550000000  0.6116220000000  0.4448040000000 1.0
C      1  0.4317890000000  0.6116390000000  0.5313930000000 1.0
C      1  0.4604110000000  0.4382400000000  0.5770820000000 1.0
C      1  0.5610610000000  0.4382270000000  0.5614720000000 1.0
C      1  0.5773180000000  0.4382080000000  0.4609250000000 1.0
C      1  0.4867150000000  0.4382090000000  0.4143930000000 1.0
C      1  0.4144630000000  0.4382290000000  0.4861820000000 1.0
C      1  0.4964230000000  0.4135820000000  0.4238330000000 1.0
C      1  0.4264350000000  0.4135990000000  0.4798670000000 1.0
C      1  0.4580990000000  0.4136110000000  0.5637450000000 1.0
C      1  0.5476560000000  0.4136010000000  0.5595510000000 1.0
C      1  0.5713420000000  0.4135830000000  0.4730800000000 1.0
C      1  0.4865380000000  0.5545940000000  0.3873840000000 1.0
C      1  0.3887490000000  0.5546190000000  0.4780010000000 1.0
C      1  0.4447130000000  0.5546350000000  0.5990060000000 1.0
C      1  0.5770890000000  0.5546190000000  0.5831750000000 1.0
C      1  0.6029390000000  0.5545930000000  0.4523850000000 1.0
C      1  0.5693280000000  0.5673840000000  0.4084990000000 1.0
C      1  0.4344170000000  0.5673980000000  0.4057880000000 1.0
C      1  0.3901490000000  0.5674240000000  0.5332580000000 1.0
C      1  0.4977010000000  0.5674280000000  0.6147500000000 1.0
C      1  0.6084390000000  0.5674030000000  0.5376450000000 1.0
C      1  0.4592030000000  0.5323930000000  0.5859990000000 1.0
C      1  0.5691900000000  0.5323780000000  0.5653740000000 1.0
C      1  0.5835630000000  0.5323570000000  0.4543970000000 1.0
C      1  0.4824590000000  0.5323590000000  0.4064340000000 1.0
C      1  0.4056000000000  0.5323810000000  0.4877680000000 1.0
C      1  0.5462310000000  0.3996350000000  0.4692280000000 1.0
C      1  0.4849970000000  0.3996370000000  0.4465250000000 1.0
C      1  0.4444820000000  0.3996500000000  0.4977470000000 1.0
C      1  0.4806770000000  0.3996560000000  0.5521070000000 1.0
C      1  0.5435620000000  0.3996470000000  0.5344810000000 1.0
C      1  0.4679710000000  0.5927290000000  0.5559130000000 1.0
C      1  0.5433010000000  0.5927200000000  0.5477370000000 1.0
C      1  0.5588030000000  0.5927050000000  0.4735680000000 1.0
C      1  0.4930550000000  0.5927050000000  0.4359050000000 1.0
C      1  0.4369180000000  0.5927200000000  0.4867970000000 1.0
C      1  0.4237510000000  0.6028840000000  0.4360860000000 1.0
C      1  0.4156760000000  0.6029050000000  0.5527640000000 1.0
C      1  0.5241490000000  0.6029020000000  0.5965000000000 1.0
C      1  0.5992630000000  0.6028780000000  0.5068510000000 1.0
C      1  0.5372140000000  0.6028670000000  0.4077090000000 1.0
C      1  0.5381950000000  0.4730940000000  0.4808880000000 1.0
C      1  0.4936200000000  0.4730940000000  0.4577690000000 1.0
C      1  0.4578580000000  0.4731040000000  0.4930180000000 1.0
C      1  0.4803310000000  0.4731100000000  0.5379230000000 1.0
C      1  0.5299820000000  0.4731030000000  0.5304260000000 1.0
C      1  0.6016530000000  0.4535410000000  0.4619510000000 1.0
C      1  0.4952150000000  0.4535390000000  0.3915650000000 1.0
C      1  0.3953830000000  0.4535630000000  0.4710440000000 1.0
C      1  0.4401220000000  0.4535800000000  0.5905500000000 1.0
C      1  0.5676040000000  0.4535660000000  0.5849300000000 1.0
C      1  0.5598800000000  0.6072970000000  0.4496290000000 1.0
C      1  0.4706230000000  0.6073030000000  0.4274830000000 1.0
C      1  0.4219790000000  0.6073210000000  0.5055270000000 1.0
C      1  0.4811720000000  0.6073270000000  0.5759080000000 1.0
C      1  0.5664000000000  0.6073130000000  0.5413600000000 1.0
C      1  0.5113560000000  0.4073950000000  0.5887120000000 1.0
C      1  0.5878570000000  0.4073740000000  0.5166150000000 1.0
C      1  0.5429290000000  0.4073620000000  0.4215800000000 1.0
C      1  0.4386620000000  0.4073750000000  0.4349410000000 1.0
C      1  0.4191480000000  0.4073950000000  0.5382340000000 1.0
C      1  0.5904590000000  0.4350580000000  0.5234760000000 1.0
C      1  0.5502650000000  0.4350450000000  0.4212240000000 1.0
C      1  0.4405970000000  0.4350570000000  0.4278540000000 1.0
C      1  0.4130130000000  0.4350780000000  0.5342020000000 1.0
C      1  0.5056320000000  0.4350790000000  0.5933000000000 1.0
C      1  0.5473220000000  0.4567980000000  0.6047690000000 1.0
C      1  0.6142550000000  0.4567710000000  0.4873700000000 1.0
C      1  0.5232850000000  0.4567630000000  0.3874360000000 1.0
C      1  0.4001300000000  0.4567850000000  0.4430720000000 1.0
C      1  0.4149860000000  0.4568070000000  0.5773910000000 1.0
C      1  0.5179390000000  0.4025350000000  0.4100020000000 1.0
C      1  0.4199270000000  0.4025520000000  0.4551300000000 1.0
C      1  0.4325590000000  0.4025700000000  0.5622910000000 1.0
C      1  0.5383780000000  0.4025630000000  0.5833910000000 1.0
C      1  0.5911460000000  0.4025410000000  0.4892710000000 1.0
C      1  0.4758740000000  0.4514140000000  0.4955050000000 1.0
C      1  0.4882580000000  0.4514170000000  0.5215570000000 1.0
C      1  0.5168620000000  0.4514140000000  0.5178300000000 1.0
C      1  0.5221560000000  0.4514080000000  0.4894740000000 1.0
C      1  0.4968250000000  0.4514090000000  0.4756760000000 1.0
C      1  0.4194270000000  0.3627010000000  0.5180980000000 1.0
C      1  0.4922820000000  0.3627040000000  0.5822250000000 1.0
C      1  0.5757830000000  0.3626870000000  0.5327530000000 1.0
C      1  0.5545350000000  0.3626730000000  0.4380500000000 1.0
C      1  0.4579020000000  0.3626810000000  0.4289940000000 1.0
C      1  0.5463560000000  0.4738530000000  0.4536020000000 1.0
C      1  0.4701910000000  0.4738580000000  0.4415760000000 1.0
C      1  0.4352180000000  0.4738740000000  0.5102970000000 1.0
C      1  0.4897680000000  0.4738780000000  0.5647940000000 1.0
C      1  0.5584550000000  0.4738650000000  0.5297550000000 1.0
END
