TITL C-3201373-1215-1162 -2.29937815290334e-07 125000 -145.651605890674 0 0 24 (D4h) n - 1
REM
REM in /home/nfs/bkarasulu/CARBON/AIRSS/Generating-Clusters/LCBOP/Higher-Symm/SD-CG/FIRE-CG
REM
REM
REM
REM
REM
REM ./C.cell (b20cbc046b6831c77cfcea5457e17084)
REM AIRSS Version 0.9.1 bugfix July 2018 build 013d7b7c2542+ Fri, 06 Jul 2018 19:26:36 +0100
REM compiler GCC version 9.2.1 20190827 (Red Hat 9.2.1-1)
REM options -cpp -mtune=generic -march=x86-64 -g -O0 -fpre-include=/usr/include/finclude/math-vector-fortran.h
REM seed -209706594 -362442491 -1482515603 1068550415 -580295737 825788389 -564497386 -2098000589 -937365080 -295239065 -1296119893 -1005649678 1840845490 665355223 -1516885738 -1029308113 1971126813 1612885697 -216260396 883009031 2131068793 1427144547 1740364317 585708614 -1626561186 -2101706321 1008299478 -1525654294 -644277442 -2104907279 13783290 1653586250 1724812476
REM
CELL 1.54180   50.00000   50.00000   50.00000   90.00000   90.00000   90.00000
LATT -1
SFAC C  
C      1  0.4521940000000  0.5134050000000  0.4724420000000 1.0
C      1  0.4865950000000  0.4521940000000  0.4724420000000 1.0
C      1  0.5478060000000  0.4865950000000  0.4724420000000 1.0
C      1  0.5134050000000  0.5478060000000  0.4724420000000 1.0
C      1  0.5478060000000  0.5134050000000  0.5275580000000 1.0
C      1  0.5134050000000  0.4521940000000  0.5275580000000 1.0
C      1  0.4521940000000  0.4865950000000  0.5275580000000 1.0
C      1  0.4865950000000  0.5478060000000  0.5275580000000 1.0
C      1  0.5134050000000  0.4521940000000  0.4724420000000 1.0
C      1  0.5478060000000  0.5134050000000  0.4724420000000 1.0
C      1  0.4865950000000  0.5478060000000  0.4724420000000 1.0
C      1  0.4521940000000  0.4865950000000  0.4724420000000 1.0
C      1  0.4865950000000  0.4521940000000  0.5275580000000 1.0
C      1  0.4521940000000  0.5134050000000  0.5275580000000 1.0
C      1  0.5134050000000  0.5478060000000  0.5275580000000 1.0
C      1  0.5478060000000  0.4865950000000  0.5275580000000 1.0
C      1  0.5343670000000  0.5343670000000  0.4855910000000 1.0
C      1  0.4656330000000  0.5343670000000  0.4855910000000 1.0
C      1  0.4656330000000  0.4656330000000  0.4855910000000 1.0
C      1  0.5343670000000  0.4656330000000  0.4855910000000 1.0
C      1  0.4656330000000  0.5343670000000  0.5144090000000 1.0
C      1  0.5343670000000  0.5343670000000  0.5144090000000 1.0
C      1  0.5343670000000  0.4656330000000  0.5144090000000 1.0
C      1  0.4656330000000  0.4656330000000  0.5144090000000 1.0
END
