TITL C-3201373-1215-775 2.79196072380393 125000 -1159.14713950526 0 0 189 (C2) n - 1
REM
REM in /home/nfs/bkarasulu/CARBON/AIRSS/Generating-Clusters/LCBOP/Higher-Symm/SD-CG/FIRE-CG
REM
REM
REM
REM
REM
REM ./C.cell (b20cbc046b6831c77cfcea5457e17084)
REM AIRSS Version 0.9.1 bugfix July 2018 build 013d7b7c2542+ Fri, 06 Jul 2018 19:26:36 +0100
REM compiler GCC version 9.2.1 20190827 (Red Hat 9.2.1-1)
REM options -cpp -mtune=generic -march=x86-64 -g -O0 -fpre-include=/usr/include/finclude/math-vector-fortran.h
REM seed 464072015 367570855 1107228632 -1491857725 497957757 554736713 -1098114322 1773705848 -90668419 690106887 893961432 -2083608244 207374079 1150403372 2015899508 -195798340 -1539326440 -1745706597 -1938844258 -1177128194 -1646549261 -1611964688 2011399235 714244567 192399696 -1694737582 -2141131385 2040638497 -210487563 1229906463 -444002797 204697909 1657916926
REM
CELL 1.54180   50.00000   50.00000   50.00000   90.00000   90.00000   90.00000
LATT -1
SFAC C  
C      1  0.6326590000000  0.4197180000000  0.5313440000000 1.0
C      1  0.4044030000000  0.4234980000000  0.6009990000000 1.0
C      1  0.4655730000000  0.4234700000000  0.3691970000000 1.0
C      1  0.3647350000000  0.5768970000000  0.5322940000000 1.0
C      1  0.5960680000000  0.5769250000000  0.5952140000000 1.0
C      1  0.5391810000000  0.5806770000000  0.3694410000000 1.0
C      1  0.4562090000000  0.5336590000000  0.5514070000000 1.0
C      1  0.4766770000000  0.5349080000000  0.4337510000000 1.0
C      1  0.5746180000000  0.5332300000000  0.5166140000000 1.0
C      1  0.5457140000000  0.4654870000000  0.5533220000000 1.0
C      1  0.5229190000000  0.4671650000000  0.4270710000000 1.0
C      1  0.4335850000000  0.4667360000000  0.5122230000000 1.0
C      1  0.6089740000000  0.4882030000000  0.5500250000000 1.0
C      1  0.4023850000000  0.4912600000000  0.5693070000000 1.0
C      1  0.4890480000000  0.4938310000000  0.3795000000000 1.0
C      1  0.3911720000000  0.5091350000000  0.5498870000000 1.0
C      1  0.5988820000000  0.5065640000000  0.5697320000000 1.0
C      1  0.5111610000000  0.5121920000000  0.3806120000000 1.0
C      1  0.4149580000000  0.4466030000000  0.5029260000000 1.0
C      1  0.5411070000000  0.4463060000000  0.4194600000000 1.0
C      1  0.5460650000000  0.4455380000000  0.5748770000000 1.0
C      1  0.5903030000000  0.5540890000000  0.5046670000000 1.0
C      1  0.4581850000000  0.5548570000000  0.4226690000000 1.0
C      1  0.4549470000000  0.5537920000000  0.5721860000000 1.0
C      1  0.4605120000000  0.4848960000000  0.5479790000000 1.0
C      1  0.4781710000000  0.4855300000000  0.4362400000000 1.0
C      1  0.5578150000000  0.4867410000000  0.5111740000000 1.0
C      1  0.5443050000000  0.5148650000000  0.5507830000000 1.0
C      1  0.5192290000000  0.5136540000000  0.4443430000000 1.0
C      1  0.4387050000000  0.5154990000000  0.5102100000000 1.0
C      1  0.4249590000000  0.4664430000000  0.4057340000000 1.0
C      1  0.6182210000000  0.4645700000000  0.4798810000000 1.0
C      1  0.4566870000000  0.4668360000000  0.6145150000000 1.0
C      1  0.5765320000000  0.5358260000000  0.4076750000000 1.0
C      1  0.3791700000000  0.5335590000000  0.4802560000000 1.0
C      1  0.5441190000000  0.5339520000000  0.6121190000000 1.0
C      1  0.5689480000000  0.5868150000000  0.5352970000000 1.0
C      1  0.4318770000000  0.5832430000000  0.5411760000000 1.0
C      1  0.4955820000000  0.5858060000000  0.4209630000000 1.0
C      1  0.4302810000000  0.4171520000000  0.5384100000000 1.0
C      1  0.5662410000000  0.4145890000000  0.5433420000000 1.0
C      1  0.5039040000000  0.4135800000000  0.4226410000000 1.0
C      1  0.5372260000000  0.4908440000000  0.5675040000000 1.0
C      1  0.4258040000000  0.4919580000000  0.4978260000000 1.0
C      1  0.5377630000000  0.4915220000000  0.4359030000000 1.0
C      1  0.4647860000000  0.5084370000000  0.5653440000000 1.0
C      1  0.5743910000000  0.5088730000000  0.4993430000000 1.0
C      1  0.4601500000000  0.5095510000000  0.4340110000000 1.0
C      1  0.5624650000000  0.5162080000000  0.4720630000000 1.0
C      1  0.4946570000000  0.5141020000000  0.5702450000000 1.0
C      1  0.4409490000000  0.5159450000000  0.4581020000000 1.0
C      1  0.4364940000000  0.4862930000000  0.4695070000000 1.0
C      1  0.5067610000000  0.4844500000000  0.5720890000000 1.0
C      1  0.5554250000000  0.4841870000000  0.4598710000000 1.0
C      1  0.4478320000000  0.4664210000000  0.3872950000000 1.0
C      1  0.6227420000000  0.4631240000000  0.5088750000000 1.0
C      1  0.4297210000000  0.4664390000000  0.6030660000000 1.0
C      1  0.5536820000000  0.5372720000000  0.3892630000000 1.0
C      1  0.3756030000000  0.5339560000000  0.5093340000000 1.0
C      1  0.5715250000000  0.5339740000000  0.6015290000000 1.0
C      1  0.4833190000000  0.4666520000000  0.5078680000000 1.0
C      1  0.5009340000000  0.4537020000000  0.4655820000000 1.0
C      1  0.5109840000000  0.4635270000000  0.5182870000000 1.0
C      1  0.5302740000000  0.5466930000000  0.5163990000000 1.0
C      1  0.4896540000000  0.5368680000000  0.4813450000000 1.0
C      1  0.4848460000000  0.5337430000000  0.5105120000000 1.0
C      1  0.4551960000000  0.6012720000000  0.5788700000000 1.0
C      1  0.4507630000000  0.6027100000000  0.4222800000000 1.0
C      1  0.5910490000000  0.6017150000000  0.4955640000000 1.0
C      1  0.5426910000000  0.3976850000000  0.5814990000000 1.0
C      1  0.5493640000000  0.3986800000000  0.4233660000000 1.0
C      1  0.4092950000000  0.3991230000000  0.4993680000000 1.0
C      1  0.4661240000000  0.4952340000000  0.6151000000000 1.0
C      1  0.4179730000000  0.4944980000000  0.4113510000000 1.0
C      1  0.6155700000000  0.4932220000000  0.4722550000000 1.0
C      1  0.5357620000000  0.5058970000000  0.6153610000000 1.0
C      1  0.5818110000000  0.5071730000000  0.4137840000000 1.0
C      1  0.3833810000000  0.5051610000000  0.4717910000000 1.0
C      1  0.5949740000000  0.4534480000000  0.4673040000000 1.0
C      1  0.4793450000000  0.4532200000000  0.6038160000000 1.0
C      1  0.4243480000000  0.4546240000000  0.4318230000000 1.0
C      1  0.3997640000000  0.5471740000000  0.4659830000000 1.0
C      1  0.5212200000000  0.5457710000000  0.5996050000000 1.0
C      1  0.5758000000000  0.5469470000000  0.4340960000000 1.0
C      1  0.4577220000000  0.4135720000000  0.5420760000000 1.0
C      1  0.4860070000000  0.4093730000000  0.4439540000000 1.0
C      1  0.5560260000000  0.4117740000000  0.5175600000000 1.0
C      1  0.5415420000000  0.5910220000000  0.5401400000000 1.0
C      1  0.5128040000000  0.5886210000000  0.4426990000000 1.0
C      1  0.4424220000000  0.5868220000000  0.5155770000000 1.0
C      1  0.4776260000000  0.4514440000000  0.4832030000000 1.0
C      1  0.5250550000000  0.4428300000000  0.4749420000000 1.0
C      1  0.5057160000000  0.4440480000000  0.5386180000000 1.0
C      1  0.5342280000000  0.5575650000000  0.4908290000000 1.0
C      1  0.4694130000000  0.5563470000000  0.4757420000000 1.0
C      1  0.5033610000000  0.5489510000000  0.5277750000000 1.0
C      1  0.4710860000000  0.5474680000000  0.5960600000000 1.0
C      1  0.4292070000000  0.5475290000000  0.4238020000000 1.0
C      1  0.6002660000000  0.5467770000000  0.4780700000000 1.0
C      1  0.5305960000000  0.4528660000000  0.5994070000000 1.0
C      1  0.5691230000000  0.4536180000000  0.4241300000000 1.0
C      1  0.4023520000000  0.4529260000000  0.4770130000000 1.0
C      1  0.4953440000000  0.4574730000000  0.5606590000000 1.0
C      1  0.4552220000000  0.4616280000000  0.4670000000000 1.0
C      1  0.5487240000000  0.4581790000000  0.4761530000000 1.0
C      1  0.5061910000000  0.5387670000000  0.5552790000000 1.0
C      1  0.5450130000000  0.5422160000000  0.4697260000000 1.0
C      1  0.4451390000000  0.5429220000000  0.4737040000000 1.0
C      1  0.5063950000000  0.4736380000000  0.6027080000000 1.0
C      1  0.4114030000000  0.4724560000000  0.4539530000000 1.0
C      1  0.5822300000000  0.4719900000000  0.4457980000000 1.0
C      1  0.4955820000000  0.5279390000000  0.5997510000000 1.0
C      1  0.5880540000000  0.5284050000000  0.4558850000000 1.0
C      1  0.4142480000000  0.5267560000000  0.4431110000000 1.0
C      1  0.5772890000000  0.5060140000000  0.5903750000000 1.0
C      1  0.3853260000000  0.5074130000000  0.5208160000000 1.0
C      1  0.5391170000000  0.5104920000000  0.3906970000000 1.0
C      1  0.4246390000000  0.4929820000000  0.5889050000000 1.0
C      1  0.6142190000000  0.4899030000000  0.5207720000000 1.0
C      1  0.4603740000000  0.4943810000000  0.3878790000000 1.0
C      1  0.3958360000000  0.4945810000000  0.4972580000000 1.0
C      1  0.5543550000000  0.4970700000000  0.4111800000000 1.0
C      1  0.5514290000000  0.4934420000000  0.5940390000000 1.0
C      1  0.6040970000000  0.5033250000000  0.4973340000000 1.0
C      1  0.4442720000000  0.5069530000000  0.4084430000000 1.0
C      1  0.4502950000000  0.5058140000000  0.5915810000000 1.0
C      1  0.5556720000000  0.4194290000000  0.5690680000000 1.0
C      1  0.4136560000000  0.4214800000000  0.5160370000000 1.0
C      1  0.5312530000000  0.4195440000000  0.4175290000000 1.0
C      1  0.4429410000000  0.5789150000000  0.5667600000000 1.0
C      1  0.5870480000000  0.5808510000000  0.5141670000000 1.0
C      1  0.4680190000000  0.5809660000000  0.4172530000000 1.0
C      1  0.4595230000000  0.4704270000000  0.5240770000000 1.0
C      1  0.4983510000000  0.4663760000000  0.4406290000000 1.0
C      1  0.5389300000000  0.4709270000000  0.5249580000000 1.0
C      1  0.5505930000000  0.5340190000000  0.5311130000000 1.0
C      1  0.4978490000000  0.5294680000000  0.4538070000000 1.0
C      1  0.4589110000000  0.5299680000000  0.5230170000000 1.0
C      1  0.4736880000000  0.4153410000000  0.5666640000000 1.0
C      1  0.4575660000000  0.4169790000000  0.4467720000000 1.0
C      1  0.5685540000000  0.4160080000000  0.4915510000000 1.0
C      1  0.5248810000000  0.5834160000000  0.5633620000000 1.0
C      1  0.5415920000000  0.5843870000000  0.4448540000000 1.0
C      1  0.4291110000000  0.5850540000000  0.4894570000000 1.0
C      1  0.4716330000000  0.5885800000000  0.5113610000000 1.0
C      1  0.5023660000000  0.5917290000000  0.4701680000000 1.0
C      1  0.5229780000000  0.5947920000000  0.5169870000000 1.0
C      1  0.5270180000000  0.4086660000000  0.5128660000000 1.0
C      1  0.4967770000000  0.4056030000000  0.4716080000000 1.0
C      1  0.4759780000000  0.4118140000000  0.5188870000000 1.0
C      1  0.4751530000000  0.5859170000000  0.4803630000000 1.0
C      1  0.5274060000000  0.5879260000000  0.4884830000000 1.0
C      1  0.4955490000000  0.5840090000000  0.5279370000000 1.0
C      1  0.5236770000000  0.4124690000000  0.4820230000000 1.0
C      1  0.4735800000000  0.4163860000000  0.4898870000000 1.0
C      1  0.5045830000000  0.4144780000000  0.5313360000000 1.0
C      1  0.4434740000000  0.6110750000000  0.4468000000000 1.0
C      1  0.5733880000000  0.6098500000000  0.4769960000000 1.0
C      1  0.4805100000000  0.6080980000000  0.5727470000000 1.0
C      1  0.5566150000000  0.3905450000000  0.4479450000000 1.0
C      1  0.4272540000000  0.3922970000000  0.4805070000000 1.0
C      1  0.5178120000000  0.3893200000000  0.5755530000000 1.0
C      1  0.4474550000000  0.4434940000000  0.4446650000000 1.0
C      1  0.5731280000000  0.4424000000000  0.4820140000000 1.0
C      1  0.4792640000000  0.4408690000000  0.5784300000000 1.0
C      1  0.5521390000000  0.5579950000000  0.4456600000000 1.0
C      1  0.4217090000000  0.5595260000000  0.4787450000000 1.0
C      1  0.5216510000000  0.5569010000000  0.5731720000000 1.0
C      1  0.4917770000000  0.4659040000000  0.3711760000000 1.0
C      1  0.6161950000000  0.4603670000000  0.5552230000000 1.0
C      1  0.3934950000000  0.4637270000000  0.5734980000000 1.0
C      1  0.5102700000000  0.5400280000000  0.3717610000000 1.0
C      1  0.3830980000000  0.5366680000000  0.5554900000000 1.0
C      1  0.6074550000000  0.5344910000000  0.5715300000000 1.0
C      1  0.4501870000000  0.4060650000000  0.4730620000000 1.0
C      1  0.5510330000000  0.4014310000000  0.4728590000000 1.0
C      1  0.4987970000000  0.4012340000000  0.5591620000000 1.0
C      1  0.5490200000000  0.5989640000000  0.4693730000000 1.0
C      1  0.4481620000000  0.5991610000000  0.4714620000000 1.0
C      1  0.4984240000000  0.5943300000000  0.5566080000000 1.0
C      1  0.3737370000000  0.5512910000000  0.5323290000000 1.0
C      1  0.5347730000000  0.5547860000000  0.3763020000000 1.0
C      1  0.5919730000000  0.5506360000000  0.5898550000000 1.0
C      1  0.6245130000000  0.4456090000000  0.5317310000000 1.0
C      1  0.4681660000000  0.4497590000000  0.3754220000000 1.0
C      1  0.4088730000000  0.4491040000000  0.5931850000000 1.0
C      1  0.5976900000000  0.5001980000000  0.4435970000000 1.0
C      1  0.4978860000000  0.5015900000000  0.6157600000000 1.0
C      1  0.3986900000000  0.4988050000000  0.4439530000000 1.0
END
