TITL C-3201377-4638-1808 0.0185527268425095 125000 -250.05335444094 0 0 43 (C1) n - 1
REM
REM in /home/nfs/bkarasulu/CARBON/AIRSS/Generating-Clusters/LCBOP/Higher-Symm/SD-CG/FIRE-CG
REM
REM
REM
REM
REM
REM ./C.cell (b20cbc046b6831c77cfcea5457e17084)
REM AIRSS Version 0.9.1 bugfix July 2018 build 013d7b7c2542+ Fri, 06 Jul 2018 19:26:36 +0100
REM compiler GCC version 9.2.1 20190827 (Red Hat 9.2.1-1)
REM options -cpp -mtune=generic -march=x86-64 -g -O0 -fpre-include=/usr/include/finclude/math-vector-fortran.h
REM seed 1355081726 -639610784 -1661072652 1317199891 -257424771 -556627302 511505486 1904470623 -602245135 -1162943789 1443111005 646893782 -1339792073 2093217883 1646032674 -1723791098 1735457603 -1317933347 -1135770813 1918592011 -1671785379 -1178704964 1640463883 -1675605586 1992223247 -222760460 -707676806 -1257419054 -121216500 828599382 -836137058 -905981371 -122766531
REM
CELL 1.54180   50.00000   50.00000   50.00000   90.00000   90.00000   90.00000
LATT -1
SFAC C  
C      1  0.4597550000000  0.4981080000000  0.5373190000000 1.0
C      1  0.5230330000000  0.5824160000000  0.4672630000000 1.0
C      1  0.5415220000000  0.5114020000000  0.4713550000000 1.0
C      1  0.5483780000000  0.4714820000000  0.5643830000000 1.0
C      1  0.5207470000000  0.5173600000000  0.4524450000000 1.0
C      1  0.4965210000000  0.5735530000000  0.4705610000000 1.0
C      1  0.5163220000000  0.4642280000000  0.5258120000000 1.0
C      1  0.4929560000000  0.4746630000000  0.4563910000000 1.0
C      1  0.4537800000000  0.6049800000000  0.4611560000000 1.0
C      1  0.4318600000000  0.4969620000000  0.4362000000000 1.0
C      1  0.4877350000000  0.4488250000000  0.4507270000000 1.0
C      1  0.5709430000000  0.4193850000000  0.4577680000000 1.0
C      1  0.4821650000000  0.4974740000000  0.4698970000000 1.0
C      1  0.4929460000000  0.5465660000000  0.4789760000000 1.0
C      1  0.4428410000000  0.4720120000000  0.4782750000000 1.0
C      1  0.4685400000000  0.4343290000000  0.4633390000000 1.0
C      1  0.4592690000000  0.4942780000000  0.4866560000000 1.0
C      1  0.5329170000000  0.5003740000000  0.4966730000000 1.0
C      1  0.4490350000000  0.5165350000000  0.4293080000000 1.0
C      1  0.5232070000000  0.4726190000000  0.5529660000000 1.0
C      1  0.5489400000000  0.5758660000000  0.4668270000000 1.0
C      1  0.5720570000000  0.4710800000000  0.5752540000000 1.0
C      1  0.4277230000000  0.4780880000000  0.4551430000000 1.0
C      1  0.4916620000000  0.5242080000000  0.4586310000000 1.0
C      1  0.4989310000000  0.4821040000000  0.5656180000000 1.0
C      1  0.5013790000000  0.5385170000000  0.5048450000000 1.0
C      1  0.4966290000000  0.4924770000000  0.5911010000000 1.0
C      1  0.5658050000000  0.5550950000000  0.4681910000000 1.0
C      1  0.5322730000000  0.4726600000000  0.5037860000000 1.0
C      1  0.4550080000000  0.4466520000000  0.4851410000000 1.0
C      1  0.4747520000000  0.5902590000000  0.4659130000000 1.0
C      1  0.5200120000000  0.5030860000000  0.6314690000000 1.0
C      1  0.5640180000000  0.5283360000000  0.4701370000000 1.0
C      1  0.4776850000000  0.4785940000000  0.5464930000000 1.0
C      1  0.4546600000000  0.5054300000000  0.5119290000000 1.0
C      1  0.5593990000000  0.4365090000000  0.4736770000000 1.0
C      1  0.5471550000000  0.4539880000000  0.4893720000000 1.0
C      1  0.4690840000000  0.4457720000000  0.5098180000000 1.0
C      1  0.4967470000000  0.5029760000000  0.6170310000000 1.0
C      1  0.5185710000000  0.5191740000000  0.5124270000000 1.0
C      1  0.4872390000000  0.4599560000000  0.5257030000000 1.0
C      1  0.4736090000000  0.5130250000000  0.6276740000000 1.0
C      1  0.4721900000000  0.5285990000000  0.4363480000000 1.0
END
