TITL C-3201379-3821-700 6.67637154848997e-07 125000 -979.415153095404 0 0 158 (C1) n - 1
REM
REM in /home/nfs/bkarasulu/CARBON/AIRSS/Generating-Clusters/LCBOP/Higher-Symm/SD-CG/FIRE-CG
REM
REM
REM
REM
REM
REM ./C.cell (b20cbc046b6831c77cfcea5457e17084)
REM AIRSS Version 0.9.1 bugfix July 2018 build 013d7b7c2542+ Fri, 06 Jul 2018 19:26:36 +0100
REM compiler GCC version 9.2.1 20190827 (Red Hat 9.2.1-1)
REM options -cpp -mtune=generic -march=x86-64 -g -O0 -fpre-include=/usr/include/finclude/math-vector-fortran.h
REM seed 421022311 761052739 1384049382 992734009 -1116678044 1637973432 -1254385898 303287542 469601390 -1084115556 859118843 -1542164945 311107744 5705014 -16909541 -1385669307 -537321452 516441549 1201751195 -2051131885 1041640696 -281064527 245813178 -345835925 -840221278 -652910619 1373156379 2011117858 2032405148 1185289252 -1307500066 601246422 -1094571554
REM
CELL 1.54180   50.00000   50.00000   50.00000   90.00000   90.00000   90.00000
LATT -1
SFAC C  
C      1  0.6033970000000  0.4532530000000  0.5626200000000 1.0
C      1  0.5962170000000  0.5287290000000  0.4439910000000 1.0
C      1  0.4116460000000  0.5698890000000  0.5332240000000 1.0
C      1  0.4097040000000  0.4486750000000  0.5552000000000 1.0
C      1  0.4555020000000  0.4110220000000  0.4762100000000 1.0
C      1  0.5346310000000  0.4092590000000  0.5154700000000 1.0
C      1  0.4318990000000  0.4941860000000  0.4340840000000 1.0
C      1  0.4520870000000  0.4932120000000  0.3873510000000 1.0
C      1  0.6070150000000  0.4731770000000  0.5106550000000 1.0
C      1  0.4469970000000  0.4839990000000  0.3609100000000 1.0
C      1  0.6077470000000  0.5440000000000  0.4643050000000 1.0
C      1  0.4375150000000  0.5700380000000  0.5443160000000 1.0
C      1  0.4125050000000  0.4549400000000  0.3738990000000 1.0
C      1  0.4960200000000  0.5248680000000  0.3908260000000 1.0
C      1  0.5113910000000  0.5099500000000  0.5409320000000 1.0
C      1  0.4209060000000  0.5851780000000  0.4632220000000 1.0
C      1  0.4614740000000  0.5293620000000  0.5971040000000 1.0
C      1  0.5450450000000  0.5526440000000  0.4504500000000 1.0
C      1  0.5876800000000  0.5032010000000  0.5897790000000 1.0
C      1  0.4571540000000  0.4243160000000  0.5213840000000 1.0
C      1  0.4738180000000  0.5101880000000  0.3919350000000 1.0
C      1  0.4015910000000  0.4493090000000  0.4222440000000 1.0
C      1  0.4429040000000  0.4265000000000  0.4969660000000 1.0
C      1  0.4574990000000  0.4605900000000  0.5500050000000 1.0
C      1  0.5289580000000  0.5592950000000  0.4704630000000 1.0
C      1  0.4372700000000  0.5176540000000  0.4932780000000 1.0
C      1  0.5790240000000  0.5481500000000  0.5743570000000 1.0
C      1  0.5601220000000  0.4156050000000  0.5051780000000 1.0
C      1  0.4370780000000  0.4154850000000  0.5858230000000 1.0
C      1  0.5122870000000  0.5143360000000  0.5691300000000 1.0
C      1  0.4280860000000  0.4656830000000  0.3545100000000 1.0
C      1  0.3679540000000  0.5054530000000  0.4383590000000 1.0
C      1  0.5431750000000  0.4092500000000  0.4415700000000 1.0
C      1  0.5975530000000  0.4991930000000  0.5011150000000 1.0
C      1  0.5371060000000  0.6158310000000  0.4723740000000 1.0
C      1  0.6015930000000  0.5593420000000  0.4868760000000 1.0
C      1  0.5794760000000  0.4835830000000  0.4333310000000 1.0
C      1  0.5408680000000  0.3394720000000  0.5331720000000 1.0
C      1  0.5534870000000  0.4721970000000  0.4348010000000 1.0
C      1  0.5421890000000  0.4642550000000  0.4096410000000 1.0
C      1  0.5158060000000  0.4919900000000  0.6160740000000 1.0
C      1  0.4619220000000  0.4250420000000  0.4526200000000 1.0
C      1  0.5357590000000  0.5025750000000  0.4989160000000 1.0
C      1  0.4306460000000  0.4609960000000  0.5404770000000 1.0
C      1  0.5201040000000  0.4953640000000  0.5883660000000 1.0
C      1  0.4760860000000  0.5433400000000  0.5312460000000 1.0
C      1  0.4623240000000  0.3874380000000  0.6154060000000 1.0
C      1  0.5903350000000  0.5321710000000  0.3954220000000 1.0
C      1  0.4522970000000  0.6050730000000  0.4974830000000 1.0
C      1  0.4894650000000  0.5195780000000  0.5250250000000 1.0
C      1  0.4208850000000  0.5120310000000  0.5385890000000 1.0
C      1  0.5711970000000  0.4417920000000  0.5099140000000 1.0
C      1  0.5133370000000  0.4496510000000  0.4995410000000 1.0
C      1  0.4775850000000  0.4804150000000  0.4899390000000 1.0
C      1  0.5344430000000  0.4800030000000  0.6328000000000 1.0
C      1  0.5337510000000  0.4288830000000  0.5796900000000 1.0
C      1  0.5441820000000  0.5786220000000  0.3878250000000 1.0
C      1  0.5119970000000  0.5766240000000  0.4847230000000 1.0
C      1  0.4968490000000  0.3840390000000  0.4962930000000 1.0
C      1  0.5070090000000  0.4410300000000  0.4525650000000 1.0
C      1  0.5862310000000  0.6072180000000  0.4698030000000 1.0
C      1  0.5272230000000  0.5592570000000  0.5747680000000 1.0
C      1  0.5814320000000  0.5202850000000  0.5693390000000 1.0
C      1  0.3686810000000  0.4732580000000  0.5340450000000 1.0
C      1  0.5658820000000  0.4942400000000  0.3733620000000 1.0
C      1  0.5183190000000  0.5387790000000  0.3951370000000 1.0
C      1  0.5423870000000  0.4718460000000  0.4619260000000 1.0
C      1  0.4678020000000  0.5834000000000  0.5061180000000 1.0
C      1  0.5039800000000  0.6027210000000  0.5573210000000 1.0
C      1  0.4383950000000  0.5372590000000  0.5810780000000 1.0
C      1  0.5895750000000  0.4257540000000  0.4504250000000 1.0
C      1  0.5195980000000  0.4318520000000  0.5212480000000 1.0
C      1  0.4435710000000  0.5418320000000  0.4789810000000 1.0
C      1  0.5483780000000  0.6312010000000  0.5222040000000 1.0
C      1  0.5334530000000  0.4990200000000  0.5267060000000 1.0
C      1  0.4269470000000  0.4712600000000  0.5140770000000 1.0
C      1  0.4869460000000  0.4596890000000  0.5065940000000 1.0
C      1  0.4681570000000  0.4721050000000  0.4637320000000 1.0
C      1  0.3974070000000  0.5499510000000  0.4879410000000 1.0
C      1  0.5227130000000  0.4537950000000  0.4726820000000 1.0
C      1  0.3896500000000  0.5159290000000  0.4517400000000 1.0
C      1  0.4757900000000  0.4455410000000  0.5321450000000 1.0
C      1  0.4841590000000  0.5705910000000  0.4864730000000 1.0
C      1  0.5939660000000  0.5488140000000  0.5128000000000 1.0
C      1  0.4150630000000  0.4619760000000  0.4011400000000 1.0
C      1  0.5221090000000  0.4263200000000  0.4332920000000 1.0
C      1  0.4835800000000  0.5954460000000  0.5729270000000 1.0
C      1  0.5877710000000  0.5691570000000  0.5323540000000 1.0
C      1  0.5395150000000  0.5558140000000  0.4022660000000 1.0
C      1  0.5806380000000  0.4984490000000  0.4779910000000 1.0
C      1  0.5527060000000  0.4681830000000  0.6471500000000 1.0
C      1  0.4605410000000  0.5666750000000  0.5276800000000 1.0
C      1  0.4840700000000  0.5342160000000  0.4530660000000 1.0
C      1  0.6014960000000  0.4415440000000  0.4688890000000 1.0
C      1  0.5625420000000  0.6182090000000  0.4642530000000 1.0
C      1  0.5897920000000  0.5022880000000  0.4514100000000 1.0
C      1  0.3706170000000  0.5098020000000  0.4964570000000 1.0
C      1  0.4276830000000  0.4512390000000  0.4931620000000 1.0
C      1  0.3836730000000  0.4572460000000  0.5493140000000 1.0
C      1  0.5246260000000  0.6009760000000  0.4931250000000 1.0
C      1  0.5676430000000  0.4085920000000  0.4555780000000 1.0
C      1  0.5271200000000  0.5944980000000  0.5432370000000 1.0
C      1  0.4862500000000  0.4163030000000  0.5855370000000 1.0
C      1  0.5826570000000  0.5147560000000  0.3766230000000 1.0
C      1  0.5498780000000  0.4771130000000  0.3860390000000 1.0
C      1  0.5333290000000  0.6082540000000  0.5194360000000 1.0
C      1  0.5770060000000  0.5106540000000  0.5430410000000 1.0
C      1  0.4990560000000  0.5151060000000  0.4436030000000 1.0
C      1  0.4908680000000  0.5017100000000  0.6252700000000 1.0
C      1  0.5072760000000  0.4265760000000  0.5699220000000 1.0
C      1  0.4412270000000  0.4779380000000  0.4554970000000 1.0
C      1  0.4823780000000  0.5485760000000  0.5906140000000 1.0
C      1  0.5559660000000  0.5498050000000  0.4248580000000 1.0
C      1  0.5421290000000  0.5735200000000  0.5555540000000 1.0
C      1  0.5308100000000  0.3610330000000  0.5225370000000 1.0
C      1  0.4821300000000  0.5054900000000  0.5016330000000 1.0
C      1  0.4693840000000  0.5730710000000  0.5814290000000 1.0
C      1  0.4075420000000  0.5914200000000  0.4396060000000 1.0
C      1  0.4335530000000  0.6053050000000  0.4782890000000 1.0
C      1  0.3648630000000  0.4917470000000  0.5151960000000 1.0
C      1  0.5527430000000  0.4918140000000  0.4795770000000 1.0
C      1  0.4032860000000  0.4487200000000  0.4490380000000 1.0
C      1  0.4209800000000  0.5589100000000  0.4742330000000 1.0
C      1  0.5855090000000  0.4404750000000  0.5785080000000 1.0
C      1  0.4339070000000  0.4833640000000  0.4075590000000 1.0
C      1  0.5072190000000  0.5405690000000  0.5795570000000 1.0
C      1  0.4671420000000  0.5052090000000  0.6103110000000 1.0
C      1  0.5575740000000  0.4891370000000  0.5377740000000 1.0
C      1  0.4618850000000  0.4063790000000  0.5956100000000 1.0
C      1  0.5915700000000  0.5205360000000  0.5197330000000 1.0
C      1  0.5690570000000  0.5646190000000  0.5530730000000 1.0
C      1  0.4241670000000  0.5203810000000  0.5637830000000 1.0
C      1  0.3852050000000  0.5258700000000  0.4784560000000 1.0
C      1  0.4622120000000  0.4683170000000  0.5760830000000 1.0
C      1  0.4146430000000  0.5168600000000  0.4374970000000 1.0
C      1  0.5989660000000  0.5868870000000  0.4813600000000 1.0
C      1  0.5981560000000  0.4657890000000  0.5379390000000 1.0
C      1  0.4203020000000  0.5391080000000  0.4223280000000 1.0
C      1  0.4273530000000  0.5002340000000  0.5134910000000 1.0
C      1  0.5600960000000  0.4328150000000  0.5828170000000 1.0
C      1  0.4175070000000  0.4289790000000  0.5736290000000 1.0
C      1  0.5687450000000  0.4627510000000  0.5317130000000 1.0
C      1  0.5208480000000  0.3845620000000  0.5113040000000 1.0
C      1  0.4704450000000  0.5495700000000  0.4719830000000 1.0
C      1  0.5673560000000  0.4004070000000  0.4825860000000 1.0
C      1  0.3951830000000  0.5607970000000  0.5139730000000 1.0
C      1  0.4737880000000  0.3909010000000  0.4844790000000 1.0
C      1  0.4793300000000  0.4474190000000  0.4524110000000 1.0
C      1  0.5267720000000  0.4408110000000  0.4095870000000 1.0
C      1  0.5824460000000  0.5394060000000  0.4214130000000 1.0
C      1  0.5865580000000  0.5592920000000  0.5981830000000 1.0
C      1  0.4431950000000  0.5646360000000  0.5716440000000 1.0
C      1  0.5014760000000  0.4341240000000  0.5432920000000 1.0
C      1  0.6027050000000  0.5921980000000  0.5335650000000 1.0
C      1  0.4574640000000  0.4818890000000  0.5983410000000 1.0
C      1  0.5957950000000  0.4505720000000  0.4948240000000 1.0
C      1  0.3939400000000  0.5993220000000  0.4188240000000 1.0
C      1  0.4217930000000  0.4598430000000  0.4669270000000 1.0
END
