TITL C-3201379-3821-1229 1.51255217239509e-06 125000 -590.641122837898 0 0 98 (C1) n - 1
REM
REM in /home/nfs/bkarasulu/CARBON/AIRSS/Generating-Clusters/LCBOP/Higher-Symm/SD-CG/FIRE-CG
REM
REM
REM
REM
REM
REM ./C.cell (b20cbc046b6831c77cfcea5457e17084)
REM AIRSS Version 0.9.1 bugfix July 2018 build 013d7b7c2542+ Fri, 06 Jul 2018 19:26:36 +0100
REM compiler GCC version 9.2.1 20190827 (Red Hat 9.2.1-1)
REM options -cpp -mtune=generic -march=x86-64 -g -O0 -fpre-include=/usr/include/finclude/math-vector-fortran.h
REM seed 946915608 -1913849195 -1123979335 -1052794398 -547504164 508801953 -1996971913 21090145 1340923879 -1611168959 -479152592 193096399 -2041093999 1019503874 -434121708 703720107 -1851402612 -1144497036 -176988629 -371179399 -957803882 -1398042869 1888998595 -1726987733 786465006 1561100203 1094368195 -437678786 2101144331 -2125541438 -1596028089 -1788600860 1477048932
REM
CELL 1.54180   50.00000   50.00000   50.00000   90.00000   90.00000   90.00000
LATT -1
SFAC C  
C      1  0.5162550000000  0.5057000000000  0.4795690000000 1.0
C      1  0.4998670000000  0.5428830000000  0.5045560000000 1.0
C      1  0.5426940000000  0.5195590000000  0.5189670000000 1.0
C      1  0.4781600000000  0.5086370000000  0.5290220000000 1.0
C      1  0.5152570000000  0.4842810000000  0.5264970000000 1.0
C      1  0.4947080000000  0.4668750000000  0.5133890000000 1.0
C      1  0.4983730000000  0.4644620000000  0.4650860000000 1.0
C      1  0.4720400000000  0.4970120000000  0.4830590000000 1.0
C      1  0.5476730000000  0.5178080000000  0.5660900000000 1.0
C      1  0.4488620000000  0.4491370000000  0.5659470000000 1.0
C      1  0.5447170000000  0.4225690000000  0.5054840000000 1.0
C      1  0.4513850000000  0.4347810000000  0.4527520000000 1.0
C      1  0.5518590000000  0.4821270000000  0.4213820000000 1.0
C      1  0.4568450000000  0.5445310000000  0.4422120000000 1.0
C      1  0.5450920000000  0.5832340000000  0.4882880000000 1.0
C      1  0.4515880000000  0.5690690000000  0.5427030000000 1.0
C      1  0.5111500000000  0.4004240000000  0.4837430000000 1.0
C      1  0.4874890000000  0.4265390000000  0.4192490000000 1.0
C      1  0.5159900000000  0.5060090000000  0.4061550000000 1.0
C      1  0.4927510000000  0.5710870000000  0.4444050000000 1.0
C      1  0.5103940000000  0.6147390000000  0.5034990000000 1.0
C      1  0.4803730000000  0.5724670000000  0.5816940000000 1.0
C      1  0.5131770000000  0.4953270000000  0.5910270000000 1.0
C      1  0.4858800000000  0.4185810000000  0.5681530000000 1.0
C      1  0.4934200000000  0.5285180000000  0.4771170000000 1.0
C      1  0.5300790000000  0.5440790000000  0.5108030000000 1.0
C      1  0.4767730000000  0.5353910000000  0.5214040000000 1.0
C      1  0.4985530000000  0.4991810000000  0.5463710000000 1.0
C      1  0.4830390000000  0.4521680000000  0.5352960000000 1.0
C      1  0.5063940000000  0.4502520000000  0.4910290000000 1.0
C      1  0.4711410000000  0.4751930000000  0.4662230000000 1.0
C      1  0.5165550000000  0.4872350000000  0.4547660000000 1.0
C      1  0.4274590000000  0.5302740000000  0.5300460000000 1.0
C      1  0.5847790000000  0.5012080000000  0.5406870000000 1.0
C      1  0.4328120000000  0.4649830000000  0.5237420000000 1.0
C      1  0.5608670000000  0.4644690000000  0.4938430000000 1.0
C      1  0.4213930000000  0.4695010000000  0.4700060000000 1.0
C      1  0.5663960000000  0.5010540000000  0.4614290000000 1.0
C      1  0.4336660000000  0.5309520000000  0.4799900000000 1.0
C      1  0.5788060000000  0.5494070000000  0.4989570000000 1.0
C      1  0.4645160000000  0.5726720000000  0.4466650000000 1.0
C      1  0.5318130000000  0.5978820000000  0.5098930000000 1.0
C      1  0.4588580000000  0.5586260000000  0.5696610000000 1.0
C      1  0.5382670000000  0.4923220000000  0.5778300000000 1.0
C      1  0.4578740000000  0.4207870000000  0.5621300000000 1.0
C      1  0.5390920000000  0.4064400000000  0.4812970000000 1.0
C      1  0.4645250000000  0.4408530000000  0.4270250000000 1.0
C      1  0.5439330000000  0.5093170000000  0.4112080000000 1.0
C      1  0.5139910000000  0.4235040000000  0.4207040000000 1.0
C      1  0.5002540000000  0.4968240000000  0.4279290000000 1.0
C      1  0.5082180000000  0.5490920000000  0.4535450000000 1.0
C      1  0.4844060000000  0.6144030000000  0.4975720000000 1.0
C      1  0.5057920000000  0.5783870000000  0.5759490000000 1.0
C      1  0.4913640000000  0.4987320000000  0.5738490000000 1.0
C      1  0.5011500000000  0.4376530000000  0.5533790000000 1.0
C      1  0.4938910000000  0.4212540000000  0.4931370000000 1.0
C      1  0.5413820000000  0.4652000000000  0.5662690000000 1.0
C      1  0.4567100000000  0.4117320000000  0.5278990000000 1.0
C      1  0.5473810000000  0.4162390000000  0.4550450000000 1.0
C      1  0.4621070000000  0.4689070000000  0.4180220000000 1.0
C      1  0.5480940000000  0.5342020000000  0.4269620000000 1.0
C      1  0.4552470000000  0.5869660000000  0.4705460000000 1.0
C      1  0.5339820000000  0.5867950000000  0.5371570000000 1.0
C      1  0.4544650000000  0.5299810000000  0.5779000000000 1.0
C      1  0.4146900000000  0.4844830000000  0.5154170000000 1.0
C      1  0.5840530000000  0.4798720000000  0.4983050000000 1.0
C      1  0.4105890000000  0.4883240000000  0.4875230000000 1.0
C      1  0.5854210000000  0.5026770000000  0.4814450000000 1.0
C      1  0.4120260000000  0.5152090000000  0.4793800000000 1.0
C      1  0.5927830000000  0.5282590000000  0.4902570000000 1.0
C      1  0.4129900000000  0.5078700000000  0.5309250000000 1.0
C      1  0.5948360000000  0.4828300000000  0.5239260000000 1.0
C      1  0.4632610000000  0.5014980000000  0.5800110000000 1.0
C      1  0.5299370000000  0.4414790000000  0.5530400000000 1.0
C      1  0.4660180000000  0.4151430000000  0.4994770000000 1.0
C      1  0.5397350000000  0.4302090000000  0.4306840000000 1.0
C      1  0.4719260000000  0.4959270000000  0.4226140000000 1.0
C      1  0.5359920000000  0.5521710000000  0.4467550000000 1.0
C      1  0.4615050000000  0.5977820000000  0.4969170000000 1.0
C      1  0.5283680000000  0.5706190000000  0.5607700000000 1.0
C      1  0.5462210000000  0.4863710000000  0.4492060000000 1.0
C      1  0.4584380000000  0.5355140000000  0.4687670000000 1.0
C      1  0.5526400000000  0.5592080000000  0.5012750000000 1.0
C      1  0.4509180000000  0.5453040000000  0.5271640000000 1.0
C      1  0.5600180000000  0.5142460000000  0.5408640000000 1.0
C      1  0.4548420000000  0.4581330000000  0.5391290000000 1.0
C      1  0.5376270000000  0.4489980000000  0.4953750000000 1.0
C      1  0.4469360000000  0.4610190000000  0.4631150000000 1.0
C      1  0.5460480000000  0.5763470000000  0.4600330000000 1.0
C      1  0.4519920000000  0.5905290000000  0.5234510000000 1.0
C      1  0.5397340000000  0.5453710000000  0.5693640000000 1.0
C      1  0.4497940000000  0.4747550000000  0.5815250000000 1.0
C      1  0.5438850000000  0.4241200000000  0.5341540000000 1.0
C      1  0.4513390000000  0.4155990000000  0.4742360000000 1.0
C      1  0.5519220000000  0.4534830000000  0.4180720000000 1.0
C      1  0.4590000000000  0.5221450000000  0.4239800000000 1.0
C      1  0.4743130000000  0.4895290000000  0.5086080000000 1.0
C      1  0.5281770000000  0.4994400000000  0.5061790000000 1.0
END
