TITL C-3201375-1262-1140 6.49972803019431 125000 -980.168355017354 0 0 165 (C1) n - 1
REM
REM in /home/nfs/bkarasulu/CARBON/AIRSS/Generating-Clusters/LCBOP/Higher-Symm/SD-CG/FIRE-CG
REM
REM
REM
REM
REM
REM ./C.cell (b20cbc046b6831c77cfcea5457e17084)
REM AIRSS Version 0.9.1 bugfix July 2018 build 013d7b7c2542+ Fri, 06 Jul 2018 19:26:36 +0100
REM compiler GCC version 9.2.1 20190827 (Red Hat 9.2.1-1)
REM options -cpp -mtune=generic -march=x86-64 -g -O0 -fpre-include=/usr/include/finclude/math-vector-fortran.h
REM seed 1984013363 -856303280 327807949 -49145407 994892934 747760379 -79928881 316255711 1358220839 171620988 2108875344 1630243214 1458786586 -867577834 -1826667342 2101782872 -1567932057 158346595 -1238534310 543137431 -855975327 1620545858 1851629079 -30105418 1228051278 -1810506362 -1818663547 -1099809947 461066565 -575188115 -327798512 1343650637 -594229300
REM
CELL 1.54180   50.00000   50.00000   50.00000   90.00000   90.00000   90.00000
LATT -1
SFAC C  
C      1  0.4526550000000  0.5376550000000  0.5665420000000 1.0
C      1  0.5451150000000  0.5384630000000  0.4257620000000 1.0
C      1  0.4524660000000  0.4610140000000  0.5711460000000 1.0
C      1  0.5736980000000  0.4709140000000  0.4308410000000 1.0
C      1  0.5581970000000  0.5242400000000  0.5629860000000 1.0
C      1  0.4449100000000  0.5273550000000  0.4270150000000 1.0
C      1  0.5562360000000  0.4733090000000  0.5630680000000 1.0
C      1  0.4477120000000  0.4747350000000  0.4274810000000 1.0
C      1  0.5647300000000  0.5410650000000  0.4057700000000 1.0
C      1  0.4450430000000  0.5315480000000  0.5955620000000 1.0
C      1  0.5863070000000  0.4787260000000  0.4071350000000 1.0
C      1  0.4300090000000  0.4632180000000  0.5886720000000 1.0
C      1  0.4740090000000  0.5766420000000  0.5936690000000 1.0
C      1  0.5372600000000  0.5828810000000  0.4050990000000 1.0
C      1  0.4690710000000  0.4261770000000  0.6006470000000 1.0
C      1  0.5329960000000  0.4335150000000  0.4091610000000 1.0
C      1  0.5025830000000  0.4529900000000  0.5107830000000 1.0
C      1  0.4912240000000  0.4556880000000  0.4855530000000 1.0
C      1  0.5052740000000  0.5399330000000  0.5094450000000 1.0
C      1  0.4971940000000  0.5436240000000  0.4831520000000 1.0
C      1  0.3827160000000  0.4843120000000  0.4738830000000 1.0
C      1  0.6121470000000  0.4877900000000  0.5316600000000 1.0
C      1  0.3852030000000  0.5116870000000  0.4711790000000 1.0
C      1  0.6119620000000  0.5155520000000  0.5333390000000 1.0
C      1  0.4014300000000  0.4357100000000  0.4793590000000 1.0
C      1  0.5919670000000  0.4385880000000  0.5307200000000 1.0
C      1  0.4074860000000  0.5605300000000  0.4709500000000 1.0
C      1  0.5891900000000  0.5635360000000  0.5360150000000 1.0
C      1  0.6109990000000  0.4594260000000  0.5232970000000 1.0
C      1  0.3828860000000  0.4571790000000  0.4848570000000 1.0
C      1  0.6103220000000  0.5447530000000  0.5288950000000 1.0
C      1  0.3887390000000  0.5396270000000  0.4793570000000 1.0
C      1  0.5499770000000  0.4103040000000  0.5376200000000 1.0
C      1  0.4422280000000  0.4070050000000  0.4773010000000 1.0
C      1  0.5450710000000  0.5875060000000  0.5408540000000 1.0
C      1  0.4500400000000  0.5880560000000  0.4613310000000 1.0
C      1  0.6261620000000  0.5751590000000  0.4901550000000 1.0
C      1  0.3855360000000  0.5552970000000  0.5279120000000 1.0
C      1  0.6229650000000  0.4379360000000  0.4775020000000 1.0
C      1  0.3702330000000  0.4372980000000  0.5310460000000 1.0
C      1  0.4489990000000  0.4589720000000  0.5244130000000 1.0
C      1  0.5391880000000  0.4453310000000  0.4721630000000 1.0
C      1  0.4608360000000  0.5371610000000  0.5204730000000 1.0
C      1  0.5444550000000  0.5485050000000  0.4709560000000 1.0
C      1  0.6029650000000  0.5180750000000  0.4787480000000 1.0
C      1  0.3813390000000  0.4904220000000  0.5549810000000 1.0
C      1  0.5965190000000  0.4927610000000  0.4828750000000 1.0
C      1  0.3969280000000  0.4856380000000  0.5346200000000 1.0
C      1  0.4143160000000  0.4886080000000  0.5129460000000 1.0
C      1  0.5807730000000  0.4708570000000  0.4773610000000 1.0
C      1  0.4213150000000  0.5146110000000  0.5059960000000 1.0
C      1  0.5889960000000  0.5400870000000  0.4837540000000 1.0
C      1  0.5107760000000  0.4791380000000  0.3876050000000 1.0
C      1  0.4985450000000  0.4711790000000  0.6133220000000 1.0
C      1  0.5087980000000  0.5387760000000  0.3861570000000 1.0
C      1  0.4996030000000  0.5307530000000  0.6107940000000 1.0
C      1  0.5041050000000  0.5806900000000  0.4481250000000 1.0
C      1  0.4917820000000  0.5751700000000  0.5419420000000 1.0
C      1  0.4946090000000  0.4082340000000  0.4689100000000 1.0
C      1  0.4880850000000  0.4211880000000  0.5456910000000 1.0
C      1  0.4671840000000  0.4191210000000  0.4717230000000 1.0
C      1  0.5241560000000  0.4235350000000  0.5385320000000 1.0
C      1  0.4759770000000  0.5753510000000  0.4566250000000 1.0
C      1  0.5212400000000  0.5714190000000  0.5394120000000 1.0
C      1  0.4814380000000  0.6248510000000  0.5220570000000 1.0
C      1  0.5119270000000  0.6343950000000  0.4455590000000 1.0
C      1  0.4740720000000  0.3698860000000  0.5385870000000 1.0
C      1  0.4986480000000  0.3545590000000  0.4600620000000 1.0
C      1  0.4915160000000  0.4674490000000  0.5317490000000 1.0
C      1  0.5042940000000  0.4751820000000  0.4688320000000 1.0
C      1  0.5000320000000  0.5120740000000  0.5170320000000 1.0
C      1  0.5084200000000  0.5210590000000  0.4688460000000 1.0
C      1  0.4856050000000  0.5229110000000  0.3952490000000 1.0
C      1  0.5208040000000  0.5149050000000  0.5987750000000 1.0
C      1  0.4863050000000  0.4929330000000  0.3950960000000 1.0
C      1  0.5205530000000  0.4851460000000  0.6000210000000 1.0
C      1  0.6269610000000  0.4509270000000  0.5009920000000 1.0
C      1  0.3675600000000  0.4510950000000  0.5081080000000 1.0
C      1  0.6280580000000  0.5570740000000  0.5100810000000 1.0
C      1  0.3765960000000  0.5462440000000  0.5042960000000 1.0
C      1  0.5630210000000  0.5451550000000  0.4921770000000 1.0
C      1  0.4419440000000  0.5320700000000  0.4999580000000 1.0
C      1  0.5586170000000  0.4589680000000  0.4900940000000 1.0
C      1  0.4315900000000  0.4678910000000  0.5033540000000 1.0
C      1  0.4444700000000  0.4667960000000  0.4766620000000 1.0
C      1  0.5491590000000  0.4637110000000  0.5162210000000 1.0
C      1  0.4516860000000  0.5334080000000  0.4737300000000 1.0
C      1  0.5517900000000  0.5354920000000  0.5169380000000 1.0
C      1  0.5422900000000  0.5264560000000  0.5845030000000 1.0
C      1  0.4621930000000  0.5335000000000  0.4072620000000 1.0
C      1  0.5415920000000  0.4723510000000  0.5857570000000 1.0
C      1  0.4639790000000  0.4787600000000  0.4061100000000 1.0
C      1  0.5768960000000  0.4078250000000  0.4945730000000 1.0
C      1  0.4173010000000  0.4102370000000  0.5191990000000 1.0
C      1  0.5731640000000  0.5942170000000  0.4997440000000 1.0
C      1  0.4273070000000  0.5900200000000  0.5061310000000 1.0
C      1  0.5272760000000  0.5493780000000  0.5229780000000 1.0
C      1  0.4737160000000  0.5512070000000  0.4710410000000 1.0
C      1  0.5273630000000  0.4454240000000  0.5211370000000 1.0
C      1  0.4664240000000  0.4471840000000  0.4761000000000 1.0
C      1  0.4241560000000  0.5428930000000  0.5558190000000 1.0
C      1  0.6266920000000  0.6045530000000  0.4518810000000 1.0
C      1  0.3720830000000  0.4195420000000  0.5758780000000 1.0
C      1  0.5873740000000  0.4581710000000  0.4522630000000 1.0
C      1  0.4648660000000  0.5106750000000  0.5586500000000 1.0
C      1  0.5455350000000  0.5119700000000  0.4399010000000 1.0
C      1  0.4660060000000  0.4861600000000  0.5719460000000 1.0
C      1  0.5483520000000  0.4832910000000  0.4386020000000 1.0
C      1  0.4901610000000  0.5566110000000  0.6027090000000 1.0
C      1  0.5192160000000  0.5648780000000  0.3941600000000 1.0
C      1  0.4871200000000  0.4454710000000  0.6075000000000 1.0
C      1  0.5197180000000  0.4540420000000  0.3976000000000 1.0
C      1  0.4556890000000  0.5901580000000  0.5785630000000 1.0
C      1  0.5553800000000  0.5927900000000  0.4236840000000 1.0
C      1  0.4483920000000  0.4138160000000  0.5876590000000 1.0
C      1  0.5480090000000  0.4170390000000  0.4245200000000 1.0
C      1  0.3840990000000  0.4235950000000  0.5516050000000 1.0
C      1  0.6005300000000  0.4338040000000  0.4604120000000 1.0
C      1  0.4094630000000  0.5616550000000  0.5409630000000 1.0
C      1  0.6124990000000  0.5914410000000  0.4713280000000 1.0
C      1  0.5277170000000  0.4954650000000  0.3716610000000 1.0
C      1  0.4846920000000  0.4885120000000  0.6312950000000 1.0
C      1  0.5261580000000  0.5225190000000  0.3702010000000 1.0
C      1  0.4852800000000  0.5156480000000  0.6302760000000 1.0
C      1  0.4245550000000  0.5853240000000  0.5343920000000 1.0
C      1  0.5836960000000  0.5946390000000  0.4727710000000 1.0
C      1  0.4107780000000  0.4137800000000  0.5467310000000 1.0
C      1  0.5815300000000  0.4126670000000  0.4663440000000 1.0
C      1  0.4967390000000  0.3808150000000  0.4630210000000 1.0
C      1  0.4806920000000  0.3947590000000  0.5448840000000 1.0
C      1  0.5099310000000  0.6079700000000  0.4452710000000 1.0
C      1  0.4839490000000  0.6013050000000  0.5339710000000 1.0
C      1  0.4714640000000  0.5096520000000  0.5285290000000 1.0
C      1  0.5371750000000  0.5207860000000  0.4656440000000 1.0
C      1  0.4678920000000  0.4807000000000  0.5247670000000 1.0
C      1  0.5305360000000  0.4674940000000  0.4557440000000 1.0
C      1  0.5827890000000  0.5262840000000  0.3926610000000 1.0
C      1  0.4309740000000  0.5110250000000  0.6063830000000 1.0
C      1  0.5909570000000  0.5007790000000  0.3927140000000 1.0
C      1  0.4235290000000  0.4852560000000  0.6032330000000 1.0
C      1  0.5570640000000  0.4838130000000  0.5359210000000 1.0
C      1  0.4425360000000  0.4857400000000  0.4538110000000 1.0
C      1  0.5587090000000  0.5140210000000  0.5358690000000 1.0
C      1  0.4436710000000  0.5153890000000  0.4530510000000 1.0
C      1  0.5326350000000  0.5598680000000  0.4460530000000 1.0
C      1  0.4691470000000  0.5545480000000  0.5441020000000 1.0
C      1  0.5201150000000  0.4228990000000  0.4721040000000 1.0
C      1  0.4593750000000  0.4432260000000  0.5479730000000 1.0
C      1  0.4271670000000  0.5811300000000  0.4784640000000 1.0
C      1  0.5702940000000  0.5838330000000  0.5267580000000 1.0
C      1  0.4189680000000  0.4160370000000  0.4912580000000 1.0
C      1  0.5741050000000  0.4170210000000  0.5221050000000 1.0
C      1  0.4941830000000  0.5132820000000  0.4445120000000 1.0
C      1  0.5154810000000  0.5042350000000  0.5409730000000 1.0
C      1  0.4900100000000  0.4863500000000  0.4454980000000 1.0
C      1  0.5083440000000  0.4798910000000  0.5501040000000 1.0
C      1  0.5634710000000  0.4075210000000  0.4446950000000 1.0
C      1  0.4290830000000  0.4098500000000  0.5687090000000 1.0
C      1  0.5687720000000  0.5960260000000  0.4476300000000 1.0
C      1  0.4396470000000  0.5952180000000  0.5569620000000 1.0
C      1  0.4779190000000  0.6471020000000  0.5089430000000 1.0
C      1  0.5146360000000  0.6603170000000  0.4460170000000 1.0
C      1  0.4667680000000  0.3462720000000  0.5303060000000 1.0
C      1  0.5003390000000  0.3286350000000  0.4579060000000 1.0
C      1  0.5050560000000  0.4985920000000  0.4890420000000 1.0
END
