TITL C-3201376-6384-625 574.688492161002 125000 -812.078895961872 0 0 136 (C1) n - 1
REM
REM in /home/nfs/bkarasulu/CARBON/AIRSS/Generating-Clusters/LCBOP/Higher-Symm/SD-CG/FIRE-CG
REM
REM
REM
REM
REM
REM ./C.cell (b20cbc046b6831c77cfcea5457e17084)
REM AIRSS Version 0.9.1 bugfix July 2018 build 013d7b7c2542+ Fri, 06 Jul 2018 19:26:36 +0100
REM compiler GCC version 9.2.1 20190827 (Red Hat 9.2.1-1)
REM options -cpp -mtune=generic -march=x86-64 -g -O0 -fpre-include=/usr/include/finclude/math-vector-fortran.h
REM seed -1080157491 1562657885 2040488324 -1199702055 1345204598 -1318076872 -1872223824 434396895 -547479542 129552243 1609473639 230110018 -907250481 -1057689322 1512268893 684394246 735516827 -898746506 1767965882 2112176219 -1296572099 -1270561302 -222908692 1281310519 -1949031201 1036330408 1074770161 -911468001 -1743541052 -959142505 -1191041659 -1587290326 1322146036
REM
CELL 1.54180   50.00000   50.00000   50.00000   90.00000   90.00000   90.00000
LATT -1
SFAC C  
C      1  0.5172960000000  0.5290930000000  0.4653550000000 1.0
C      1  0.4835770000000  0.4650610000000  0.4678730000000 1.0
C      1  0.4496960000000  0.4638550000000  0.5616780000000 1.0
C      1  0.5481250000000  0.5370930000000  0.5586010000000 1.0
C      1  0.4803440000000  0.5476460000000  0.5458090000000 1.0
C      1  0.5105070000000  0.4565190000000  0.5323190000000 1.0
C      1  0.5431120000000  0.5860730000000  0.5161240000000 1.0
C      1  0.4393810000000  0.4155790000000  0.5316530000000 1.0
C      1  0.5340440000000  0.5830060000000  0.5455560000000 1.0
C      1  0.4604000000000  0.4173410000000  0.5505090000000 1.0
C      1  0.5619740000000  0.5125110000000  0.5681300000000 1.0
C      1  0.4355140000000  0.4881250000000  0.5713450000000 1.0
C      1  0.3960470000000  0.5103280000000  0.5503740000000 1.0
C      1  0.5994790000000  0.4889850000000  0.5456360000000 1.0
C      1  0.5101250000000  0.5604110000000  0.5835460000000 1.0
C      1  0.4880990000000  0.4408040000000  0.5826980000000 1.0
C      1  0.6021550000000  0.4402820000000  0.4530910000000 1.0
C      1  0.4045800000000  0.5611170000000  0.4542080000000 1.0
C      1  0.5434300000000  0.6020630000000  0.4314820000000 1.0
C      1  0.4585970000000  0.4017950000000  0.4272830000000 1.0
C      1  0.5003700000000  0.5136980000000  0.6032100000000 1.0
C      1  0.5000270000000  0.4869950000000  0.6027550000000 1.0
C      1  0.4807940000000  0.5792140000000  0.4555720000000 1.0
C      1  0.5265690000000  0.4184730000000  0.4463260000000 1.0
C      1  0.4665430000000  0.5343820000000  0.4314540000000 1.0
C      1  0.5381590000000  0.4648260000000  0.4274680000000 1.0
C      1  0.6047090000000  0.5693640000000  0.4765980000000 1.0
C      1  0.3917030000000  0.4387300000000  0.4803410000000 1.0
C      1  0.4334060000000  0.5698580000000  0.4499410000000 1.0
C      1  0.5741290000000  0.4307830000000  0.4450720000000 1.0
C      1  0.3798740000000  0.4465980000000  0.5041500000000 1.0
C      1  0.6144010000000  0.5637560000000  0.5018700000000 1.0
C      1  0.5677600000000  0.5146390000000  0.4964190000000 1.0
C      1  0.4315660000000  0.4847590000000  0.5003270000000 1.0
C      1  0.4994310000000  0.4095600000000  0.4522320000000 1.0
C      1  0.5081590000000  0.5876640000000  0.4620910000000 1.0
C      1  0.5361880000000  0.4672270000000  0.5368310000000 1.0
C      1  0.4550670000000  0.5387110000000  0.5396170000000 1.0
C      1  0.4855050000000  0.5503350000000  0.4909710000000 1.0
C      1  0.5201710000000  0.4420900000000  0.4858700000000 1.0
C      1  0.4668600000000  0.5171590000000  0.4571080000000 1.0
C      1  0.5354820000000  0.4795280000000  0.4545570000000 1.0
C      1  0.4277570000000  0.5469700000000  0.5384890000000 1.0
C      1  0.5639040000000  0.4568060000000  0.5353590000000 1.0
C      1  0.4886150000000  0.4961340000000  0.4055750000000 1.0
C      1  0.5163130000000  0.5062170000000  0.4052260000000 1.0
C      1  0.5928220000000  0.5615740000000  0.5217980000000 1.0
C      1  0.3982350000000  0.4443620000000  0.5265860000000 1.0
C      1  0.4869930000000  0.4710140000000  0.5368540000000 1.0
C      1  0.5045730000000  0.5393960000000  0.5345940000000 1.0
C      1  0.5506530000000  0.4853130000000  0.5782400000000 1.0
C      1  0.4475220000000  0.5154110000000  0.5819500000000 1.0
C      1  0.5692390000000  0.5764070000000  0.5066150000000 1.0
C      1  0.4206970000000  0.4282850000000  0.5147400000000 1.0
C      1  0.4852500000000  0.4990060000000  0.5379190000000 1.0
C      1  0.5112740000000  0.5118280000000  0.5372820000000 1.0
C      1  0.4850840000000  0.4674320000000  0.4074160000000 1.0
C      1  0.5198040000000  0.5350990000000  0.4092450000000 1.0
C      1  0.5037810000000  0.4210480000000  0.5674450000000 1.0
C      1  0.4939180000000  0.5827150000000  0.5731390000000 1.0
C      1  0.4196870000000  0.4313750000000  0.4842300000000 1.0
C      1  0.5757940000000  0.5716760000000  0.4765430000000 1.0
C      1  0.3916560000000  0.5352820000000  0.5048040000000 1.0
C      1  0.6083360000000  0.4559740000000  0.5090660000000 1.0
C      1  0.4928640000000  0.5388920000000  0.5934160000000 1.0
C      1  0.5060550000000  0.4620850000000  0.5913690000000 1.0
C      1  0.5125030000000  0.4876290000000  0.4942450000000 1.0
C      1  0.4925710000000  0.5051260000000  0.4951320000000 1.0
C      1  0.4311020000000  0.5423010000000  0.4848090000000 1.0
C      1  0.5717890000000  0.4538430000000  0.4832220000000 1.0
C      1  0.5465730000000  0.4361730000000  0.4303550000000 1.0
C      1  0.4610090000000  0.5637620000000  0.4364080000000 1.0
C      1  0.4188860000000  0.4967830000000  0.4232960000000 1.0
C      1  0.5860650000000  0.5006230000000  0.4215120000000 1.0
C      1  0.4836810000000  0.4421920000000  0.4174260000000 1.0
C      1  0.5211000000000  0.5596990000000  0.4214060000000 1.0
C      1  0.5250220000000  0.5829800000000  0.4387520000000 1.0
C      1  0.4801480000000  0.4178970000000  0.4326450000000 1.0
C      1  0.4091360000000  0.5253390000000  0.5279610000000 1.0
C      1  0.5920010000000  0.4650550000000  0.5315470000000 1.0
C      1  0.4877490000000  0.4079790000000  0.5448690000000 1.0
C      1  0.5071590000000  0.5945330000000  0.5491970000000 1.0
C      1  0.5360810000000  0.5464720000000  0.4792810000000 1.0
C      1  0.4639940000000  0.4510820000000  0.4851430000000 1.0
C      1  0.4527230000000  0.5904780000000  0.5518170000000 1.0
C      1  0.5440360000000  0.4117730000000  0.5474530000000 1.0
C      1  0.5948620000000  0.5398400000000  0.5411940000000 1.0
C      1  0.3993320000000  0.4618200000000  0.5487840000000 1.0
C      1  0.5579580000000  0.5546620000000  0.4615960000000 1.0
C      1  0.4411120000000  0.4425240000000  0.4684900000000 1.0
C      1  0.4426220000000  0.5675080000000  0.4785830000000 1.0
C      1  0.5630870000000  0.4286130000000  0.4729750000000 1.0
C      1  0.5341380000000  0.4584620000000  0.5804860000000 1.0
C      1  0.4640220000000  0.5423710000000  0.5861600000000 1.0
C      1  0.4253510000000  0.4956680000000  0.4741860000000 1.0
C      1  0.5766790000000  0.5011420000000  0.4728570000000 1.0
C      1  0.5022550000000  0.3978160000000  0.5199040000000 1.0
C      1  0.4936010000000  0.5999600000000  0.5233790000000 1.0
C      1  0.5503570000000  0.5371730000000  0.5018220000000 1.0
C      1  0.4509800000000  0.4643910000000  0.5071390000000 1.0
C      1  0.4022250000000  0.5461670000000  0.4802830000000 1.0
C      1  0.6011430000000  0.4511900000000  0.4815920000000 1.0
C      1  0.5815760000000  0.5129760000000  0.4466600000000 1.0
C      1  0.4208660000000  0.4834030000000  0.4482700000000 1.0
C      1  0.5323990000000  0.4295990000000  0.5671270000000 1.0
C      1  0.4651580000000  0.5767160000000  0.5738630000000 1.0
C      1  0.4384670000000  0.5051390000000  0.4061880000000 1.0
C      1  0.5665570000000  0.4946150000000  0.4032160000000 1.0
C      1  0.4582700000000  0.5111070000000  0.5319060000000 1.0
C      1  0.5357580000000  0.4955050000000  0.5324330000000 1.0
C      1  0.4652950000000  0.5998730000000  0.5288840000000 1.0
C      1  0.5306240000000  0.3974590000000  0.5279180000000 1.0
C      1  0.5617150000000  0.4768070000000  0.4707740000000 1.0
C      1  0.4409320000000  0.5194920000000  0.4719310000000 1.0
C      1  0.4889930000000  0.5255370000000  0.4747980000000 1.0
C      1  0.5133310000000  0.4677050000000  0.4726530000000 1.0
C      1  0.4698400000000  0.5708660000000  0.4810270000000 1.0
C      1  0.5362400000000  0.4235440000000  0.4731480000000 1.0
C      1  0.4671320000000  0.4813840000000  0.4512570000000 1.0
C      1  0.5345220000000  0.5120090000000  0.4497690000000 1.0
C      1  0.4421120000000  0.4640500000000  0.4480940000000 1.0
C      1  0.5589000000000  0.5306200000000  0.4447830000000 1.0
C      1  0.5488510000000  0.5408250000000  0.5296800000000 1.0
C      1  0.4598040000000  0.4633290000000  0.5338720000000 1.0
C      1  0.4953640000000  0.3992160000000  0.4857700000000 1.0
C      1  0.5156230000000  0.5943200000000  0.4969150000000 1.0
C      1  0.5350410000000  0.5610460000000  0.5674910000000 1.0
C      1  0.4611250000000  0.4391970000000  0.5716070000000 1.0
C      1  0.5051200000000  0.5526620000000  0.5103660000000 1.0
C      1  0.5099210000000  0.4392620000000  0.5110650000000 1.0
C      1  0.4654160000000  0.5143550000000  0.4099450000000 1.0
C      1  0.5392550000000  0.4865820000000  0.4074230000000 1.0
C      1  0.5886380000000  0.5140520000000  0.5542140000000 1.0
C      1  0.4076940000000  0.4865430000000  0.5609610000000 1.0
C      1  0.4318620000000  0.5046090000000  0.5201290000000 1.0
C      1  0.5603640000000  0.4982380000000  0.5180080000000 1.0
END
