TITL C-3201373-1215-2059 13184.3825275429 125000 -615.722558986482 0 0 108 (C1) n - 1
REM
REM in /home/nfs/bkarasulu/CARBON/AIRSS/Generating-Clusters/LCBOP/Higher-Symm/SD-CG/FIRE-CG
REM
REM
REM
REM
REM
REM ./C.cell (b20cbc046b6831c77cfcea5457e17084)
REM AIRSS Version 0.9.1 bugfix July 2018 build 013d7b7c2542+ Fri, 06 Jul 2018 19:26:36 +0100
REM compiler GCC version 9.2.1 20190827 (Red Hat 9.2.1-1)
REM options -cpp -mtune=generic -march=x86-64 -g -O0 -fpre-include=/usr/include/finclude/math-vector-fortran.h
REM seed 1395240625 -384344845 -930719469 179846611 -2060279684 171878690 -524051516 -2123740331 1400756221 -1795766849 1755783336 -110981921 -1450284278 764541450 -31520402 1946970206 -1515361587 1230418645 -1496215898 2117316605 965606227 1412464909 -1515116690 226049413 1980428009 1189097207 -961437964 567136075 439248635 167439732 -1351116537 -1238715702 601917331
REM
CELL 1.54180   50.00000   50.00000   50.00000   90.00000   90.00000   90.00000
LATT -1
SFAC C  
C      1  0.5108470000000  0.4089820000000  0.5193110000000 1.0
C      1  0.5099700000000  0.4300950000000  0.4425290000000 1.0
C      1  0.5099830000000  0.5014870000000  0.4087720000000 1.0
C      1  0.5104700000000  0.5744650000000  0.4433100000000 1.0
C      1  0.5104130000000  0.5904810000000  0.5227940000000 1.0
C      1  0.5106450000000  0.5379800000000  0.5826860000000 1.0
C      1  0.5109100000000  0.4581340000000  0.5801490000000 1.0
C      1  0.4730300000000  0.5363880000000  0.5204410000000 1.0
C      1  0.4643790000000  0.5117250000000  0.5292390000000 1.0
C      1  0.4700150000000  0.4574550000000  0.5224050000000 1.0
C      1  0.4681010000000  0.4490130000000  0.4972400000000 1.0
C      1  0.4685980000000  0.5028660000000  0.4566650000000 1.0
C      1  0.4760290000000  0.5269490000000  0.4685850000000 1.0
C      1  0.4769390000000  0.5411090000000  0.4927570000000 1.0
C      1  0.5668890000000  0.4484950000000  0.4717960000000 1.0
C      1  0.5675940000000  0.4897760000000  0.4413810000000 1.0
C      1  0.5693530000000  0.5399840000000  0.4542730000000 1.0
C      1  0.5695950000000  0.5604450000000  0.5023180000000 1.0
C      1  0.5682900000000  0.5351810000000  0.5472990000000 1.0
C      1  0.5668130000000  0.4845590000000  0.5556930000000 1.0
C      1  0.5673210000000  0.4460150000000  0.5226820000000 1.0
C      1  0.5318270000000  0.5764660000000  0.5439690000000 1.0
C      1  0.5304710000000  0.5128490000000  0.5826450000000 1.0
C      1  0.5319590000000  0.4403520000000  0.5641530000000 1.0
C      1  0.5305050000000  0.4144280000000  0.4940960000000 1.0
C      1  0.5298220000000  0.4517860000000  0.4301610000000 1.0
C      1  0.5305980000000  0.5251830000000  0.4165050000000 1.0
C      1  0.5317660000000  0.5825070000000  0.4674570000000 1.0
C      1  0.5325000000000  0.4720260000000  0.5164940000000 1.0
C      1  0.5335830000000  0.4712350000000  0.4893230000000 1.0
C      1  0.5360500000000  0.4915690000000  0.4715900000000 1.0
C      1  0.5394170000000  0.5179010000000  0.4769580000000 1.0
C      1  0.5385650000000  0.5299280000000  0.5012830000000 1.0
C      1  0.5342060000000  0.5190970000000  0.5257540000000 1.0
C      1  0.5290280000000  0.4935480000000  0.5326560000000 1.0
C      1  0.4236760000000  0.4877340000000  0.5354750000000 1.0
C      1  0.4233360000000  0.4638820000000  0.5149850000000 1.0
C      1  0.4250220000000  0.4667370000000  0.4838460000000 1.0
C      1  0.4261530000000  0.4926390000000  0.4676600000000 1.0
C      1  0.4247180000000  0.5226040000000  0.4757570000000 1.0
C      1  0.4241300000000  0.5344680000000  0.5034950000000 1.0
C      1  0.4218390000000  0.5195330000000  0.5307360000000 1.0
C      1  0.5063940000000  0.4920460000000  0.5490870000000 1.0
C      1  0.5162200000000  0.4519840000000  0.5255870000000 1.0
C      1  0.5147560000000  0.4531630000000  0.4797110000000 1.0
C      1  0.5172570000000  0.4879270000000  0.4512940000000 1.0
C      1  0.5249110000000  0.5331730000000  0.4587730000000 1.0
C      1  0.5240880000000  0.5537490000000  0.4991350000000 1.0
C      1  0.5175170000000  0.5357000000000  0.5399270000000 1.0
C      1  0.4909790000000  0.4869780000000  0.4509670000000 1.0
C      1  0.4990690000000  0.5338940000000  0.4536560000000 1.0
C      1  0.4989970000000  0.5588200000000  0.4921600000000 1.0
C      1  0.4936110000000  0.5457960000000  0.5363480000000 1.0
C      1  0.4812030000000  0.4997660000000  0.5475620000000 1.0
C      1  0.4920910000000  0.4526820000000  0.5358090000000 1.0
C      1  0.4890930000000  0.4483220000000  0.4811220000000 1.0
C      1  0.4585300000000  0.5817750000000  0.5017160000000 1.0
C      1  0.4586850000000  0.5497220000000  0.5653680000000 1.0
C      1  0.4606010000000  0.4789680000000  0.5795080000000 1.0
C      1  0.4570990000000  0.4190990000000  0.5376320000000 1.0
C      1  0.4585070000000  0.4236890000000  0.4627370000000 1.0
C      1  0.4589350000000  0.4814170000000  0.4195600000000 1.0
C      1  0.4587840000000  0.5516200000000  0.4369230000000 1.0
C      1  0.5225210000000  0.4153950000000  0.5478040000000 1.0
C      1  0.5207270000000  0.4127610000000  0.4652800000000 1.0
C      1  0.5202450000000  0.4729040000000  0.4107680000000 1.0
C      1  0.5210430000000  0.5544890000000  0.4211290000000 1.0
C      1  0.5216360000000  0.5967260000000  0.4937480000000 1.0
C      1  0.5218990000000  0.5649070000000  0.5715460000000 1.0
C      1  0.5208430000000  0.4851450000000  0.5895570000000 1.0
C      1  0.4355390000000  0.4424120000000  0.4690810000000 1.0
C      1  0.4453750000000  0.4913610000000  0.4446740000000 1.0
C      1  0.4355820000000  0.5416360000000  0.4540480000000 1.0
C      1  0.4355910000000  0.5625000000000  0.5048550000000 1.0
C      1  0.4343610000000  0.5359840000000  0.5537230000000 1.0
C      1  0.4370190000000  0.4802960000000  0.5615680000000 1.0
C      1  0.4325630000000  0.4359390000000  0.5268060000000 1.0
C      1  0.5858990000000  0.5225480000000  0.4739930000000 1.0
C      1  0.5859070000000  0.5340800000000  0.5009870000000 1.0
C      1  0.5848840000000  0.5199390000000  0.5265050000000 1.0
C      1  0.5838750000000  0.4913710000000  0.5313770000000 1.0
C      1  0.5840890000000  0.4694660000000  0.5125780000000 1.0
C      1  0.5842260000000  0.4707450000000  0.4836750000000 1.0
C      1  0.5848810000000  0.4942280000000  0.4664620000000 1.0
C      1  0.4783480000000  0.4078660000000  0.5153830000000 1.0
C      1  0.4786010000000  0.4331100000000  0.4404530000000 1.0
C      1  0.4786260000000  0.5048830000000  0.4100080000000 1.0
C      1  0.4778880000000  0.5736080000000  0.4489030000000 1.0
C      1  0.4775750000000  0.5864520000000  0.5261490000000 1.0
C      1  0.4792670000000  0.5327960000000  0.5818620000000 1.0
C      1  0.4793850000000  0.4544990000000  0.5777850000000 1.0
C      1  0.5579080000000  0.5620370000000  0.5329420000000 1.0
C      1  0.5563860000000  0.5125940000000  0.5664210000000 1.0
C      1  0.5566100000000  0.4546720000000  0.5517300000000 1.0
C      1  0.5560900000000  0.4315390000000  0.4969540000000 1.0
C      1  0.5559340000000  0.4597240000000  0.4445050000000 1.0
C      1  0.5572620000000  0.5184990000000  0.4322290000000 1.0
C      1  0.5584390000000  0.5652860000000  0.4718400000000 1.0
C      1  0.4676700000000  0.4302170000000  0.5639930000000 1.0
C      1  0.4676910000000  0.4068580000000  0.4863960000000 1.0
C      1  0.4678510000000  0.4536390000000  0.4219380000000 1.0
C      1  0.4680090000000  0.5324520000000  0.4160610000000 1.0
C      1  0.4672810000000  0.5862360000000  0.4738090000000 1.0
C      1  0.4663250000000  0.5754860000000  0.5520890000000 1.0
C      1  0.4696750000000  0.5054190000000  0.5893860000000 1.0
C      1  0.4582180000000  0.4959240000000  0.5075720000000 1.0
C      1  0.4809690000000  0.4898220000000  0.4954540000000 1.0
C      1  0.5032630000000  0.5022830000000  0.4968510000000 1.0
END
