TITL C-3201377-4638-729 3.23041326177985e-05 125000 -605.115503376851 0 0 99 (C1) n - 1
REM
REM in /home/nfs/bkarasulu/CARBON/AIRSS/Generating-Clusters/LCBOP/Higher-Symm/SD-CG/FIRE-CG
REM
REM
REM
REM
REM
REM ./C.cell (b20cbc046b6831c77cfcea5457e17084)
REM AIRSS Version 0.9.1 bugfix July 2018 build 013d7b7c2542+ Fri, 06 Jul 2018 19:26:36 +0100
REM compiler GCC version 9.2.1 20190827 (Red Hat 9.2.1-1)
REM options -cpp -mtune=generic -march=x86-64 -g -O0 -fpre-include=/usr/include/finclude/math-vector-fortran.h
REM seed 1666091485 -909457525 -1133781692 -1324728240 1903254273 -367595971 108235386 -1325442983 1310044421 -2122547316 121421742 -1440337022 -1673695287 366067581 -1934205889 -1692368036 1758276509 -1119799860 -667186236 -2002039631 1171761492 -1312795442 929174659 -1461169144 1432992329 -1307955043 1306215729 713092227 -325510453 -183099153 114521463 355438989 -982972460
REM
CELL 1.54180   50.00000   50.00000   50.00000   90.00000   90.00000   90.00000
LATT -1
SFAC C  
C      1  0.5346880000000  0.5046640000000  0.5748180000000 1.0
C      1  0.4764480000000  0.4794180000000  0.4257330000000 1.0
C      1  0.4521150000000  0.4903220000000  0.5465520000000 1.0
C      1  0.4777050000000  0.4827410000000  0.5426790000000 1.0
C      1  0.5127360000000  0.5223130000000  0.5784370000000 1.0
C      1  0.5419240000000  0.5809160000000  0.5229400000000 1.0
C      1  0.5535060000000  0.5679450000000  0.5004600000000 1.0
C      1  0.5137830000000  0.5280470000000  0.5059870000000 1.0
C      1  0.6080200000000  0.5724940000000  0.4881660000000 1.0
C      1  0.4608110000000  0.3895060000000  0.6000760000000 1.0
C      1  0.3921190000000  0.4604650000000  0.5141940000000 1.0
C      1  0.4822230000000  0.5597510000000  0.3933530000000 1.0
C      1  0.4901480000000  0.5627630000000  0.4414230000000 1.0
C      1  0.5388220000000  0.5263770000000  0.4327670000000 1.0
C      1  0.5572310000000  0.5180000000000  0.5622780000000 1.0
C      1  0.5582510000000  0.4022230000000  0.4923900000000 1.0
C      1  0.4949520000000  0.5905860000000  0.5603880000000 1.0
C      1  0.5384520000000  0.5676900000000  0.5482900000000 1.0
C      1  0.5125280000000  0.5686880000000  0.5604000000000 1.0
C      1  0.4661890000000  0.4080910000000  0.5819800000000 1.0
C      1  0.5100750000000  0.6126300000000  0.4988920000000 1.0
C      1  0.4732510000000  0.4696500000000  0.4526950000000 1.0
C      1  0.5597270000000  0.5801720000000  0.4752240000000 1.0
C      1  0.4658340000000  0.5238290000000  0.5003700000000 1.0
C      1  0.5137550000000  0.4701890000000  0.4781950000000 1.0
C      1  0.4740150000000  0.5316850000000  0.4743470000000 1.0
C      1  0.5782440000000  0.4236530000000  0.4501210000000 1.0
C      1  0.5324000000000  0.4141750000000  0.4092940000000 1.0
C      1  0.4540040000000  0.5416290000000  0.5536020000000 1.0
C      1  0.4085870000000  0.5127970000000  0.5259820000000 1.0
C      1  0.4629040000000  0.5031430000000  0.4183680000000 1.0
C      1  0.6163380000000  0.5573730000000  0.5089110000000 1.0
C      1  0.5569000000000  0.4676400000000  0.4538340000000 1.0
C      1  0.4621210000000  0.4287940000000  0.5130690000000 1.0
C      1  0.4471120000000  0.5028860000000  0.5028410000000 1.0
C      1  0.5163040000000  0.5740620000000  0.4431030000000 1.0
C      1  0.5027330000000  0.4742960000000  0.4147330000000 1.0
C      1  0.5416310000000  0.4385650000000  0.4196490000000 1.0
C      1  0.4036110000000  0.5368660000000  0.4805780000000 1.0
C      1  0.5495320000000  0.4777230000000  0.5133920000000 1.0
C      1  0.4944230000000  0.5123680000000  0.4678240000000 1.0
C      1  0.4803390000000  0.5370340000000  0.5452600000000 1.0
C      1  0.5134780000000  0.4537260000000  0.5855260000000 1.0
C      1  0.6146550000000  0.5394940000000  0.5290270000000 1.0
C      1  0.4326450000000  0.5479880000000  0.5671630000000 1.0
C      1  0.5284210000000  0.6048640000000  0.5167760000000 1.0
C      1  0.5200470000000  0.4564500000000  0.4285480000000 1.0
C      1  0.4001460000000  0.5287870000000  0.5058960000000 1.0
C      1  0.6025140000000  0.5204720000000  0.5439830000000 1.0
C      1  0.5249280000000  0.4678050000000  0.5041030000000 1.0
C      1  0.5206440000000  0.5206630000000  0.4780750000000 1.0
C      1  0.4959220000000  0.4616400000000  0.5423220000000 1.0
C      1  0.4718580000000  0.5981670000000  0.5490760000000 1.0
C      1  0.4768470000000  0.5510730000000  0.4187710000000 1.0
C      1  0.5880250000000  0.5825260000000  0.4727280000000 1.0
C      1  0.4620460000000  0.4353460000000  0.4870520000000 1.0
C      1  0.5206750000000  0.4237790000000  0.5208090000000 1.0
C      1  0.5293550000000  0.5169210000000  0.4094930000000 1.0
C      1  0.5425670000000  0.5165470000000  0.4591520000000 1.0
C      1  0.5616550000000  0.4947670000000  0.4598860000000 1.0
C      1  0.5121030000000  0.4505920000000  0.5221790000000 1.0
C      1  0.5007090000000  0.5429240000000  0.5638680000000 1.0
C      1  0.3810040000000  0.4265440000000  0.5449610000000 1.0
C      1  0.4180970000000  0.4644780000000  0.5254580000000 1.0
C      1  0.4907400000000  0.6026690000000  0.4833260000000 1.0
C      1  0.4764460000000  0.5589130000000  0.4663890000000 1.0
C      1  0.4940220000000  0.4458710000000  0.5658700000000 1.0
C      1  0.5294710000000  0.4772310000000  0.5805920000000 1.0
C      1  0.5775360000000  0.5063520000000  0.5458130000000 1.0
C      1  0.5648550000000  0.4446750000000  0.4371190000000 1.0
C      1  0.5169760000000  0.4392700000000  0.6084940000000 1.0
C      1  0.3739360000000  0.4428610000000  0.5243030000000 1.0
C      1  0.5638290000000  0.5423250000000  0.5022870000000 1.0
C      1  0.4873940000000  0.5293030000000  0.5188990000000 1.0
C      1  0.4303770000000  0.4920670000000  0.5259150000000 1.0
C      1  0.5736940000000  0.4080100000000  0.4713960000000 1.0
C      1  0.5395760000000  0.5806740000000  0.4552300000000 1.0
C      1  0.4849070000000  0.4069850000000  0.4249230000000 1.0
C      1  0.5082930000000  0.4025970000000  0.4126020000000 1.0
C      1  0.4539110000000  0.4320010000000  0.5401150000000 1.0
C      1  0.5546580000000  0.5465280000000  0.5582590000000 1.0
C      1  0.4902340000000  0.4842590000000  0.4704610000000 1.0
C      1  0.4274470000000  0.4424280000000  0.5425260000000 1.0
C      1  0.5720290000000  0.5171830000000  0.5012330000000 1.0
C      1  0.4531900000000  0.5833780000000  0.5040570000000 1.0
C      1  0.5153100000000  0.4956230000000  0.4010420000000 1.0
C      1  0.4065540000000  0.4270590000000  0.5544210000000 1.0
C      1  0.4662920000000  0.4427000000000  0.4600230000000 1.0
C      1  0.4555320000000  0.3713240000000  0.6179960000000 1.0
C      1  0.4328040000000  0.5366440000000  0.4365100000000 1.0
C      1  0.4699290000000  0.4221290000000  0.4410540000000 1.0
C      1  0.5683210000000  0.4969990000000  0.5203110000000 1.0
C      1  0.4151990000000  0.5386530000000  0.4565370000000 1.0
C      1  0.4548080000000  0.5932820000000  0.5289960000000 1.0
C      1  0.4717710000000  0.5816690000000  0.4829440000000 1.0
C      1  0.5283040000000  0.4626590000000  0.4557310000000 1.0
C      1  0.4713260000000  0.4281800000000  0.5633920000000 1.0
C      1  0.4569900000000  0.5304410000000  0.4231930000000 1.0
C      1  0.5385110000000  0.4073460000000  0.5095930000000 1.0
END
