TITL C-3201375-1262-1111 0.0819067936525889 125000 -84.0719189120884 0 0 16 (C1) n - 1
REM
REM in /home/nfs/bkarasulu/CARBON/AIRSS/Generating-Clusters/LCBOP/Higher-Symm/SD-CG/FIRE-CG
REM
REM
REM
REM
REM
REM ./C.cell (b20cbc046b6831c77cfcea5457e17084)
REM AIRSS Version 0.9.1 bugfix July 2018 build 013d7b7c2542+ Fri, 06 Jul 2018 19:26:36 +0100
REM compiler GCC version 9.2.1 20190827 (Red Hat 9.2.1-1)
REM options -cpp -mtune=generic -march=x86-64 -g -O0 -fpre-include=/usr/include/finclude/math-vector-fortran.h
REM seed 1081589997 416011051 -1887683289 487849329 1763860591 791908826 436095191 1748433245 -773379898 2069762883 -296849911 1060652942 214373138 638162608 -1664716752 1753960204 1049865773 -1497891783 -267856684 -845046733 141446592 38125103 -1719713148 -445353384 1085693275 -1937535893 -175460536 -315573875 491122855 258276814 479157277 -774025595 -1721915934
REM
CELL 1.54180   50.00000   50.00000   50.00000   90.00000   90.00000   90.00000
LATT -1
SFAC C  
C      1  0.5378280000000  0.5463180000000  0.4910170000000 1.0
C      1  0.4461680000000  0.5129620000000  0.5347700000000 1.0
C      1  0.5160930000000  0.4572450000000  0.4374320000000 1.0
C      1  0.5466760000000  0.4821710000000  0.5541980000000 1.0
C      1  0.5052450000000  0.4721040000000  0.5210620000000 1.0
C      1  0.4908100000000  0.4984430000000  0.4614980000000 1.0
C      1  0.4681530000000  0.5038020000000  0.5231700000000 1.0
C      1  0.5193710000000  0.5274910000000  0.4884330000000 1.0
C      1  0.5005450000000  0.5069470000000  0.4867990000000 1.0
C      1  0.4911160000000  0.4943460000000  0.5104290000000 1.0
C      1  0.4691060000000  0.5107250000000  0.4502480000000 1.0
C      1  0.4980030000000  0.4466260000000  0.5142150000000 1.0
C      1  0.4245170000000  0.5220010000000  0.5461350000000 1.0
C      1  0.5560650000000  0.5647510000000  0.4937110000000 1.0
C      1  0.5266090000000  0.4766840000000  0.5385010000000 1.0
C      1  0.5036960000000  0.4773840000000  0.4483830000000 1.0
END
