TITL C-3201378-2706-924 0.743684755681015 125000 -558.040214259219 0 0 92 (C1) n - 1
REM
REM in /home/nfs/bkarasulu/CARBON/AIRSS/Generating-Clusters/LCBOP/Higher-Symm/SD-CG/FIRE-CG
REM
REM
REM
REM
REM
REM ./C.cell (b20cbc046b6831c77cfcea5457e17084)
REM AIRSS Version 0.9.1 bugfix July 2018 build 013d7b7c2542+ Fri, 06 Jul 2018 19:26:36 +0100
REM compiler GCC version 9.2.1 20190827 (Red Hat 9.2.1-1)
REM options -cpp -mtune=generic -march=x86-64 -g -O0 -fpre-include=/usr/include/finclude/math-vector-fortran.h
REM seed 1456912194 1639644956 967772989 -1065869932 1717622107 -773564737 1859883126 -1270151215 -2134629476 830093652 112020695 -122585890 49208408 102843804 882858623 1859151050 -416430867 -655330170 554373283 -522568059 1507083222 -374032148 -1503664569 -2001987584 -395312757 488540294 -2037860460 555178757 -1197912730 -1494397954 -1624830140 1237875964 -556051720
REM
CELL 1.54180   50.00000   50.00000   50.00000   90.00000   90.00000   90.00000
LATT -1
SFAC C  
C      1  0.4608350000000  0.4354230000000  0.5259670000000 1.0
C      1  0.5639150000000  0.4674880000000  0.5298230000000 1.0
C      1  0.4185420000000  0.4745250000000  0.5251490000000 1.0
C      1  0.4367220000000  0.5287590000000  0.4332520000000 1.0
C      1  0.4642900000000  0.4952850000000  0.5799680000000 1.0
C      1  0.4825480000000  0.5312340000000  0.4911300000000 1.0
C      1  0.4505310000000  0.4851270000000  0.4179460000000 1.0
C      1  0.5751850000000  0.4777410000000  0.4866170000000 1.0
C      1  0.4258330000000  0.5601350000000  0.4787810000000 1.0
C      1  0.4334330000000  0.5007830000000  0.4340610000000 1.0
C      1  0.4749940000000  0.4746120000000  0.4213810000000 1.0
C      1  0.5689150000000  0.5643250000000  0.4672600000000 1.0
C      1  0.4959520000000  0.4674020000000  0.5350360000000 1.0
C      1  0.5126300000000  0.5878450000000  0.5357620000000 1.0
C      1  0.5199870000000  0.4742870000000  0.5484590000000 1.0
C      1  0.5679110000000  0.4496570000000  0.4861860000000 1.0
C      1  0.5238350000000  0.5776560000000  0.5581100000000 1.0
C      1  0.4101470000000  0.5429390000000  0.4917590000000 1.0
C      1  0.4509010000000  0.5526460000000  0.4379190000000 1.0
C      1  0.4175440000000  0.4711270000000  0.4758760000000 1.0
C      1  0.4997390000000  0.4040780000000  0.3986260000000 1.0
C      1  0.4725450000000  0.5608410000000  0.4218740000000 1.0
C      1  0.4958980000000  0.5800420000000  0.4867750000000 1.0
C      1  0.4011130000000  0.4372720000000  0.3994070000000 1.0
C      1  0.4435060000000  0.4390440000000  0.5034640000000 1.0
C      1  0.5453380000000  0.5685360000000  0.4821680000000 1.0
C      1  0.4782260000000  0.5066370000000  0.4779430000000 1.0
C      1  0.5973640000000  0.5045330000000  0.5260170000000 1.0
C      1  0.4408500000000  0.4909930000000  0.5641390000000 1.0
C      1  0.4505340000000  0.5590890000000  0.5397000000000 1.0
C      1  0.4812010000000  0.5164670000000  0.5368390000000 1.0
C      1  0.4852390000000  0.5095820000000  0.5662370000000 1.0
C      1  0.5453000000000  0.4090810000000  0.4242150000000 1.0
C      1  0.5492200000000  0.5633010000000  0.5098120000000 1.0
C      1  0.4693430000000  0.4769070000000  0.6307320000000 1.0
C      1  0.5566890000000  0.4447540000000  0.5127690000000 1.0
C      1  0.5252460000000  0.5231100000000  0.5104550000000 1.0
C      1  0.5074050000000  0.4316730000000  0.5053150000000 1.0
C      1  0.4742620000000  0.4577490000000  0.6799090000000 1.0
C      1  0.4321280000000  0.4667540000000  0.5505760000000 1.0
C      1  0.6923740000000  0.5241150000000  0.5345190000000 1.0
C      1  0.4054440000000  0.5213930000000  0.5067550000000 1.0
C      1  0.4153910000000  0.5033840000000  0.5254480000000 1.0
C      1  0.4242180000000  0.4600960000000  0.5008790000000 1.0
C      1  0.4944780000000  0.5023930000000  0.4550310000000 1.0
C      1  0.5000220000000  0.5663360000000  0.4253560000000 1.0
C      1  0.4331680000000  0.5129660000000  0.5461270000000 1.0
C      1  0.4714090000000  0.4869290000000  0.4969260000000 1.0
C      1  0.5688220000000  0.4323680000000  0.4646800000000 1.0
C      1  0.4473160000000  0.4428710000000  0.5500570000000 1.0
C      1  0.4241590000000  0.4250740000000  0.3946370000000 1.0
C      1  0.5184960000000  0.5687240000000  0.4718340000000 1.0
C      1  0.5120630000000  0.5532980000000  0.4478520000000 1.0
C      1  0.5917890000000  0.5513780000000  0.4729810000000 1.0
C      1  0.4718020000000  0.4673300000000  0.6553180000000 1.0
C      1  0.4930850000000  0.4766240000000  0.4428610000000 1.0
C      1  0.4541780000000  0.5309480000000  0.5391140000000 1.0
C      1  0.5098940000000  0.5249010000000  0.4473960000000 1.0
C      1  0.4740720000000  0.4078940000000  0.3932120000000 1.0
C      1  0.5585270000000  0.5088070000000  0.5561930000000 1.0
C      1  0.5241470000000  0.4042630000000  0.4089720000000 1.0
C      1  0.4197500000000  0.4873430000000  0.4547250000000 1.0
C      1  0.4485790000000  0.4150720000000  0.3921810000000 1.0
C      1  0.6421100000000  0.5223450000000  0.5192460000000 1.0
C      1  0.5608650000000  0.4186750000000  0.4434220000000 1.0
C      1  0.4482530000000  0.5661940000000  0.4630680000000 1.0
C      1  0.6674510000000  0.5232460000000  0.5269240000000 1.0
C      1  0.4794660000000  0.4880830000000  0.5244040000000 1.0
C      1  0.5470530000000  0.4827710000000  0.5477580000000 1.0
C      1  0.4887660000000  0.4416030000000  0.5243580000000 1.0
C      1  0.4299530000000  0.5699750000000  0.5541320000000 1.0
C      1  0.5013590000000  0.4537510000000  0.4570100000000 1.0
C      1  0.5608900000000  0.5031490000000  0.4480660000000 1.0
C      1  0.5359630000000  0.5553190000000  0.5676550000000 1.0
C      1  0.5339820000000  0.4285310000000  0.5143010000000 1.0
C      1  0.4681470000000  0.5758710000000  0.5259830000000 1.0
C      1  0.4977750000000  0.5289870000000  0.5150910000000 1.0
C      1  0.5427780000000  0.5401680000000  0.5241550000000 1.0
C      1  0.5368340000000  0.5067990000000  0.4905670000000 1.0
C      1  0.6152640000000  0.5211770000000  0.5116110000000 1.0
C      1  0.3792540000000  0.4503200000000  0.4050200000000 1.0
C      1  0.5576300000000  0.4963900000000  0.4743050000000 1.0
C      1  0.4706780000000  0.5803320000000  0.4730860000000 1.0
C      1  0.4934290000000  0.5831620000000  0.5155610000000 1.0
C      1  0.4766810000000  0.4483260000000  0.7040960000000 1.0
C      1  0.5869390000000  0.5104490000000  0.5517970000000 1.0
C      1  0.6063710000000  0.5364110000000  0.4896320000000 1.0
C      1  0.5031930000000  0.4372030000000  0.4779330000000 1.0
C      1  0.5140980000000  0.5826450000000  0.4086630000000 1.0
C      1  0.4668660000000  0.4863810000000  0.6061230000000 1.0
C      1  0.5831520000000  0.4836190000000  0.5137740000000 1.0
C      1  0.5458200000000  0.5341710000000  0.5517930000000 1.0
END
