TITL C-3201376-6384-693 1.45853586861002e-05 125000 -1022.84868583609 0 0 167 (Cs) n - 1
REM
REM in /home/nfs/bkarasulu/CARBON/AIRSS/Generating-Clusters/LCBOP/Higher-Symm/SD-CG/FIRE-CG
REM
REM
REM
REM
REM
REM ./C.cell (b20cbc046b6831c77cfcea5457e17084)
REM AIRSS Version 0.9.1 bugfix July 2018 build 013d7b7c2542+ Fri, 06 Jul 2018 19:26:36 +0100
REM compiler GCC version 9.2.1 20190827 (Red Hat 9.2.1-1)
REM options -cpp -mtune=generic -march=x86-64 -g -O0 -fpre-include=/usr/include/finclude/math-vector-fortran.h
REM seed 658292025 -459426553 -1818328234 1549410092 315641641 -568843406 38279833 -1670878275 2111942566 2012632966 -675615217 735111240 26204885 -1482848339 -1471997695 1917869095 910364182 1539223678 -1586043515 500637653 -1793250860 -1504587453 468390874 -1098086448 -1738326794 -97854669 -1388886525 1378695427 921901512 1856632666 -2036601546 331834351 -2137071722
REM
CELL 1.54180   50.00000   50.00000   50.00000   90.00000   90.00000   90.00000
LATT -1
SFAC C  
C      1  0.4418310000000  0.4667710000000  0.5260600000000 1.0
C      1  0.4504770000000  0.5436760000000  0.5258140000000 1.0
C      1  0.5262060000000  0.5594730000000  0.5256390000000 1.0
C      1  0.5631000000000  0.4914170000000  0.5249810000000 1.0
C      1  0.5119570000000  0.4343980000000  0.5261140000000 1.0
C      1  0.4418330000000  0.4667680000000  0.4743690000000 1.0
C      1  0.4504940000000  0.5436780000000  0.4745940000000 1.0
C      1  0.5262160000000  0.5594900000000  0.4748080000000 1.0
C      1  0.5630880000000  0.4914370000000  0.4754260000000 1.0
C      1  0.5119510000000  0.4343930000000  0.4742740000000 1.0
C      1  0.4593930000000  0.4471970000000  0.5145210000000 1.0
C      1  0.4375390000000  0.5206950000000  0.5144510000000 1.0
C      1  0.5002710000000  0.5645820000000  0.5144310000000 1.0
C      1  0.5620100000000  0.5182960000000  0.5145510000000 1.0
C      1  0.5358010000000  0.4450740000000  0.5144620000000 1.0
C      1  0.4593820000000  0.4471850000000  0.4859220000000 1.0
C      1  0.4375510000000  0.5206960000000  0.4859450000000 1.0
C      1  0.5002760000000  0.5645910000000  0.4860140000000 1.0
C      1  0.5620120000000  0.5183090000000  0.4858870000000 1.0
C      1  0.5357910000000  0.4450900000000  0.4859020000000 1.0
C      1  0.6304300000000  0.4731470000000  0.4250810000000 1.0
C      1  0.5306840000000  0.3931700000000  0.4520170000000 1.0
C      1  0.4075070000000  0.4369990000000  0.4517190000000 1.0
C      1  0.4111200000000  0.5674170000000  0.4529880000000 1.0
C      1  0.5360720000000  0.6046880000000  0.4536690000000 1.0
C      1  0.6304430000000  0.4731450000000  0.5753540000000 1.0
C      1  0.5306770000000  0.3931730000000  0.5483810000000 1.0
C      1  0.4075120000000  0.4369870000000  0.5486990000000 1.0
C      1  0.4111050000000  0.5674140000000  0.5474240000000 1.0
C      1  0.5360820000000  0.6046730000000  0.5467700000000 1.0
C      1  0.5629950000000  0.5638720000000  0.4460980000000 1.0
C      1  0.5827860000000  0.4600850000000  0.4386250000000 1.0
C      1  0.4859910000000  0.4116990000000  0.4431740000000 1.0
C      1  0.4103950000000  0.4861170000000  0.4453470000000 1.0
C      1  0.4584720000000  0.5801690000000  0.4461120000000 1.0
C      1  0.5630010000000  0.5638480000000  0.5543170000000 1.0
C      1  0.5827980000000  0.4600750000000  0.5618150000000 1.0
C      1  0.4859860000000  0.4117150000000  0.5572120000000 1.0
C      1  0.4103850000000  0.4861010000000  0.5550900000000 1.0
C      1  0.4584580000000  0.5801580000000  0.5543090000000 1.0
C      1  0.5247260000000  0.4971170000000  0.6038810000000 1.0
C      1  0.5033450000000  0.4756690000000  0.6039860000000 1.0
C      1  0.4762760000000  0.4893210000000  0.6036660000000 1.0
C      1  0.4810670000000  0.5192730000000  0.6033350000000 1.0
C      1  0.5110240000000  0.5240320000000  0.6034970000000 1.0
C      1  0.5247290000000  0.4971300000000  0.3965410000000 1.0
C      1  0.5033460000000  0.4756800000000  0.3964270000000 1.0
C      1  0.4762750000000  0.4893300000000  0.3967520000000 1.0
C      1  0.4810720000000  0.5192840000000  0.3970840000000 1.0
C      1  0.5110280000000  0.5240440000000  0.3969210000000 1.0
C      1  0.5094170000000  0.4503060000000  0.5888160000000 1.0
C      1  0.4540340000000  0.4756700000000  0.5883360000000 1.0
C      1  0.4616080000000  0.5359100000000  0.5874340000000 1.0
C      1  0.5215010000000  0.5474600000000  0.5874980000000 1.0
C      1  0.5500780000000  0.4950830000000  0.5883290000000 1.0
C      1  0.5094100000000  0.4503080000000  0.4115920000000 1.0
C      1  0.4540360000000  0.4756720000000  0.4120800000000 1.0
C      1  0.4616230000000  0.5359220000000  0.4129930000000 1.0
C      1  0.5215070000000  0.5474780000000  0.4129090000000 1.0
C      1  0.5500800000000  0.4951020000000  0.4120960000000 1.0
C      1  0.3816290000000  0.4329710000000  0.4583100000000 1.0
C      1  0.3992300000000  0.5909140000000  0.4589690000000 1.0
C      1  0.5547630000000  0.6233200000000  0.4594000000000 1.0
C      1  0.6404110000000  0.4843010000000  0.4474780000000 1.0
C      1  0.5265270000000  0.3673620000000  0.4587420000000 1.0
C      1  0.3816360000000  0.4329540000000  0.5421020000000 1.0
C      1  0.3992190000000  0.5909140000000  0.5414440000000 1.0
C      1  0.5547730000000  0.6233050000000  0.5410420000000 1.0
C      1  0.6404230000000  0.4842940000000  0.5529560000000 1.0
C      1  0.5265160000000  0.3673640000000  0.5416640000000 1.0
C      1  0.5897260000000  0.4544010000000  0.5320290000000 1.0
C      1  0.4693990000000  0.3944980000000  0.5310610000000 1.0
C      1  0.3914540000000  0.4951130000000  0.5316880000000 1.0
C      1  0.4612660000000  0.6011280000000  0.5314570000000 1.0
C      1  0.5839310000000  0.5675090000000  0.5314970000000 1.0
C      1  0.5897160000000  0.4544080000000  0.4684100000000 1.0
C      1  0.4694030000000  0.3944880000000  0.4693270000000 1.0
C      1  0.3914610000000  0.4951230000000  0.4687490000000 1.0
C      1  0.4612740000000  0.6011350000000  0.4689690000000 1.0
C      1  0.5839290000000  0.5675240000000  0.4689150000000 1.0
C      1  0.5776530000000  0.6172340000000  0.4723790000000 1.0
C      1  0.6295790000000  0.4841560000000  0.4720550000000 1.0
C      1  0.5047150000000  0.3590960000000  0.4723010000000 1.0
C      1  0.3673580000000  0.4511240000000  0.4723040000000 1.0
C      1  0.4120620000000  0.6105690000000  0.4723230000000 1.0
C      1  0.5776600000000  0.6172220000000  0.5280560000000 1.0
C      1  0.6295890000000  0.4841480000000  0.5283790000000 1.0
C      1  0.5047060000000  0.3590990000000  0.5281030000000 1.0
C      1  0.3673630000000  0.4511090000000  0.5281120000000 1.0
C      1  0.4120570000000  0.6105680000000  0.5280940000000 1.0
C      1  0.4833840000000  0.6082110000000  0.5140340000000 1.0
C      1  0.5973820000000  0.5485810000000  0.5140330000000 1.0
C      1  0.5819470000000  0.4329210000000  0.5140280000000 1.0
C      1  0.4474210000000  0.4020260000000  0.5140240000000 1.0
C      1  0.3911590000000  0.5182750000000  0.5140620000000 1.0
C      1  0.4833870000000  0.6082140000000  0.4863980000000 1.0
C      1  0.5973820000000  0.5485870000000  0.4863690000000 1.0
C      1  0.5819430000000  0.4329250000000  0.4864100000000 1.0
C      1  0.4474220000000  0.4020210000000  0.4863580000000 1.0
C      1  0.3911620000000  0.5182790000000  0.4863820000000 1.0
C      1  0.4811890000000  0.5426600000000  0.5238180000000 1.0
C      1  0.5350130000000  0.5299080000000  0.5237600000000 1.0
C      1  0.5385290000000  0.4739870000000  0.5238170000000 1.0
C      1  0.4878730000000  0.4534420000000  0.5238890000000 1.0
C      1  0.4523750000000  0.4956310000000  0.5238340000000 1.0
C      1  0.4812060000000  0.5426670000000  0.4766030000000 1.0
C      1  0.5350150000000  0.5299230000000  0.4766730000000 1.0
C      1  0.5385090000000  0.4740140000000  0.4765740000000 1.0
C      1  0.4878560000000  0.4534130000000  0.4765300000000 1.0
C      1  0.4523910000000  0.4956300000000  0.4765800000000 1.0
C      1  0.5325080000000  0.5154530000000  0.4511610000000 1.0
C      1  0.5242980000000  0.4729580000000  0.4510920000000 1.0
C      1  0.4814570000000  0.4669620000000  0.4510180000000 1.0
C      1  0.4631950000000  0.5061700000000  0.4511680000000 1.0
C      1  0.4944730000000  0.5360410000000  0.4511200000000 1.0
C      1  0.5324680000000  0.5153980000000  0.5492600000000 1.0
C      1  0.5243470000000  0.4728880000000  0.5493030000000 1.0
C      1  0.4814960000000  0.4670210000000  0.5493930000000 1.0
C      1  0.4631320000000  0.5061740000000  0.5492520000000 1.0
C      1  0.4944420000000  0.5360070000000  0.5493090000000 1.0
C      1  0.4995080000000  0.5545650000000  0.4308310000000 1.0
C      1  0.5511180000000  0.5171980000000  0.4305660000000 1.0
C      1  0.5316730000000  0.4570340000000  0.4295970000000 1.0
C      1  0.4673420000000  0.4562180000000  0.4294890000000 1.0
C      1  0.4476990000000  0.5171420000000  0.4306250000000 1.0
C      1  0.4994910000000  0.5545490000000  0.5695850000000 1.0
C      1  0.5511040000000  0.5171630000000  0.5698410000000 1.0
C      1  0.5316940000000  0.4570050000000  0.5708260000000 1.0
C      1  0.4673650000000  0.4562540000000  0.5709040000000 1.0
C      1  0.4476640000000  0.5171370000000  0.5698110000000 1.0
C      1  0.3771980000000  0.4742830000000  0.5149890000000 1.0
C      1  0.4371440000000  0.6086460000000  0.5149660000000 1.0
C      1  0.5837340000000  0.5927720000000  0.5149740000000 1.0
C      1  0.6082140000000  0.4712410000000  0.5150150000000 1.0
C      1  0.4852530000000  0.3749480000000  0.5149610000000 1.0
C      1  0.3771990000000  0.4742900000000  0.4854380000000 1.0
C      1  0.4371480000000  0.6086480000000  0.4854550000000 1.0
C      1  0.5837330000000  0.5927790000000  0.4854500000000 1.0
C      1  0.6082080000000  0.4712460000000  0.4854230000000 1.0
C      1  0.4852570000000  0.3749440000000  0.4854340000000 1.0
C      1  0.5503910000000  0.5458770000000  0.4242530000000 1.0
C      1  0.5580570000000  0.4680580000000  0.4232320000000 1.0
C      1  0.4850450000000  0.4338780000000  0.4221250000000 1.0
C      1  0.4313000000000  0.4937150000000  0.4234920000000 1.0
C      1  0.4720630000000  0.5629330000000  0.4242590000000 1.0
C      1  0.5503850000000  0.5458460000000  0.5761480000000 1.0
C      1  0.5580670000000  0.4680390000000  0.5772080000000 1.0
C      1  0.4850500000000  0.4338970000000  0.5782590000000 1.0
C      1  0.4312820000000  0.4937040000000  0.5769500000000 1.0
C      1  0.4720480000000  0.5629210000000  0.5761630000000 1.0
C      1  0.5393530000000  0.5770990000000  0.5428780000000 1.0
C      1  0.6063800000000  0.4614370000000  0.5782000000000 1.0
C      1  0.5119910000000  0.4137600000000  0.5449710000000 1.0
C      1  0.4213810000000  0.4609520000000  0.5442650000000 1.0
C      1  0.4382640000000  0.5617970000000  0.5432700000000 1.0
C      1  0.5393480000000  0.5771130000000  0.4575520000000 1.0
C      1  0.6063680000000  0.4614390000000  0.4222380000000 1.0
C      1  0.5119930000000  0.4137540000000  0.4554180000000 1.0
C      1  0.4213820000000  0.4609590000000  0.4561640000000 1.0
C      1  0.4382790000000  0.5618040000000  0.4571450000000 1.0
C      1  0.4878140000000  0.5224980000000  0.5002100000000 1.0
C      1  0.4944320000000  0.4735250000000  0.5002020000000 1.0
C      1  0.4734890000000  0.4955610000000  0.5002110000000 1.0
C      1  0.5216920000000  0.4867280000000  0.5002060000000 1.0
C      1  0.5179480000000  0.5171950000000  0.5002090000000 1.0
C      1  0.4992560000000  0.4996110000000  0.5522470000000 1.0
C      1  0.4991750000000  0.4994810000000  0.4481480000000 1.0
END
