TITL C-3201373-1215-971 -1.16727655160858e-06 125000 -1022.98916165066 0 0 165 (C5) n - 1
REM
REM in /home/nfs/bkarasulu/CARBON/AIRSS/Generating-Clusters/LCBOP/Higher-Symm/SD-CG/FIRE-CG
REM
REM
REM
REM
REM
REM ./C.cell (b20cbc046b6831c77cfcea5457e17084)
REM AIRSS Version 0.9.1 bugfix July 2018 build 013d7b7c2542+ Fri, 06 Jul 2018 19:26:36 +0100
REM compiler GCC version 9.2.1 20190827 (Red Hat 9.2.1-1)
REM options -cpp -mtune=generic -march=x86-64 -g -O0 -fpre-include=/usr/include/finclude/math-vector-fortran.h
REM seed -1963141104 -1559213881 -271509596 -1902088127 -1582810157 -1086132418 -1069004 -1269536045 847893337 1361468542 -601646054 1303860069 -241721503 1233204467 747073237 1656429203 839999636 -1773768554 364974829 -1377926338 -1768916575 1275778486 803186165 -551494651 -1947393633 -1253030443 265981609 488079979 150660049 129183665 -71718013 -1966307554 -382783354
REM
CELL 1.54180   50.00000   50.00000   50.00000   90.00000   90.00000   90.00000
LATT -1
SFAC C  
C      1  0.6006670000000  0.5012930000000  0.4388290000000 1.0
C      1  0.5323370000000  0.4046590000000  0.4388290000000 1.0
C      1  0.4193180000000  0.4397840000000  0.4388290000000 1.0
C      1  0.4177990000000  0.5581250000000  0.4388290000000 1.0
C      1  0.5298790000000  0.5961400000000  0.4388290000000 1.0
C      1  0.3974920000000  0.4431830000000  0.4969470000000 1.0
C      1  0.4142870000000  0.5799330000000  0.4969480000000 1.0
C      1  0.5495340000000  0.6062190000000  0.4969480000000 1.0
C      1  0.6163270000000  0.4857130000000  0.4969480000000 1.0
C      1  0.5223600000000  0.3849520000000  0.4969470000000 1.0
C      1  0.4067540000000  0.5332520000000  0.4414990000000 1.0
C      1  0.5028100000000  0.5989580000000  0.4414990000000 1.0
C      1  0.5949830000000  0.5279080000000  0.4414990000000 1.0
C      1  0.5558930000000  0.4182900000000  0.4414980000000 1.0
C      1  0.4395610000000  0.4215930000000  0.4414980000000 1.0
C      1  0.4805850000000  0.4857510000000  0.4932870000000 1.0
C      1  0.4804490000000  0.5140610000000  0.4932870000000 1.0
C      1  0.5073320000000  0.5229400000000  0.4932880000000 1.0
C      1  0.5240830000000  0.5001160000000  0.4932870000000 1.0
C      1  0.5075520000000  0.4771320000000  0.4932870000000 1.0
C      1  0.5684360000000  0.4056670000000  0.5045910000000 1.0
C      1  0.4314320000000  0.4057630000000  0.5045910000000 1.0
C      1  0.3891870000000  0.5360910000000  0.5045920000000 1.0
C      1  0.5000810000000  0.6165430000000  0.5045920000000 1.0
C      1  0.6108640000000  0.5359360000000  0.5045920000000 1.0
C      1  0.3911350000000  0.5145910000000  0.4572260000000 1.0
C      1  0.4802350000000  0.6080450000000  0.4572260000000 1.0
C      1  0.5966490000000  0.5521850000000  0.4572260000000 1.0
C      1  0.5794970000000  0.4242070000000  0.4572250000000 1.0
C      1  0.4524830000000  0.4009720000000  0.4572250000000 1.0
C      1  0.4582100000000  0.5361990000000  0.6021510000000 1.0
C      1  0.5215140000000  0.5509300000000  0.6021510000000 1.0
C      1  0.5550860000000  0.4952770000000  0.6021510000000 1.0
C      1  0.5125310000000  0.4461500000000  0.6021510000000 1.0
C      1  0.4526580000000  0.4714420000000  0.6021510000000 1.0
C      1  0.5590760000000  0.5683460000000  0.4124720000000 1.0
C      1  0.5832560000000  0.4649360000000  0.4124720000000 1.0
C      1  0.4923790000000  0.4099830000000  0.4124720000000 1.0
C      1  0.4120340000000  0.4794320000000  0.4124720000000 1.0
C      1  0.4532550000000  0.5773050000000  0.4124720000000 1.0
C      1  0.4968920000000  0.5237650000000  0.5493460000000 1.0
C      1  0.5216410000000  0.5102990000000  0.5493460000000 1.0
C      1  0.5164830000000  0.4826000000000  0.5493450000000 1.0
C      1  0.4885450000000  0.4789470000000  0.5493450000000 1.0
C      1  0.4764380000000  0.5043880000000  0.5493460000000 1.0
C      1  0.4306630000000  0.5945290000000  0.4807800000000 1.0
C      1  0.5684760000000  0.5951550000000  0.4807800000000 1.0
C      1  0.6116580000000  0.4642800000000  0.4807790000000 1.0
C      1  0.5005320000000  0.3827690000000  0.4807790000000 1.0
C      1  0.3886710000000  0.4632670000000  0.4807790000000 1.0
C      1  0.4780400000000  0.4863940000000  0.6023770000000 1.0
C      1  0.4802750000000  0.5166800000000  0.6023770000000 1.0
C      1  0.5097690000000  0.5239140000000  0.6023770000000 1.0
C      1  0.5257630000000  0.4980990000000  0.6023770000000 1.0
C      1  0.5061530000000  0.4749100000000  0.6023770000000 1.0
C      1  0.4943200000000  0.5507260000000  0.5453980000000 1.0
C      1  0.5464880000000  0.5210770000000  0.5453980000000 1.0
C      1  0.5344110000000  0.4623000000000  0.5453980000000 1.0
C      1  0.4747790000000  0.4556230000000  0.5453980000000 1.0
C      1  0.4500020000000  0.5102730000000  0.5453980000000 1.0
C      1  0.4806740000000  0.5412610000000  0.3902990000000 1.0
C      1  0.5332690000000  0.5311310000000  0.3902990000000 1.0
C      1  0.5398880000000  0.4779800000000  0.3902990000000 1.0
C      1  0.4913830000000  0.4552600000000  0.3902990000000 1.0
C      1  0.4547870000000  0.4943700000000  0.3902990000000 1.0
C      1  0.5161920000000  0.5714310000000  0.5820430000000 1.0
C      1  0.5729390000000  0.5066740000000  0.5820430000000 1.0
C      1  0.5288870000000  0.4326930000000  0.5820420000000 1.0
C      1  0.4449140000000  0.4517280000000  0.5820420000000 1.0
C      1  0.4370680000000  0.5374720000000  0.5820430000000 1.0
C      1  0.5566240000000  0.5851620000000  0.4351520000000 1.0
C      1  0.5984910000000  0.4724640000000  0.4351510000000 1.0
C      1  0.5042470000000  0.3978210000000  0.4351510000000 1.0
C      1  0.4041340000000  0.4643860000000  0.4351510000000 1.0
C      1  0.4365040000000  0.5801690000000  0.4351520000000 1.0
C      1  0.4137470000000  0.4346620000000  0.5427140000000 1.0
C      1  0.4112060000000  0.5618400000000  0.5427150000000 1.0
C      1  0.5313750000000  0.6035580000000  0.5427150000000 1.0
C      1  0.6081850000000  0.5021610000000  0.5427150000000 1.0
C      1  0.5354870000000  0.3977780000000  0.5427140000000 1.0
C      1  0.4486420000000  0.4940680000000  0.4388830000000 1.0
C      1  0.4784880000000  0.5470120000000  0.4388830000000 1.0
C      1  0.5380630000000  0.5349870000000  0.4388830000000 1.0
C      1  0.5450370000000  0.4746120000000  0.4388830000000 1.0
C      1  0.4897710000000  0.4493220000000  0.4388820000000 1.0
C      1  0.4211650000000  0.4454660000000  0.5667970000000 1.0
C      1  0.4237740000000  0.5581240000000  0.5667970000000 1.0
C      1  0.5317250000000  0.5904560000000  0.5667970000000 1.0
C      1  0.5958320000000  0.4977800000000  0.5667970000000 1.0
C      1  0.5275030000000  0.4081720000000  0.5667970000000 1.0
C      1  0.4760060000000  0.4976160000000  0.4397020000000 1.0
C      1  0.4903170000000  0.5220830000000  0.4397020000000 1.0
C      1  0.5180100000000  0.5160330000000  0.4397020000000 1.0
C      1  0.5208140000000  0.4878260000000  0.4397020000000 1.0
C      1  0.4948530000000  0.4764430000000  0.4397020000000 1.0
C      1  0.4422390000000  0.5180790000000  0.5197670000000 1.0
C      1  0.4993450000000  0.5605210000000  0.5197670000000 1.0
C      1  0.5573560000000  0.5193250000000  0.5197670000000 1.0
C      1  0.5361030000000  0.4514230000000  0.5197670000000 1.0
C      1  0.4649570000000  0.4506520000000  0.5197660000000 1.0
C      1  0.4340880000000  0.5131670000000  0.5679680000000 1.0
C      1  0.4921550000000  0.5667540000000  0.5679680000000 1.0
C      1  0.5610630000000  0.5280890000000  0.5679680000000 1.0
C      1  0.5455840000000  0.4506060000000  0.5679680000000 1.0
C      1  0.4671100000000  0.4413830000000  0.5679670000000 1.0
C      1  0.5025300000000  0.4306210000000  0.6232750000000 1.0
C      1  0.4347990000000  0.4761540000000  0.6232750000000 1.0
C      1  0.4571730000000  0.5546410000000  0.6232760000000 1.0
C      1  0.5387330000000  0.5576150000000  0.6232760000000 1.0
C      1  0.5667650000000  0.4809670000000  0.6232750000000 1.0
C      1  0.6134890000000  0.5082820000000  0.5147250000000 1.0
C      1  0.5429460000000  0.3946250000000  0.5147240000000 1.0
C      1  0.4130530000000  0.4265930000000  0.5147240000000 1.0
C      1  0.4033180000000  0.5600070000000  0.5147250000000 1.0
C      1  0.5271940000000  0.6104930000000  0.5147250000000 1.0
C      1  0.6151980000000  0.5477700000000  0.4787700000000 1.0
C      1  0.5810300000000  0.4052020000000  0.4787690000000 1.0
C      1  0.4348820000000  0.3936420000000  0.4787690000000 1.0
C      1  0.3787250000000  0.5290650000000  0.4787690000000 1.0
C      1  0.4901660000000  0.6243210000000  0.4787700000000 1.0
C      1  0.4749360000000  0.4265030000000  0.5088510000000 1.0
C      1  0.4223550000000  0.5011250000000  0.5088510000000 1.0
C      1  0.4770760000000  0.5741920000000  0.5088510000000 1.0
C      1  0.5634770000000  0.5447280000000  0.5088510000000 1.0
C      1  0.5621550000000  0.4534510000000  0.5088510000000 1.0
C      1  0.5148590000000  0.4513310000000  0.5012640000000 1.0
C      1  0.4583050000000  0.4708290000000  0.5012640000000 1.0
C      1  0.4593720000000  0.5306400000000  0.5012640000000 1.0
C      1  0.5165860000000  0.5481080000000  0.5012640000000 1.0
C      1  0.5508780000000  0.4990920000000  0.5012640000000 1.0
C      1  0.4372930000000  0.4916240000000  0.4126400000000 1.0
C      1  0.4726560000000  0.5570500000000  0.4126400000000 1.0
C      1  0.5458080000000  0.5436350000000  0.4126400000000 1.0
C      1  0.5556550000000  0.4699180000000  0.4126400000000 1.0
C      1  0.4885890000000  0.4377740000000  0.4126400000000 1.0
C      1  0.4471640000000  0.5965470000000  0.4572100000000 1.0
C      1  0.5754940000000  0.5800850000000  0.4572100000000 1.0
C      1  0.5994940000000  0.4529490000000  0.4572090000000 1.0
C      1  0.4859970000000  0.3908360000000  0.4572090000000 1.0
C      1  0.3918510000000  0.4795840000000  0.4572090000000 1.0
C      1  0.5175980000000  0.4625210000000  0.3827290000000 1.0
C      1  0.4697930000000  0.4716820000000  0.3827290000000 1.0
C      1  0.4637340000000  0.5199780000000  0.3827290000000 1.0
C      1  0.5077930000000  0.5406650000000  0.3827290000000 1.0
C      1  0.5410830000000  0.5051550000000  0.3827290000000 1.0
C      1  0.4630140000000  0.5569880000000  0.4910670000000 1.0
C      1  0.5427690000000  0.5527860000000  0.4910670000000 1.0
C      1  0.5634190000000  0.4756360000000  0.4910670000000 1.0
C      1  0.4964260000000  0.4321560000000  0.4910660000000 1.0
C      1  0.4343720000000  0.4824340000000  0.4910670000000 1.0
C      1  0.4694040000000  0.5573770000000  0.4634190000000 1.0
C      1  0.5451140000000  0.5468290000000  0.4634190000000 1.0
C      1  0.5584780000000  0.4715650000000  0.4634190000000 1.0
C      1  0.4910280000000  0.4355970000000  0.4634190000000 1.0
C      1  0.4359760000000  0.4886320000000  0.4634190000000 1.0
C      1  0.5771150000000  0.4308250000000  0.5154300000000 1.0
C      1  0.4580410000000  0.4052830000000  0.5154300000000 1.0
C      1  0.3969530000000  0.5106360000000  0.5154300000000 1.0
C      1  0.4782720000000  0.6012900000000  0.5154310000000 1.0
C      1  0.5896190000000  0.5519650000000  0.5154310000000 1.0
C      1  0.5558410000000  0.5621750000000  0.6423950000000 1.0
C      1  0.5763880000000  0.4661040000000  0.6423950000000 1.0
C      1  0.4913690000000  0.4168760000000  0.6423940000000 1.0
C      1  0.4182780000000  0.4825210000000  0.6423940000000 1.0
C      1  0.4581240000000  0.5723210000000  0.6423950000000 1.0
END
