TITL C-3201377-4638-1383 254.689103748925 125000 -1042.91004315797 0 0 170 (C1) n - 1
REM
REM in /home/nfs/bkarasulu/CARBON/AIRSS/Generating-Clusters/LCBOP/Higher-Symm/SD-CG/FIRE-CG
REM
REM
REM
REM
REM
REM ./C.cell (b20cbc046b6831c77cfcea5457e17084)
REM AIRSS Version 0.9.1 bugfix July 2018 build 013d7b7c2542+ Fri, 06 Jul 2018 19:26:36 +0100
REM compiler GCC version 9.2.1 20190827 (Red Hat 9.2.1-1)
REM options -cpp -mtune=generic -march=x86-64 -g -O0 -fpre-include=/usr/include/finclude/math-vector-fortran.h
REM seed -1691141887 675732832 -523263809 -1489091856 -2110584369 -1171919637 1920066782 -1134943345 -990476929 -1657218702 464977563 -730129283 1836961461 1900390291 -841108063 -1513446202 1413914640 1347385858 57772879 1744068865 -1397494224 1116520535 -1086973489 869647146 -278454804 588179134 1544048361 1609471247 -2094538825 1908780779 2131747421 -1263095782 -1133814901
REM
CELL 1.54180   50.00000   50.00000   50.00000   90.00000   90.00000   90.00000
LATT -1
SFAC C  
C      1  0.4118030000000  0.4690700000000  0.5590220000000 1.0
C      1  0.5697410000000  0.4348130000000  0.5583090000000 1.0
C      1  0.5171660000000  0.5881570000000  0.5638730000000 1.0
C      1  0.4065250000000  0.4703410000000  0.5290530000000 1.0
C      1  0.5716730000000  0.4303720000000  0.5278620000000 1.0
C      1  0.5156800000000  0.5846260000000  0.5358260000000 1.0
C      1  0.5389730000000  0.5070880000000  0.6246100000000 1.0
C      1  0.4739360000000  0.5257020000000  0.6240030000000 1.0
C      1  0.4901060000000  0.4614470000000  0.6254750000000 1.0
C      1  0.6146360000000  0.5476800000000  0.4612240000000 1.0
C      1  0.4002850000000  0.5638580000000  0.4544350000000 1.0
C      1  0.4912450000000  0.3809390000000  0.4557450000000 1.0
C      1  0.4448560000000  0.4198540000000  0.4132180000000 1.0
C      1  0.6109600000000  0.4895450000000  0.4186830000000 1.0
C      1  0.4529900000000  0.5910810000000  0.4127000000000 1.0
C      1  0.4841560000000  0.5412970000000  0.4684920000000 1.0
C      1  0.4739720000000  0.4701480000000  0.4653640000000 1.0
C      1  0.5420620000000  0.4889990000000  0.4624200000000 1.0
C      1  0.5854950000000  0.4201920000000  0.4788740000000 1.0
C      1  0.5257710000000  0.6178000000000  0.4706390000000 1.0
C      1  0.3907700000000  0.4636110000000  0.4807260000000 1.0
C      1  0.5729370000000  0.6001690000000  0.4968780000000 1.0
C      1  0.3833850000000  0.5092040000000  0.5035860000000 1.0
C      1  0.5493700000000  0.3908680000000  0.5045000000000 1.0
C      1  0.4700530000000  0.5787020000000  0.3943250000000 1.0
C      1  0.4453730000000  0.4402740000000  0.3941260000000 1.0
C      1  0.5948530000000  0.4818950000000  0.3971800000000 1.0
C      1  0.5458690000000  0.5211030000000  0.5718710000000 1.0
C      1  0.4590120000000  0.5242040000000  0.5722400000000 1.0
C      1  0.4984990000000  0.4481720000000  0.5749210000000 1.0
C      1  0.4935380000000  0.5968020000000  0.5206600000000 1.0
C      1  0.4213440000000  0.4475920000000  0.5166320000000 1.0
C      1  0.5851310000000  0.4543750000000  0.5162050000000 1.0
C      1  0.4808070000000  0.3861480000000  0.4316760000000 1.0
C      1  0.6225330000000  0.5363300000000  0.4383550000000 1.0
C      1  0.4073260000000  0.5735930000000  0.4306530000000 1.0
C      1  0.5606780000000  0.5307880000000  0.5130850000000 1.0
C      1  0.4392630000000  0.5413900000000  0.5149120000000 1.0
C      1  0.4926200000000  0.4285530000000  0.5152410000000 1.0
C      1  0.4932480000000  0.6298840000000  0.5545400000000 1.0
C      1  0.4033660000000  0.4206480000000  0.5508110000000 1.0
C      1  0.6169210000000  0.4495290000000  0.5506440000000 1.0
C      1  0.5772250000000  0.5986490000000  0.5253660000000 1.0
C      1  0.3814380000000  0.5217550000000  0.5286570000000 1.0
C      1  0.5418180000000  0.3855870000000  0.5311350000000 1.0
C      1  0.4747100000000  0.4735710000000  0.5360750000000 1.0
C      1  0.5319490000000  0.4868450000000  0.5376590000000 1.0
C      1  0.4878720000000  0.5362890000000  0.5314980000000 1.0
C      1  0.4389690000000  0.4572380000000  0.4969910000000 1.0
C      1  0.5679130000000  0.4669390000000  0.4978340000000 1.0
C      1  0.4927550000000  0.5826350000000  0.4958610000000 1.0
C      1  0.5388480000000  0.4798320000000  0.6157830000000 1.0
C      1  0.4974820000000  0.5378760000000  0.6133670000000 1.0
C      1  0.4665610000000  0.4746880000000  0.6155510000000 1.0
C      1  0.5220310000000  0.5283180000000  0.6257640000000 1.0
C      1  0.4628650000000  0.5010670000000  0.6272990000000 1.0
C      1  0.5171540000000  0.4643350000000  0.6278440000000 1.0
C      1  0.5411010000000  0.4591260000000  0.5004700000000 1.0
C      1  0.5181430000000  0.5686070000000  0.4926930000000 1.0
C      1  0.4441300000000  0.4852180000000  0.4989560000000 1.0
C      1  0.6136860000000  0.4213470000000  0.4847330000000 1.0
C      1  0.5094520000000  0.6375650000000  0.4827370000000 1.0
C      1  0.3793720000000  0.4377180000000  0.4855550000000 1.0
C      1  0.4715770000000  0.5225250000000  0.4885320000000 1.0
C      1  0.4949230000000  0.4665950000000  0.4874080000000 1.0
C      1  0.5135650000000  0.5251410000000  0.5103900000000 1.0
C      1  0.5352590000000  0.4153860000000  0.4535640000000 1.0
C      1  0.5592340000000  0.5770320000000  0.4383420000000 1.0
C      1  0.3848210000000  0.5035890000000  0.4379760000000 1.0
C      1  0.5903240000000  0.5048210000000  0.4830430000000 1.0
C      1  0.4455510000000  0.5762270000000  0.4811040000000 1.0
C      1  0.4602930000000  0.4176230000000  0.4803990000000 1.0
C      1  0.5206440000000  0.4297440000000  0.5801120000000 1.0
C      1  0.5503940000000  0.5502820000000  0.5753900000000 1.0
C      1  0.4319400000000  0.5144780000000  0.5785950000000 1.0
C      1  0.5061430000000  0.6130920000000  0.5719180000000 1.0
C      1  0.4049680000000  0.4422060000000  0.5676890000000 1.0
C      1  0.5968420000000  0.4408530000000  0.5671690000000 1.0
C      1  0.5667350000000  0.5516640000000  0.4416810000000 1.0
C      1  0.3736290000000  0.5185350000000  0.4572690000000 1.0
C      1  0.5211600000000  0.4300980000000  0.4711650000000 1.0
C      1  0.5724270000000  0.5654250000000  0.5657500000000 1.0
C      1  0.4089640000000  0.5280640000000  0.5704120000000 1.0
C      1  0.5189100000000  0.4039060000000  0.5700350000000 1.0
C      1  0.5273650000000  0.5083280000000  0.4493320000000 1.0
C      1  0.4791810000000  0.5233390000000  0.4433130000000 1.0
C      1  0.4927260000000  0.4755910000000  0.4407590000000 1.0
C      1  0.4302430000000  0.4843300000000  0.5765990000000 1.0
C      1  0.5477310000000  0.4432330000000  0.5768360000000 1.0
C      1  0.5240880000000  0.5647750000000  0.5784670000000 1.0
C      1  0.4666710000000  0.5357250000000  0.5128750000000 1.0
C      1  0.4842200000000  0.4559130000000  0.5122220000000 1.0
C      1  0.5377410000000  0.5128500000000  0.5180780000000 1.0
C      1  0.4288810000000  0.4462330000000  0.4519350000000 1.0
C      1  0.5865050000000  0.4637430000000  0.4536080000000 1.0
C      1  0.4853000000000  0.5919410000000  0.4504190000000 1.0
C      1  0.4071380000000  0.4233660000000  0.5226790000000 1.0
C      1  0.6131080000000  0.4521960000000  0.5225180000000 1.0
C      1  0.4896340000000  0.6243530000000  0.5268020000000 1.0
C      1  0.4259360000000  0.5834050000000  0.4142290000000 1.0
C      1  0.4651620000000  0.4003850000000  0.4152950000000 1.0
C      1  0.6208310000000  0.5158300000000  0.4212490000000 1.0
C      1  0.3916420000000  0.4816270000000  0.5046210000000 1.0
C      1  0.5688140000000  0.4122290000000  0.5027790000000 1.0
C      1  0.5514050000000  0.6129510000000  0.4830540000000 1.0
C      1  0.4245860000000  0.3992430000000  0.4523160000000 1.0
C      1  0.6288330000000  0.4824660000000  0.4632070000000 1.0
C      1  0.4448570000000  0.6165540000000  0.4533770000000 1.0
C      1  0.4900940000000  0.5611110000000  0.3932490000000 1.0
C      1  0.4445650000000  0.4667750000000  0.3910400000000 1.0
C      1  0.5705510000000  0.4727360000000  0.3911310000000 1.0
C      1  0.4281940000000  0.5561050000000  0.4931150000000 1.0
C      1  0.4843700000000  0.4102640000000  0.4944450000000 1.0
C      1  0.5815570000000  0.5296430000000  0.4931320000000 1.0
C      1  0.5005690000000  0.3898050000000  0.4810600000000 1.0
C      1  0.5949040000000  0.5526020000000  0.4810080000000 1.0
C      1  0.4042900000000  0.5490530000000  0.4783930000000 1.0
C      1  0.5117030000000  0.4730040000000  0.5799880000000 1.0
C      1  0.5176250000000  0.5197860000000  0.5765340000000 1.0
C      1  0.4739960000000  0.5007530000000  0.5786590000000 1.0
C      1  0.5315400000000  0.4550880000000  0.5265410000000 1.0
C      1  0.5317900000000  0.5699380000000  0.5174900000000 1.0
C      1  0.4468100000000  0.4947590000000  0.5251270000000 1.0
C      1  0.4359000000000  0.6024570000000  0.4748750000000 1.0
C      1  0.4408550000000  0.3975510000000  0.4740430000000 1.0
C      1  0.6180610000000  0.4979470000000  0.4827940000000 1.0
C      1  0.5294790000000  0.5364380000000  0.4546530000000 1.0
C      1  0.4530390000000  0.5095160000000  0.4473420000000 1.0
C      1  0.5150300000000  0.4596160000000  0.4388470000000 1.0
C      1  0.3863010000000  0.5265750000000  0.4812410000000 1.0
C      1  0.5278770000000  0.3845830000000  0.4872400000000 1.0
C      1  0.5867030000000  0.5793230000000  0.4837420000000 1.0
C      1  0.5731060000000  0.5737800000000  0.5388820000000 1.0
C      1  0.4048360000000  0.5247190000000  0.5432080000000 1.0
C      1  0.5242410000000  0.4037370000000  0.5427800000000 1.0
C      1  0.5416820000000  0.4731490000000  0.5856660000000 1.0
C      1  0.5018040000000  0.5442520000000  0.5832210000000 1.0
C      1  0.4590470000000  0.4750100000000  0.5853840000000 1.0
C      1  0.4636550000000  0.6041220000000  0.4358690000000 1.0
C      1  0.4276590000000  0.4223800000000  0.4359990000000 1.0
C      1  0.6110310000000  0.4739230000000  0.4426600000000 1.0
C      1  0.5540790000000  0.4306350000000  0.4393270000000 1.0
C      1  0.5313730000000  0.5815600000000  0.4378370000000 1.0
C      1  0.4085380000000  0.4888700000000  0.4403520000000 1.0
C      1  0.6267400000000  0.4367310000000  0.5030390000000 1.0
C      1  0.4950150000000  0.6415370000000  0.5051600000000 1.0
C      1  0.3871740000000  0.4184320000000  0.5031520000000 1.0
C      1  0.4585640000000  0.4970660000000  0.4752960000000 1.0
C      1  0.5231330000000  0.4607830000000  0.4770540000000 1.0
C      1  0.5139880000000  0.5421270000000  0.4805320000000 1.0
C      1  0.5774120000000  0.4363550000000  0.4550590000000 1.0
C      1  0.5139020000000  0.5995310000000  0.4510990000000 1.0
C      1  0.4081650000000  0.4657490000000  0.4570870000000 1.0
C      1  0.4334840000000  0.4985350000000  0.4300820000000 1.0
C      1  0.5382450000000  0.4508320000000  0.4251710000000 1.0
C      1  0.5216280000000  0.5546250000000  0.4332960000000 1.0
C      1  0.4294010000000  0.5186950000000  0.5293440000000 1.0
C      1  0.5175130000000  0.4286830000000  0.5295000000000 1.0
C      1  0.5559630000000  0.5571910000000  0.5231010000000 1.0
C      1  0.5086700000000  0.5501230000000  0.4089590000000 1.0
C      1  0.4406470000000  0.4895670000000  0.4044140000000 1.0
C      1  0.5485940000000  0.4620400000000  0.4018130000000 1.0
C      1  0.4523440000000  0.4463270000000  0.4717050000000 1.0
C      1  0.5719610000000  0.4831930000000  0.4725990000000 1.0
C      1  0.4750900000000  0.5723020000000  0.4729910000000 1.0
C      1  0.4725380000000  0.4570820000000  0.5642670000000 1.0
C      1  0.5499970000000  0.4932150000000  0.5635880000000 1.0
C      1  0.4801810000000  0.5414760000000  0.5604440000000 1.0
C      1  0.5002820000000  0.5033900000000  0.4389350000000 1.0
C      1  0.5005060000000  0.4901380000000  0.5405540000000 1.0
END
