TITL C-3201376-6384-829 -8.19478813945147e-08 125000 -814.231799936665 0 0 135 (C1) n - 1
REM
REM in /home/nfs/bkarasulu/CARBON/AIRSS/Generating-Clusters/LCBOP/Higher-Symm/SD-CG/FIRE-CG
REM
REM
REM
REM
REM
REM ./C.cell (b20cbc046b6831c77cfcea5457e17084)
REM AIRSS Version 0.9.1 bugfix July 2018 build 013d7b7c2542+ Fri, 06 Jul 2018 19:26:36 +0100
REM compiler GCC version 9.2.1 20190827 (Red Hat 9.2.1-1)
REM options -cpp -mtune=generic -march=x86-64 -g -O0 -fpre-include=/usr/include/finclude/math-vector-fortran.h
REM seed -1387081657 2144313142 -144892712 1830363077 -1181695801 28708551 -1043158573 558722370 -20199624 -1614021632 1819239127 -1717324158 190875538 187929244 1608630934 -2038511396 1258519596 -726395639 1073112053 1615993516 768572228 2138216255 934485502 1628796933 1292864393 -1686258523 -940141749 1706926705 271965882 1323782038 -1496260119 111501987 -520357813
REM
CELL 1.54180   50.00000   50.00000   50.00000   90.00000   90.00000   90.00000
LATT -1
SFAC C  
C      1  0.5096810000000  0.6140700000000  0.5437660000000 1.0
C      1  0.4683160000000  0.5938210000000  0.4418330000000 1.0
C      1  0.4249320000000  0.5728120000000  0.4696260000000 1.0
C      1  0.5577300000000  0.5926020000000  0.5283290000000 1.0
C      1  0.4917290000000  0.5993130000000  0.4562700000000 1.0
C      1  0.4850660000000  0.6140950000000  0.5297330000000 1.0
C      1  0.4274010000000  0.4810770000000  0.5898810000000 1.0
C      1  0.5892920000000  0.4761870000000  0.4319490000000 1.0
C      1  0.4945310000000  0.4328220000000  0.5698050000000 1.0
C      1  0.5265550000000  0.4192390000000  0.4243040000000 1.0
C      1  0.4190810000000  0.5074080000000  0.5143880000000 1.0
C      1  0.5829160000000  0.5127210000000  0.4899980000000 1.0
C      1  0.4218700000000  0.5452990000000  0.4653230000000 1.0
C      1  0.5672700000000  0.5304290000000  0.5449490000000 1.0
C      1  0.4624000000000  0.4368160000000  0.4551790000000 1.0
C      1  0.5598270000000  0.4129230000000  0.5478470000000 1.0
C      1  0.5201410000000  0.5000680000000  0.5176910000000 1.0
C      1  0.4730590000000  0.4950650000000  0.4692480000000 1.0
C      1  0.4818680000000  0.4404370000000  0.4785490000000 1.0
C      1  0.5298180000000  0.4456890000000  0.4993690000000 1.0
C      1  0.4683260000000  0.5237450000000  0.4731600000000 1.0
C      1  0.5273870000000  0.5285960000000  0.5120290000000 1.0
C      1  0.5448920000000  0.4808470000000  0.4735190000000 1.0
C      1  0.4578920000000  0.4867610000000  0.5379980000000 1.0
C      1  0.4243030000000  0.4559700000000  0.5799000000000 1.0
C      1  0.5921000000000  0.4504680000000  0.4402690000000 1.0
C      1  0.4401090000000  0.5265380000000  0.4758340000000 1.0
C      1  0.5563430000000  0.5337570000000  0.5192710000000 1.0
C      1  0.5145820000000  0.5423150000000  0.5370500000000 1.0
C      1  0.4911940000000  0.5389120000000  0.4655540000000 1.0
C      1  0.4319240000000  0.5950370000000  0.4825430000000 1.0
C      1  0.5495960000000  0.5834090000000  0.5040130000000 1.0
C      1  0.4863720000000  0.5691150000000  0.5004010000000 1.0
C      1  0.4767180000000  0.5646310000000  0.5271120000000 1.0
C      1  0.5229160000000  0.5721450000000  0.5788410000000 1.0
C      1  0.4806630000000  0.5535530000000  0.4164630000000 1.0
C      1  0.5936720000000  0.4475840000000  0.5590000000000 1.0
C      1  0.3320350000000  0.5204360000000  0.4820050000000 1.0
C      1  0.5383950000000  0.4772500000000  0.5591250000000 1.0
C      1  0.3590280000000  0.5189210000000  0.4314290000000 1.0
C      1  0.4318470000000  0.5017250000000  0.4895120000000 1.0
C      1  0.5925690000000  0.4913430000000  0.5080740000000 1.0
C      1  0.5320670000000  0.5197220000000  0.4483830000000 1.0
C      1  0.4805240000000  0.5282270000000  0.5658740000000 1.0
C      1  0.4984470000000  0.4835330000000  0.6021450000000 1.0
C      1  0.5234170000000  0.4757840000000  0.4015280000000 1.0
C      1  0.5079000000000  0.4087210000000  0.3747100000000 1.0
C      1  0.5736400000000  0.4290890000000  0.5669210000000 1.0
C      1  0.5524360000000  0.4617090000000  0.4940100000000 1.0
C      1  0.4629780000000  0.4547890000000  0.4996240000000 1.0
C      1  0.4337260000000  0.4983420000000  0.5363620000000 1.0
C      1  0.5647720000000  0.5006420000000  0.4716370000000 1.0
C      1  0.4453670000000  0.4422810000000  0.5664620000000 1.0
C      1  0.5709440000000  0.4316450000000  0.4423350000000 1.0
C      1  0.5317130000000  0.4206620000000  0.5110070000000 1.0
C      1  0.4876250000000  0.4109280000000  0.4861480000000 1.0
C      1  0.4720810000000  0.4488310000000  0.5765920000000 1.0
C      1  0.5471440000000  0.4390420000000  0.4273680000000 1.0
C      1  0.5064750000000  0.5267810000000  0.5796640000000 1.0
C      1  0.5057990000000  0.5102360000000  0.4334220000000 1.0
C      1  0.5173190000000  0.4751590000000  0.4659240000000 1.0
C      1  0.4727790000000  0.4689440000000  0.5244670000000 1.0
C      1  0.5574640000000  0.4908610000000  0.5722950000000 1.0
C      1  0.3718290000000  0.5262120000000  0.4544670000000 1.0
C      1  0.6185840000000  0.3517940000000  0.4926060000000 1.0
C      1  0.3800220000000  0.4020640000000  0.5044780000000 1.0
C      1  0.4492560000000  0.4281600000000  0.5121230000000 1.0
C      1  0.5617110000000  0.3962540000000  0.4834020000000 1.0
C      1  0.4625010000000  0.5733830000000  0.4252610000000 1.0
C      1  0.5102020000000  0.5947290000000  0.5647250000000 1.0
C      1  0.4408560000000  0.4318500000000  0.5405870000000 1.0
C      1  0.5710820000000  0.4100760000000  0.4605220000000 1.0
C      1  0.5141550000000  0.5819940000000  0.3945950000000 1.0
C      1  0.4813140000000  0.5807480000000  0.5983130000000 1.0
C      1  0.6085390000000  0.4889360000000  0.5312220000000 1.0
C      1  0.3751930000000  0.5249690000000  0.5028410000000 1.0
C      1  0.4400360000000  0.5930200000000  0.5311260000000 1.0
C      1  0.5379300000000  0.5918590000000  0.4604660000000 1.0
C      1  0.5995390000000  0.3686200000000  0.4983820000000 1.0
C      1  0.4033980000000  0.4112510000000  0.4975320000000 1.0
C      1  0.5792040000000  0.3867900000000  0.5040760000000 1.0
C      1  0.4284640000000  0.4213590000000  0.4910220000000 1.0
C      1  0.4373890000000  0.4263850000000  0.4643760000000 1.0
C      1  0.5750500000000  0.3962830000000  0.5304500000000 1.0
C      1  0.5162780000000  0.4046690000000  0.4463130000000 1.0
C      1  0.5062560000000  0.4153440000000  0.5508570000000 1.0
C      1  0.5114670000000  0.4001400000000  0.4738300000000 1.0
C      1  0.4871070000000  0.4015240000000  0.5346180000000 1.0
C      1  0.4747000000000  0.4743780000000  0.5902640000000 1.0
C      1  0.5452020000000  0.4662340000000  0.4166120000000 1.0
C      1  0.4853600000000  0.5415700000000  0.5405160000000 1.0
C      1  0.5193400000000  0.5319230000000  0.4761260000000 1.0
C      1  0.4260570000000  0.5615230000000  0.5663960000000 1.0
C      1  0.5717560000000  0.5617570000000  0.4375790000000 1.0
C      1  0.5236840000000  0.4821650000000  0.5373220000000 1.0
C      1  0.4964940000000  0.4899190000000  0.4540410000000 1.0
C      1  0.4221010000000  0.5721890000000  0.5402880000000 1.0
C      1  0.5611360000000  0.5747270000000  0.4598790000000 1.0
C      1  0.5676380000000  0.4263900000000  0.5935380000000 1.0
C      1  0.5171190000000  0.4133630000000  0.3986390000000 1.0
C      1  0.3591000000000  0.5237020000000  0.4799100000000 1.0
C      1  0.6068840000000  0.4690560000000  0.5496410000000 1.0
C      1  0.5737090000000  0.5395730000000  0.4974310000000 1.0
C      1  0.3999770000000  0.5287170000000  0.5153050000000 1.0
C      1  0.4076210000000  0.5547090000000  0.5235240000000 1.0
C      1  0.5670720000000  0.5656420000000  0.4869820000000 1.0
C      1  0.5174310000000  0.5991580000000  0.4424680000000 1.0
C      1  0.4680170000000  0.5898640000000  0.5431650000000 1.0
C      1  0.4971260000000  0.5610520000000  0.3947230000000 1.0
C      1  0.5072100000000  0.5720120000000  0.6039230000000 1.0
C      1  0.5207450000000  0.5985700000000  0.4147110000000 1.0
C      1  0.4800510000000  0.5903930000000  0.5710670000000 1.0
C      1  0.4679870000000  0.4428140000000  0.4292770000000 1.0
C      1  0.5326290000000  0.4168560000000  0.5391830000000 1.0
C      1  0.5708870000000  0.5374770000000  0.4261840000000 1.0
C      1  0.4364810000000  0.5406200000000  0.5796480000000 1.0
C      1  0.4520520000000  0.4800490000000  0.4838100000000 1.0
C      1  0.5776380000000  0.4668270000000  0.5044040000000 1.0
C      1  0.5557970000000  0.5143800000000  0.4319010000000 1.0
C      1  0.4565450000000  0.5207420000000  0.5792580000000 1.0
C      1  0.5112130000000  0.5069070000000  0.5985410000000 1.0
C      1  0.5086120000000  0.4976430000000  0.4071870000000 1.0
C      1  0.4752480000000  0.6135660000000  0.5025260000000 1.0
C      1  0.4946910000000  0.5952400000000  0.4867270000000 1.0
C      1  0.4464350000000  0.6048360000000  0.5044400000000 1.0
C      1  0.5270720000000  0.5934840000000  0.4883970000000 1.0
C      1  0.4528080000000  0.4937690000000  0.5888470000000 1.0
C      1  0.5640130000000  0.4871680000000  0.4248530000000 1.0
C      1  0.4729730000000  0.4079140000000  0.5110110000000 1.0
C      1  0.5344490000000  0.4004750000000  0.4910540000000 1.0
C      1  0.5233090000000  0.5465860000000  0.5656330000000 1.0
C      1  0.4905990000000  0.5360620000000  0.4359500000000 1.0
C      1  0.5693380000000  0.5141510000000  0.5660990000000 1.0
C      1  0.3980550000000  0.5361170000000  0.4537100000000 1.0
C      1  0.5087470000000  0.4527890000000  0.4810740000000 1.0
END
