TITL C-3201373-1215-2084 -0.0960191409411348 125000 -596.763494423572 0 0 98 (C1) n - 1
REM
REM in /home/nfs/bkarasulu/CARBON/AIRSS/Generating-Clusters/LCBOP/Higher-Symm/SD-CG/FIRE-CG
REM
REM
REM
REM
REM
REM ./C.cell (b20cbc046b6831c77cfcea5457e17084)
REM AIRSS Version 0.9.1 bugfix July 2018 build 013d7b7c2542+ Fri, 06 Jul 2018 19:26:36 +0100
REM compiler GCC version 9.2.1 20190827 (Red Hat 9.2.1-1)
REM options -cpp -mtune=generic -march=x86-64 -g -O0 -fpre-include=/usr/include/finclude/math-vector-fortran.h
REM seed 1981976029 -48357701 172550596 -1255543935 1401141299 1543108634 1173726934 -1008386152 -1147452086 1302453170 924031789 1405180825 -1316005819 39595859 1377670562 123135780 -1447871888 374512342 1458368771 1025841070 809927417 -1639113281 1934641139 -65986542 -1499629638 -1139845405 1228005129 1410871111 -545559128 -703781725 -1310891544 1977959361 -947739186
REM
CELL 1.54180   50.00000   50.00000   50.00000   90.00000   90.00000   90.00000
LATT -1
SFAC C  
C      1  0.5174420000000  0.5480060000000  0.5825740000000 1.0
C      1  0.5328890000000  0.3634960000000  0.5765800000000 1.0
C      1  0.4999440000000  0.4124750000000  0.4993070000000 1.0
C      1  0.4935410000000  0.4904760000000  0.4053670000000 1.0
C      1  0.4785450000000  0.6189750000000  0.4002160000000 1.0
C      1  0.5047210000000  0.5976340000000  0.4939200000000 1.0
C      1  0.5251420000000  0.4654050000000  0.5471000000000 1.0
C      1  0.4479100000000  0.4288170000000  0.5292840000000 1.0
C      1  0.5466150000000  0.4669110000000  0.4294750000000 1.0
C      1  0.4425840000000  0.5305040000000  0.4357720000000 1.0
C      1  0.5478080000000  0.5658800000000  0.5193530000000 1.0
C      1  0.4648390000000  0.5507960000000  0.5707530000000 1.0
C      1  0.5582340000000  0.4721470000000  0.5888330000000 1.0
C      1  0.4281380000000  0.4595940000000  0.5715610000000 1.0
C      1  0.5775290000000  0.4475670000000  0.4707480000000 1.0
C      1  0.4494110000000  0.4765170000000  0.4264270000000 1.0
C      1  0.5651010000000  0.5573470000000  0.4583790000000 1.0
C      1  0.4366220000000  0.5575220000000  0.5175550000000 1.0
C      1  0.4945050000000  0.4558160000000  0.4397650000000 1.0
C      1  0.5507870000000  0.5207060000000  0.4257230000000 1.0
C      1  0.4988720000000  0.5844820000000  0.4697580000000 1.0
C      1  0.5130830000000  0.5644400000000  0.5602360000000 1.0
C      1  0.4578860000000  0.5006230000000  0.5714540000000 1.0
C      1  0.4946280000000  0.4147090000000  0.5275190000000 1.0
C      1  0.5341010000000  0.4978490000000  0.4633390000000 1.0
C      1  0.4659170000000  0.5140830000000  0.4774120000000 1.0
C      1  0.5340780000000  0.5192560000000  0.5065720000000 1.0
C      1  0.4684330000000  0.5016220000000  0.5259200000000 1.0
C      1  0.5397500000000  0.4674490000000  0.5012200000000 1.0
C      1  0.4578990000000  0.4657100000000  0.4978230000000 1.0
C      1  0.5677140000000  0.4482050000000  0.4237720000000 1.0
C      1  0.4296930000000  0.5187400000000  0.4132490000000 1.0
C      1  0.5564230000000  0.5842690000000  0.4990240000000 1.0
C      1  0.4390390000000  0.5618130000000  0.5668340000000 1.0
C      1  0.5261420000000  0.4453300000000  0.5674220000000 1.0
C      1  0.4309030000000  0.4171800000000  0.5491950000000 1.0
C      1  0.5095570000000  0.4615340000000  0.5005190000000 1.0
C      1  0.4841190000000  0.4563840000000  0.4951090000000 1.0
C      1  0.5118570000000  0.5132470000000  0.4560590000000 1.0
C      1  0.4828010000000  0.5390640000000  0.4919480000000 1.0
C      1  0.5067930000000  0.5230790000000  0.5121000000000 1.0
C      1  0.4959200000000  0.5053730000000  0.5313200000000 1.0
C      1  0.4238800000000  0.5149700000000  0.5340910000000 1.0
C      1  0.5728240000000  0.4705520000000  0.5418100000000 1.0
C      1  0.4156350000000  0.4640830000000  0.5239850000000 1.0
C      1  0.5821270000000  0.4924230000000  0.4539560000000 1.0
C      1  0.4227930000000  0.4944390000000  0.4629530000000 1.0
C      1  0.5790750000000  0.5343900000000  0.4992000000000 1.0
C      1  0.5299980000000  0.4361980000000  0.4648760000000 1.0
C      1  0.4836450000000  0.5071460000000  0.4506960000000 1.0
C      1  0.5184490000000  0.5411400000000  0.4551310000000 1.0
C      1  0.4803650000000  0.5736700000000  0.5282000000000 1.0
C      1  0.5169440000000  0.5013960000000  0.5775140000000 1.0
C      1  0.4748960000000  0.4524460000000  0.5606460000000 1.0
C      1  0.4748410000000  0.4323410000000  0.5392620000000 1.0
C      1  0.5236550000000  0.4542020000000  0.4416560000000 1.0
C      1  0.4714050000000  0.5296580000000  0.4328850000000 1.0
C      1  0.5002460000000  0.5562190000000  0.4708040000000 1.0
C      1  0.4843440000000  0.5647420000000  0.5549690000000 1.0
C      1  0.5114000000000  0.4904630000000  0.5513600000000 1.0
C      1  0.4647050000000  0.5578090000000  0.5100960000000 1.0
C      1  0.5405110000000  0.4941570000000  0.5916370000000 1.0
C      1  0.4555130000000  0.4707080000000  0.5733560000000 1.0
C      1  0.5509160000000  0.4465500000000  0.4819990000000 1.0
C      1  0.4795200000000  0.4810080000000  0.4314740000000 1.0
C      1  0.5448830000000  0.5438880000000  0.4431970000000 1.0
C      1  0.5478260000000  0.4661190000000  0.5294240000000 1.0
C      1  0.4383990000000  0.4509280000000  0.5128540000000 1.0
C      1  0.5550030000000  0.4944220000000  0.4414890000000 1.0
C      1  0.4383200000000  0.5187230000000  0.4628020000000 1.0
C      1  0.5542950000000  0.5383580000000  0.5129030000000 1.0
C      1  0.4482660000000  0.5059730000000  0.5447450000000 1.0
C      1  0.5598520000000  0.5817000000000  0.4721660000000 1.0
C      1  0.4304270000000  0.5707140000000  0.5424530000000 1.0
C      1  0.5438250000000  0.4474380000000  0.5881020000000 1.0
C      1  0.4257410000000  0.4309700000000  0.5723790000000 1.0
C      1  0.5801390000000  0.4355290000000  0.4447220000000 1.0
C      1  0.4370460000000  0.4931870000000  0.4063870000000 1.0
C      1  0.5056980000000  0.4214180000000  0.4729360000000 1.0
C      1  0.5138940000000  0.5044210000000  0.3949620000000 1.0
C      1  0.4852360000000  0.6088590000000  0.4232920000000 1.0
C      1  0.5043560000000  0.5867650000000  0.5195330000000 1.0
C      1  0.5021550000000  0.5238010000000  0.5854980000000 1.0
C      1  0.5203220000000  0.3796300000000  0.5604130000000 1.0
C      1  0.5366240000000  0.5173060000000  0.4013660000000 1.0
C      1  0.4919620000000  0.5981320000000  0.4465620000000 1.0
C      1  0.5259720000000  0.5743810000000  0.5355880000000 1.0
C      1  0.4733210000000  0.5243690000000  0.5808590000000 1.0
C      1  0.5079510000000  0.3968030000000  0.5444770000000 1.0
C      1  0.4855360000000  0.4320420000000  0.4541570000000 1.0
C      1  0.4319170000000  0.4727760000000  0.4488260000000 1.0
C      1  0.5834610000000  0.5411890000000  0.4732000000000 1.0
C      1  0.4211000000000  0.5341080000000  0.5151490000000 1.0
C      1  0.5779540000000  0.4742240000000  0.5683000000000 1.0
C      1  0.4116920000000  0.4699460000000  0.5504020000000 1.0
C      1  0.5903540000000  0.4730110000000  0.4712650000000 1.0
C      1  0.4608280000000  0.4940160000000  0.4996720000000 1.0
C      1  0.5400460000000  0.4957050000000  0.4908590000000 1.0
END
