TITL C-3201379-3821-612 4.85338822155757 125000 -298.18420324879 0 0 50 (C1) n - 1
REM
REM in /home/nfs/bkarasulu/CARBON/AIRSS/Generating-Clusters/LCBOP/Higher-Symm/SD-CG/FIRE-CG
REM
REM
REM
REM
REM
REM ./C.cell (b20cbc046b6831c77cfcea5457e17084)
REM AIRSS Version 0.9.1 bugfix July 2018 build 013d7b7c2542+ Fri, 06 Jul 2018 19:26:36 +0100
REM compiler GCC version 9.2.1 20190827 (Red Hat 9.2.1-1)
REM options -cpp -mtune=generic -march=x86-64 -g -O0 -fpre-include=/usr/include/finclude/math-vector-fortran.h
REM seed -672664531 -960932236 1952771018 936998186 1156413354 1998243214 -1280281295 -1317144456 -1014573402 -2005116075 7453493 -1714333183 2020524386 867853137 -447997872 410879812 306506352 300500898 422024665 614591320 575036855 1338254004 1600494014 -1533302479 -519239362 466967550 -1269440204 -1652938089 2008805242 655751398 1711473498 481292165 -170644834
REM
CELL 1.54180   50.00000   50.00000   50.00000   90.00000   90.00000   90.00000
LATT -1
SFAC C  
C      1  0.5352230000000  0.4620180000000  0.4968270000000 1.0
C      1  0.5076470000000  0.4309410000000  0.5765000000000 1.0
C      1  0.4363660000000  0.4895350000000  0.4030200000000 1.0
C      1  0.5470500000000  0.4035540000000  0.5669780000000 1.0
C      1  0.4552440000000  0.5271240000000  0.4270510000000 1.0
C      1  0.5251960000000  0.4285670000000  0.5309510000000 1.0
C      1  0.5662570000000  0.6276960000000  0.4462600000000 1.0
C      1  0.4131830000000  0.4915050000000  0.4641200000000 1.0
C      1  0.4769330000000  0.5420220000000  0.4302290000000 1.0
C      1  0.5036780000000  0.4195460000000  0.5153270000000 1.0
C      1  0.4790520000000  0.4221770000000  0.5055680000000 1.0
C      1  0.5004520000000  0.5528450000000  0.4359790000000 1.0
C      1  0.4805480000000  0.4245900000000  0.5728700000000 1.0
C      1  0.5358890000000  0.4833540000000  0.4810620000000 1.0
C      1  0.5425310000000  0.4482080000000  0.5201460000000 1.0
C      1  0.5133560000000  0.4508210000000  0.5954690000000 1.0
C      1  0.4151290000000  0.4793640000000  0.4875860000000 1.0
C      1  0.5668400000000  0.6031970000000  0.4563100000000 1.0
C      1  0.5660350000000  0.4568480000000  0.5327580000000 1.0
C      1  0.5020760000000  0.4713450000000  0.6083010000000 1.0
C      1  0.4799580000000  0.4860200000000  0.6109320000000 1.0
C      1  0.5841940000000  0.4763320000000  0.5336620000000 1.0
C      1  0.5667650000000  0.5775110000000  0.4663950000000 1.0
C      1  0.4213290000000  0.4715880000000  0.5133420000000 1.0
C      1  0.5559170000000  0.5324260000000  0.4749900000000 1.0
C      1  0.4403160000000  0.4499790000000  0.5507410000000 1.0
C      1  0.5245240000000  0.5581550000000  0.4457510000000 1.0
C      1  0.4548510000000  0.4332760000000  0.5067080000000 1.0
C      1  0.4359780000000  0.4866030000000  0.5844580000000 1.0
C      1  0.5912990000000  0.5214440000000  0.5093530000000 1.0
C      1  0.4349560000000  0.5082000000000  0.4237540000000 1.0
C      1  0.5270120000000  0.4209150000000  0.5583380000000 1.0
C      1  0.4374220000000  0.4719760000000  0.3837910000000 1.0
C      1  0.5663430000000  0.3878880000000  0.5748190000000 1.0
C      1  0.5649410000000  0.6766870000000  0.4260650000000 1.0
C      1  0.3905470000000  0.5239640000000  0.4361680000000 1.0
C      1  0.5930110000000  0.4997750000000  0.5246590000000 1.0
C      1  0.4552740000000  0.4911370000000  0.6022660000000 1.0
C      1  0.4564000000000  0.4325360000000  0.5651250000000 1.0
C      1  0.5433790000000  0.5077510000000  0.4738740000000 1.0
C      1  0.5794960000000  0.5385140000000  0.4910570000000 1.0
C      1  0.4282530000000  0.4745620000000  0.5607060000000 1.0
C      1  0.4377470000000  0.4492110000000  0.5217690000000 1.0
C      1  0.5477510000000  0.5562920000000  0.4607290000000 1.0
C      1  0.4127540000000  0.5078790000000  0.4414890000000 1.0
C      1  0.5656000000000  0.6521880000000  0.4361640000000 1.0
C      1  0.4153170000000  0.4860770000000  0.5376550000000 1.0
C      1  0.5856870000000  0.5659580000000  0.4848850000000 1.0
C      1  0.3700040000000  0.5391150000000  0.4309130000000 1.0
C      1  0.5642930000000  0.7007820000000  0.4161320000000 1.0
END
