TITL C-3201375-1262-338 -2.01610565326341e-07 125000 -39.8324943951629 0 0 7 (D7h) n - 1
REM
REM in /home/nfs/bkarasulu/CARBON/AIRSS/Generating-Clusters/LCBOP/Higher-Symm/SD-CG/FIRE-CG
REM
REM
REM
REM
REM
REM ./C.cell (b20cbc046b6831c77cfcea5457e17084)
REM AIRSS Version 0.9.1 bugfix July 2018 build 013d7b7c2542+ Fri, 06 Jul 2018 19:26:36 +0100
REM compiler GCC version 9.2.1 20190827 (Red Hat 9.2.1-1)
REM options -cpp -mtune=generic -march=x86-64 -g -O0 -fpre-include=/usr/include/finclude/math-vector-fortran.h
REM seed -1389706844 1082309556 1756044566 -1015488425 32349734 -486374359 -222355246 -357615926 -56983454 1494079286 -1334317423 -2079858895 1184045795 -310580476 -1631994174 989206382 784397691 467228260 1081163364 414445714 2100045944 118810452 1391384256 -1843398780 -1520630628 -477614337 -1721220191 1340024847 -1140221407 -826030372 1424967651 784240615 894074680
REM
CELL 1.54180   50.00000   50.00000   50.00000   90.00000   90.00000   90.00000
LATT -1
SFAC C  
C      1  0.4879880000000  0.5288270000000  0.5000000000000 1.0
C      1  0.5150490000000  0.5273650000000  0.5000000000000 1.0
C      1  0.5307770000000  0.5052960000000  0.5000000000000 1.0
C      1  0.5233300000000  0.4792390000000  0.5000000000000 1.0
C      1  0.4983150000000  0.4688160000000  0.5000000000000 1.0
C      1  0.4745680000000  0.4818750000000  0.5000000000000 1.0
C      1  0.4699730000000  0.5085820000000  0.5000000000000 1.0
END
