TITL C-3201379-3821-697 3.65498124321294 125000 -1107.07777858454 0 0 179 (C1) n - 1
REM
REM in /home/nfs/bkarasulu/CARBON/AIRSS/Generating-Clusters/LCBOP/Higher-Symm/SD-CG/FIRE-CG
REM
REM
REM
REM
REM
REM ./C.cell (b20cbc046b6831c77cfcea5457e17084)
REM AIRSS Version 0.9.1 bugfix July 2018 build 013d7b7c2542+ Fri, 06 Jul 2018 19:26:36 +0100
REM compiler GCC version 9.2.1 20190827 (Red Hat 9.2.1-1)
REM options -cpp -mtune=generic -march=x86-64 -g -O0 -fpre-include=/usr/include/finclude/math-vector-fortran.h
REM seed -2020685877 1771265667 469300546 -1698376195 -819558012 1223292310 -86881985 -766677518 -1229802665 1811912299 -1286242173 -160003024 204647774 -1171000932 633958334 -74251002 -1055932713 293581195 -1556793021 -178447804 -1142204148 1130468760 -1316634471 -1714023127 -1616196859 75246158 42791223 -220821217 1714689341 -2059401442 872125016 -1867271971 -1382340954
REM
CELL 1.54180   50.00000   50.00000   50.00000   90.00000   90.00000   90.00000
LATT -1
SFAC C  
C      1  0.4141880000000  0.5303060000000  0.5385530000000 1.0
C      1  0.5752970000000  0.5343720000000  0.5558850000000 1.0
C      1  0.4764850000000  0.4598740000000  0.4348280000000 1.0
C      1  0.4736160000000  0.3541660000000  0.4675960000000 1.0
C      1  0.5023460000000  0.4927760000000  0.3969860000000 1.0
C      1  0.4773720000000  0.5075020000000  0.4443200000000 1.0
C      1  0.5681230000000  0.4894120000000  0.5220790000000 1.0
C      1  0.4212970000000  0.5050110000000  0.5955510000000 1.0
C      1  0.4776910000000  0.4366760000000  0.4999760000000 1.0
C      1  0.4558150000000  0.5354020000000  0.4780230000000 1.0
C      1  0.5353070000000  0.6148270000000  0.4473600000000 1.0
C      1  0.3946830000000  0.5490960000000  0.5294620000000 1.0
C      1  0.5070980000000  0.5987770000000  0.5487780000000 1.0
C      1  0.5842900000000  0.4826670000000  0.4471570000000 1.0
C      1  0.5209270000000  0.6010980000000  0.5239480000000 1.0
C      1  0.4289710000000  0.6228770000000  0.5559760000000 1.0
C      1  0.4915140000000  0.5849060000000  0.5685150000000 1.0
C      1  0.4143750000000  0.4578870000000  0.5854290000000 1.0
C      1  0.5164090000000  0.4469680000000  0.3920000000000 1.0
C      1  0.4096100000000  0.5499860000000  0.4800240000000 1.0
C      1  0.6048160000000  0.4261710000000  0.5321530000000 1.0
C      1  0.4623090000000  0.5815510000000  0.5667930000000 1.0
C      1  0.4535120000000  0.4933650000000  0.5474740000000 1.0
C      1  0.5597980000000  0.3886680000000  0.5815410000000 1.0
C      1  0.5716370000000  0.5836530000000  0.4598480000000 1.0
C      1  0.4511390000000  0.4490020000000  0.5025500000000 1.0
C      1  0.4233520000000  0.5104810000000  0.4109340000000 1.0
C      1  0.5379840000000  0.5798180000000  0.5134320000000 1.0
C      1  0.5242110000000  0.5559470000000  0.5021220000000 1.0
C      1  0.5239050000000  0.5046960000000  0.4635660000000 1.0
C      1  0.5033420000000  0.5083940000000  0.6229450000000 1.0
C      1  0.5180090000000  0.4212950000000  0.3819590000000 1.0
C      1  0.5393440000000  0.4442710000000  0.5987200000000 1.0
C      1  0.4006480000000  0.5810040000000  0.4204900000000 1.0
C      1  0.5538060000000  0.5613530000000  0.4615120000000 1.0
C      1  0.4957800000000  0.4867820000000  0.5179060000000 1.0
C      1  0.5204200000000  0.4235590000000  0.4807770000000 1.0
C      1  0.4640640000000  0.5204960000000  0.5013060000000 1.0
C      1  0.5155360000000  0.4901200000000  0.6401090000000 1.0
C      1  0.5300800000000  0.4581820000000  0.4145080000000 1.0
C      1  0.5572120000000  0.5519900000000  0.5707220000000 1.0
C      1  0.4827840000000  0.3621590000000  0.4927520000000 1.0
C      1  0.4923330000000  0.5733470000000  0.4221860000000 1.0
C      1  0.4950140000000  0.4357310000000  0.4761080000000 1.0
C      1  0.4731480000000  0.5992880000000  0.4917510000000 1.0
C      1  0.4459990000000  0.4667600000000  0.3984610000000 1.0
C      1  0.5281490000000  0.3992620000000  0.5396840000000 1.0
C      1  0.4176840000000  0.5364020000000  0.4125970000000 1.0
C      1  0.4218000000000  0.5627820000000  0.4213560000000 1.0
C      1  0.5213180000000  0.4508550000000  0.5778740000000 1.0
C      1  0.4677530000000  0.4909660000000  0.5958050000000 1.0
C      1  0.5704160000000  0.3495860000000  0.5211150000000 1.0
C      1  0.4874680000000  0.3787210000000  0.4221600000000 1.0
C      1  0.4866490000000  0.5493860000000  0.6021850000000 1.0
C      1  0.4996060000000  0.3700800000000  0.5116480000000 1.0
C      1  0.4953390000000  0.5035620000000  0.4672560000000 1.0
C      1  0.4693030000000  0.4240030000000  0.5461520000000 1.0
C      1  0.5507000000000  0.6231030000000  0.4714980000000 1.0
C      1  0.5195050000000  0.5392990000000  0.3983440000000 1.0
C      1  0.5156480000000  0.4725090000000  0.5602130000000 1.0
C      1  0.5153630000000  0.6208420000000  0.5034480000000 1.0
C      1  0.5007050000000  0.3476700000000  0.3884560000000 1.0
C      1  0.5172070000000  0.4241870000000  0.5315380000000 1.0
C      1  0.6011430000000  0.5220990000000  0.4651350000000 1.0
C      1  0.5611040000000  0.4629100000000  0.4503590000000 1.0
C      1  0.4435530000000  0.3183440000000  0.4807990000000 1.0
C      1  0.6205210000000  0.4908380000000  0.4915780000000 1.0
C      1  0.5627810000000  0.4931740000000  0.5715080000000 1.0
C      1  0.4786450000000  0.5518810000000  0.4724730000000 1.0
C      1  0.5621250000000  0.5084190000000  0.5455890000000 1.0
C      1  0.4507320000000  0.5545690000000  0.5684690000000 1.0
C      1  0.5456630000000  0.5278120000000  0.3977220000000 1.0
C      1  0.4886690000000  0.4266130000000  0.5254910000000 1.0
C      1  0.5805210000000  0.5079040000000  0.4287210000000 1.0
C      1  0.6097900000000  0.5591440000000  0.5129450000000 1.0
C      1  0.5336410000000  0.5026310000000  0.4362390000000 1.0
C      1  0.3810160000000  0.4887230000000  0.5698650000000 1.0
C      1  0.5239030000000  0.3755590000000  0.5242550000000 1.0
C      1  0.5354760000000  0.5200850000000  0.5357530000000 1.0
C      1  0.4400080000000  0.5401890000000  0.5450230000000 1.0
C      1  0.5261380000000  0.3925370000000  0.6476900000000 1.0
C      1  0.4388750000000  0.4880780000000  0.4159650000000 1.0
C      1  0.4976310000000  0.5443710000000  0.5462240000000 1.0
C      1  0.4285090000000  0.5308900000000  0.4716660000000 1.0
C      1  0.5193920000000  0.5642790000000  0.4154080000000 1.0
C      1  0.4822700000000  0.3107780000000  0.4175780000000 1.0
C      1  0.4604870000000  0.4641960000000  0.5913330000000 1.0
C      1  0.3854470000000  0.5997660000000  0.4317160000000 1.0
C      1  0.5548180000000  0.5143560000000  0.4208080000000 1.0
C      1  0.5167940000000  0.4711390000000  0.5306510000000 1.0
C      1  0.4455950000000  0.6036990000000  0.5635720000000 1.0
C      1  0.5410070000000  0.5013110000000  0.5876720000000 1.0
C      1  0.4973030000000  0.6121860000000  0.4829820000000 1.0
C      1  0.5804530000000  0.5238780000000  0.4849500000000 1.0
C      1  0.5136230000000  0.5224880000000  0.5539150000000 1.0
C      1  0.4797900000000  0.5565530000000  0.5275810000000 1.0
C      1  0.4935750000000  0.3233510000000  0.3969430000000 1.0
C      1  0.5961550000000  0.3558980000000  0.5234600000000 1.0
C      1  0.5636010000000  0.4609360000000  0.5263410000000 1.0
C      1  0.5307200000000  0.4415420000000  0.6256760000000 1.0
C      1  0.4983840000000  0.4501790000000  0.4514780000000 1.0
C      1  0.5282870000000  0.4163880000000  0.6374090000000 1.0
C      1  0.4745740000000  0.5810620000000  0.5137370000000 1.0
C      1  0.4032840000000  0.4841360000000  0.5871200000000 1.0
C      1  0.4787530000000  0.5269300000000  0.4224480000000 1.0
C      1  0.5030790000000  0.5579260000000  0.4827460000000 1.0
C      1  0.5657730000000  0.5016710000000  0.4961130000000 1.0
C      1  0.5952230000000  0.5315880000000  0.4383050000000 1.0
C      1  0.5895610000000  0.5769940000000  0.5147800000000 1.0
C      1  0.5381460000000  0.5086820000000  0.4882830000000 1.0
C      1  0.4473300000000  0.5696930000000  0.4314400000000 1.0
C      1  0.4625050000000  0.3281760000000  0.4637140000000 1.0
C      1  0.4028100000000  0.6207580000000  0.4727420000000 1.0
C      1  0.3926600000000  0.4968850000000  0.4755330000000 1.0
C      1  0.5450170000000  0.3573440000000  0.5213490000000 1.0
C      1  0.3834250000000  0.4926190000000  0.5419950000000 1.0
C      1  0.4935850000000  0.4653910000000  0.3892730000000 1.0
C      1  0.5676220000000  0.6019730000000  0.4803570000000 1.0
C      1  0.6032000000000  0.5335620000000  0.5508070000000 1.0
C      1  0.4379210000000  0.4554560000000  0.5279490000000 1.0
C      1  0.4865810000000  0.5966100000000  0.4381420000000 1.0
C      1  0.4095520000000  0.5019040000000  0.5353850000000 1.0
C      1  0.3675100000000  0.4880740000000  0.5193490000000 1.0
C      1  0.4594370000000  0.5367560000000  0.5243120000000 1.0
C      1  0.5853940000000  0.4441950000000  0.5314620000000 1.0
C      1  0.5340630000000  0.4521880000000  0.4417360000000 1.0
C      1  0.4580630000000  0.5928200000000  0.4463640000000 1.0
C      1  0.4394650000000  0.4600620000000  0.4797580000000 1.0
C      1  0.5635490000000  0.5450410000000  0.4809920000000 1.0
C      1  0.5365730000000  0.6361020000000  0.4924120000000 1.0
C      1  0.3735010000000  0.4906020000000  0.4931820000000 1.0
C      1  0.4712050000000  0.3131140000000  0.4416820000000 1.0
C      1  0.5907760000000  0.5590790000000  0.4268200000000 1.0
C      1  0.5437900000000  0.3970600000000  0.5627440000000 1.0
C      1  0.5652470000000  0.5884540000000  0.5059090000000 1.0
C      1  0.5050530000000  0.5662470000000  0.5864110000000 1.0
C      1  0.4464570000000  0.4399610000000  0.5512030000000 1.0
C      1  0.4968340000000  0.5206360000000  0.4005220000000 1.0
C      1  0.5309640000000  0.5286810000000  0.5088470000000 1.0
C      1  0.4784440000000  0.4919850000000  0.5397170000000 1.0
C      1  0.4706410000000  0.5541620000000  0.4230510000000 1.0
C      1  0.4378520000000  0.4826410000000  0.4636150000000 1.0
C      1  0.5770190000000  0.4706680000000  0.5801810000000 1.0
C      1  0.5337910000000  0.5576600000000  0.4421850000000 1.0
C      1  0.4605850000000  0.5394420000000  0.5910550000000 1.0
C      1  0.5666290000000  0.4493100000000  0.5930300000000 1.0
C      1  0.6159380000000  0.4021050000000  0.5305890000000 1.0
C      1  0.5351920000000  0.4484030000000  0.5211920000000 1.0
C      1  0.5765180000000  0.5855140000000  0.4316650000000 1.0
C      1  0.3964350000000  0.5563940000000  0.5023790000000 1.0
C      1  0.4571260000000  0.4849440000000  0.4409950000000 1.0
C      1  0.5517510000000  0.6011940000000  0.4239860000000 1.0
C      1  0.5135800000000  0.4998600000000  0.5746320000000 1.0
C      1  0.4307940000000  0.4830430000000  0.5347090000000 1.0
C      1  0.5221960000000  0.4857660000000  0.4165340000000 1.0
C      1  0.3758330000000  0.5595050000000  0.5462060000000 1.0
C      1  0.5355620000000  0.5873330000000  0.4049190000000 1.0
C      1  0.4516170000000  0.6011850000000  0.4730110000000 1.0
C      1  0.6234280000000  0.5100030000000  0.5113170000000 1.0
C      1  0.4856800000000  0.5013420000000  0.4949040000000 1.0
C      1  0.4124160000000  0.6408540000000  0.5469020000000 1.0
C      1  0.4947610000000  0.4981300000000  0.5976020000000 1.0
C      1  0.4276010000000  0.6137090000000  0.4794940000000 1.0
C      1  0.5245660000000  0.4649570000000  0.6400130000000 1.0
C      1  0.4716230000000  0.4565000000000  0.4052380000000 1.0
C      1  0.5336110000000  0.5607450000000  0.5820110000000 1.0
C      1  0.4776190000000  0.3710480000000  0.4455980000000 1.0
C      1  0.4973290000000  0.5357670000000  0.6248410000000 1.0
C      1  0.6065480000000  0.4924790000000  0.4662110000000 1.0
C      1  0.4489010000000  0.5129010000000  0.5959790000000 1.0
C      1  0.5061600000000  0.6097630000000  0.4545880000000 1.0
C      1  0.4403490000000  0.4500820000000  0.5773790000000 1.0
C      1  0.5397430000000  0.4374060000000  0.4935660000000 1.0
C      1  0.5000570000000  0.3742400000000  0.3974250000000 1.0
C      1  0.3853470000000  0.6158040000000  0.4531030000000 1.0
C      1  0.4192360000000  0.5036710000000  0.4687140000000 1.0
C      1  0.5117400000000  0.3955460000000  0.3838040000000 1.0
C      1  0.6155550000000  0.5340880000000  0.5251700000000 1.0
C      1  0.6133880000000  0.3758380000000  0.5272320000000 1.0
END
