TITL C-3201373-1215-562 -422.58593015126 125000 -813.053347657126 0 0 133 (C1) n - 1
REM
REM in /home/nfs/bkarasulu/CARBON/AIRSS/Generating-Clusters/LCBOP/Higher-Symm/SD-CG/FIRE-CG
REM
REM
REM
REM
REM
REM ./C.cell (b20cbc046b6831c77cfcea5457e17084)
REM AIRSS Version 0.9.1 bugfix July 2018 build 013d7b7c2542+ Fri, 06 Jul 2018 19:26:36 +0100
REM compiler GCC version 9.2.1 20190827 (Red Hat 9.2.1-1)
REM options -cpp -mtune=generic -march=x86-64 -g -O0 -fpre-include=/usr/include/finclude/math-vector-fortran.h
REM seed -1397734104 371282693 1455783519 73049414 77788236 -2124355828 1271771911 -1969703826 -631341255 370225418 273493074 653205632 1513459402 -438266424 162645827 -66763897 -1550982530 -1288325136 -179560899 -1648378031 2044010062 405081573 863298957 -711698937 1566705851 2064119382 -1630050953 656145776 384461590 1752538399 -237864122 -730254434 -1502836002
REM
CELL 1.54180   50.00000   50.00000   50.00000   90.00000   90.00000   90.00000
LATT -1
SFAC C  
C      1  0.4908290000000  0.5281870000000  0.5974180000000 1.0
C      1  0.5448830000000  0.5994740000000  0.4878300000000 1.0
C      1  0.5918160000000  0.4770990000000  0.5394110000000 1.0
C      1  0.4835630000000  0.4653250000000  0.4070570000000 1.0
C      1  0.5166210000000  0.5287280000000  0.3945720000000 1.0
C      1  0.5092690000000  0.4785830000000  0.5935540000000 1.0
C      1  0.5433990000000  0.4000660000000  0.5115090000000 1.0
C      1  0.4748900000000  0.5969770000000  0.5014550000000 1.0
C      1  0.4752390000000  0.3953630000000  0.4894590000000 1.0
C      1  0.5942880000000  0.5164230000000  0.4660180000000 1.0
C      1  0.3987530000000  0.4789940000000  0.4685200000000 1.0
C      1  0.3998820000000  0.5143690000000  0.5418750000000 1.0
C      1  0.4864510000000  0.5959050000000  0.5287060000000 1.0
C      1  0.5397660000000  0.4829440000000  0.5951760000000 1.0
C      1  0.6003310000000  0.5277640000000  0.4933410000000 1.0
C      1  0.4885240000000  0.4013840000000  0.4640290000000 1.0
C      1  0.5311680000000  0.3755550000000  0.5191910000000 1.0
C      1  0.5319030000000  0.6220950000000  0.4766850000000 1.0
C      1  0.5394490000000  0.5152750000000  0.4072870000000 1.0
C      1  0.4606860000000  0.5203220000000  0.5960760000000 1.0
C      1  0.4668160000000  0.4880900000000  0.3991110000000 1.0
C      1  0.5876970000000  0.4707060000000  0.5106530000000 1.0
C      1  0.3932140000000  0.4680700000000  0.4956370000000 1.0
C      1  0.3859350000000  0.5223230000000  0.5175130000000 1.0
C      1  0.5046750000000  0.4439040000000  0.4794130000000 1.0
C      1  0.4455940000000  0.4807190000000  0.4934430000000 1.0
C      1  0.4460150000000  0.4932420000000  0.4186100000000 1.0
C      1  0.5062920000000  0.5531220000000  0.5226690000000 1.0
C      1  0.5019280000000  0.4319400000000  0.5286130000000 1.0
C      1  0.5027100000000  0.5654270000000  0.4706120000000 1.0
C      1  0.4376610000000  0.5318540000000  0.5073830000000 1.0
C      1  0.5589750000000  0.4780260000000  0.5042200000000 1.0
C      1  0.5814790000000  0.5494780000000  0.4977570000000 1.0
C      1  0.4791230000000  0.5025050000000  0.5562250000000 1.0
C      1  0.5217840000000  0.5090330000000  0.5523450000000 1.0
C      1  0.5129030000000  0.5038530000000  0.4539070000000 1.0
C      1  0.5024890000000  0.4782960000000  0.4523760000000 1.0
C      1  0.4446950000000  0.5007850000000  0.4719520000000 1.0
C      1  0.4571630000000  0.4164540000000  0.4973740000000 1.0
C      1  0.4954120000000  0.5324270000000  0.5675500000000 1.0
C      1  0.5054680000000  0.5276100000000  0.4412750000000 1.0
C      1  0.5070690000000  0.4776800000000  0.5628800000000 1.0
C      1  0.4455430000000  0.5030140000000  0.5196870000000 1.0
C      1  0.5527840000000  0.4865820000000  0.4756150000000 1.0
C      1  0.5556680000000  0.5034790000000  0.5223200000000 1.0
C      1  0.4566390000000  0.5734040000000  0.4978240000000 1.0
C      1  0.5135170000000  0.5508040000000  0.4946980000000 1.0
C      1  0.5147270000000  0.4420220000000  0.5047860000000 1.0
C      1  0.4273650000000  0.5504040000000  0.5290450000000 1.0
C      1  0.5520250000000  0.5319610000000  0.4299080000000 1.0
C      1  0.5246540000000  0.4313970000000  0.5462520000000 1.0
C      1  0.4361910000000  0.4560100000000  0.4776440000000 1.0
C      1  0.5695430000000  0.5569190000000  0.4721220000000 1.0
C      1  0.5724520000000  0.4318800000000  0.5444060000000 1.0
C      1  0.5527210000000  0.4661100000000  0.5729440000000 1.0
C      1  0.4457050000000  0.5367930000000  0.5732900000000 1.0
C      1  0.4391460000000  0.4677410000000  0.4320200000000 1.0
C      1  0.5265260000000  0.5689620000000  0.4546910000000 1.0
C      1  0.4668860000000  0.4267070000000  0.4503210000000 1.0
C      1  0.4667490000000  0.5781010000000  0.5447970000000 1.0
C      1  0.4212670000000  0.5345350000000  0.5533960000000 1.0
C      1  0.5486420000000  0.4189230000000  0.5342970000000 1.0
C      1  0.5279490000000  0.5462120000000  0.4383540000000 1.0
C      1  0.4208150000000  0.4650480000000  0.4547100000000 1.0
C      1  0.5761500000000  0.4588210000000  0.5565420000000 1.0
C      1  0.5737790000000  0.5344480000000  0.4513110000000 1.0
C      1  0.5496010000000  0.5773080000000  0.4696830000000 1.0
C      1  0.4422090000000  0.5751860000000  0.5265630000000 1.0
C      1  0.4502500000000  0.4319440000000  0.4742080000000 1.0
C      1  0.5283420000000  0.4566970000000  0.5587650000000 1.0
C      1  0.4640240000000  0.4481870000000  0.4286310000000 1.0
C      1  0.4702390000000  0.5537120000000  0.5613250000000 1.0
C      1  0.4250090000000  0.4419760000000  0.5256170000000 1.0
C      1  0.4450670000000  0.5193050000000  0.4301550000000 1.0
C      1  0.5179250000000  0.4341630000000  0.4554500000000 1.0
C      1  0.4299440000000  0.5454850000000  0.4721220000000 1.0
C      1  0.5726440000000  0.4436000000000  0.4606180000000 1.0
C      1  0.5700350000000  0.5517030000000  0.5238040000000 1.0
C      1  0.4577050000000  0.4828680000000  0.5652360000000 1.0
C      1  0.5474570000000  0.5231030000000  0.5671660000000 1.0
C      1  0.5607920000000  0.4771290000000  0.4266770000000 1.0
C      1  0.5263920000000  0.5605430000000  0.5411250000000 1.0
C      1  0.4752820000000  0.4389970000000  0.5383000000000 1.0
C      1  0.4727830000000  0.5627280000000  0.4522980000000 1.0
C      1  0.4265980000000  0.5196310000000  0.4569710000000 1.0
C      1  0.4518270000000  0.4302390000000  0.5226610000000 1.0
C      1  0.5160240000000  0.4565070000000  0.4378380000000 1.0
C      1  0.4362820000000  0.4883260000000  0.5453600000000 1.0
C      1  0.5709060000000  0.4734560000000  0.4547250000000 1.0
C      1  0.5699650000000  0.5216730000000  0.5426490000000 1.0
C      1  0.4480620000000  0.5674400000000  0.4687300000000 1.0
C      1  0.5499840000000  0.5709620000000  0.5288500000000 1.0
C      1  0.5644030000000  0.4204760000000  0.4715180000000 1.0
C      1  0.5266840000000  0.5501500000000  0.5655020000000 1.0
C      1  0.4771020000000  0.5372020000000  0.4291810000000 1.0
C      1  0.4743430000000  0.4585130000000  0.5581840000000 1.0
C      1  0.4080270000000  0.4858380000000  0.5411090000000 1.0
C      1  0.4877480000000  0.5316180000000  0.3971230000000 1.0
C      1  0.5423120000000  0.4051840000000  0.4820000000000 1.0
C      1  0.3992000000000  0.5082540000000  0.4672610000000 1.0
C      1  0.5968370000000  0.4874440000000  0.4638790000000 1.0
C      1  0.5969430000000  0.5067830000000  0.5410470000000 1.0
C      1  0.4837020000000  0.4784520000000  0.6066640000000 1.0
C      1  0.5176210000000  0.5246160000000  0.6085570000000 1.0
C      1  0.5140220000000  0.4672530000000  0.4107880000000 1.0
C      1  0.5399920000000  0.5949700000000  0.5159850000000 1.0
C      1  0.4837070000000  0.3741670000000  0.5054740000000 1.0
C      1  0.4829650000000  0.6167310000000  0.4833440000000 1.0
C      1  0.3867100000000  0.5209310000000  0.4902440000000 1.0
C      1  0.5063120000000  0.3657320000000  0.5170510000000 1.0
C      1  0.5385520000000  0.4860400000000  0.4101380000000 1.0
C      1  0.4047550000000  0.4634150000000  0.5220530000000 1.0
C      1  0.6054380000000  0.4738720000000  0.4883320000000 1.0
C      1  0.6114980000000  0.5171540000000  0.5177050000000 1.0
C      1  0.5056910000000  0.6278050000000  0.4743050000000 1.0
C      1  0.5144060000000  0.6035960000000  0.5282750000000 1.0
C      1  0.5182200000000  0.4059640000000  0.4628460000000 1.0
C      1  0.5415150000000  0.5123360000000  0.5954920000000 1.0
C      1  0.4738470000000  0.5108550000000  0.3843950000000 1.0
C      1  0.4596150000000  0.4904150000000  0.5949860000000 1.0
C      1  0.5272720000000  0.5103400000000  0.5222480000000 1.0
C      1  0.4752330000000  0.5087070000000  0.5287940000000 1.0
C      1  0.4784880000000  0.5305070000000  0.4804920000000 1.0
C      1  0.4881740000000  0.4876850000000  0.5135090000000 1.0
C      1  0.4656560000000  0.5443440000000  0.5026550000000 1.0
C      1  0.5330250000000  0.5070100000000  0.4733840000000 1.0
C      1  0.4740700000000  0.4754370000000  0.4938530000000 1.0
C      1  0.5264370000000  0.5248180000000  0.4948870000000 1.0
C      1  0.5328380000000  0.4635160000000  0.5102450000000 1.0
C      1  0.4709130000000  0.5088100000000  0.4679400000000 1.0
C      1  0.4888130000000  0.4658600000000  0.4734190000000 1.0
C      1  0.4830340000000  0.5372400000000  0.5245360000000 1.0
C      1  0.5149040000000  0.4851580000000  0.5151690000000 1.0
END
