TITL C-3201374-830-562 99842.2141324663 125000 -799.379104467894 0 0 133 (C1) n - 1
REM
REM in /home/nfs/bkarasulu/CARBON/AIRSS/Generating-Clusters/LCBOP/Higher-Symm/SD-CG/FIRE-CG
REM
REM
REM
REM
REM
REM ./C.cell (b20cbc046b6831c77cfcea5457e17084)
REM AIRSS Version 0.9.1 bugfix July 2018 build 013d7b7c2542+ Fri, 06 Jul 2018 19:26:36 +0100
REM compiler GCC version 9.2.1 20190827 (Red Hat 9.2.1-1)
REM options -cpp -mtune=generic -march=x86-64 -g -O0 -fpre-include=/usr/include/finclude/math-vector-fortran.h
REM seed -657976129 761153702 -2092123461 -753233129 -1112593544 -1587899531 60814396 -303755104 470885692 389587202 1752504560 501258164 -871797349 1529357649 578172742 -59463733 235751636 1141045989 -1997759704 -1117692588 1148510723 203767056 -1984063365 75141989 798248233 653169209 -839786180 562866267 236240071 735835938 -496385984 -1033697841 -444871805
REM
CELL 1.54180   50.00000   50.00000   50.00000   90.00000   90.00000   90.00000
LATT -1
SFAC C  
C      1  0.5148340000000  0.5702480000000  0.5228630000000 1.0
C      1  0.5157390000000  0.4772070000000  0.5721340000000 1.0
C      1  0.5169060000000  0.4284570000000  0.4744450000000 1.0
C      1  0.5126490000000  0.5223370000000  0.4329580000000 1.0
C      1  0.4828230000000  0.5706810000000  0.5231410000000 1.0
C      1  0.4837130000000  0.4771400000000  0.5718270000000 1.0
C      1  0.4844930000000  0.4294530000000  0.4711160000000 1.0
C      1  0.4813990000000  0.5253650000000  0.4292940000000 1.0
C      1  0.4702490000000  0.5601270000000  0.4010520000000 1.0
C      1  0.4711260000000  0.5991090000000  0.5570430000000 1.0
C      1  0.4704130000000  0.4421850000000  0.5983100000000 1.0
C      1  0.4707760000000  0.4007440000000  0.4398090000000 1.0
C      1  0.5253950000000  0.5535180000000  0.4018580000000 1.0
C      1  0.5270780000000  0.5991710000000  0.5560380000000 1.0
C      1  0.5282910000000  0.4426740000000  0.5993900000000 1.0
C      1  0.5279740000000  0.3994170000000  0.4422150000000 1.0
C      1  0.4611090000000  0.5414670000000  0.4485590000000 1.0
C      1  0.4628470000000  0.5507690000000  0.5398590000000 1.0
C      1  0.4656870000000  0.4602150000000  0.5504920000000 1.0
C      1  0.4657360000000  0.4499170000000  0.4573670000000 1.0
C      1  0.5360280000000  0.5375610000000  0.4495580000000 1.0
C      1  0.5352620000000  0.5507620000000  0.5396500000000 1.0
C      1  0.5345830000000  0.4600990000000  0.5516300000000 1.0
C      1  0.5370570000000  0.4473050000000  0.4602690000000 1.0
C      1  0.5276090000000  0.5241980000000  0.4055410000000 1.0
C      1  0.5305310000000  0.5965700000000  0.5266790000000 1.0
C      1  0.5325240000000  0.4720690000000  0.5976550000000 1.0
C      1  0.5312930000000  0.4021480000000  0.4716260000000 1.0
C      1  0.4658560000000  0.5308930000000  0.4024990000000 1.0
C      1  0.4672230000000  0.5969660000000  0.5277910000000 1.0
C      1  0.4664270000000  0.4715400000000  0.5969420000000 1.0
C      1  0.4689060000000  0.4039590000000  0.4692160000000 1.0
C      1  0.5670780000000  0.5331930000000  0.4420010000000 1.0
C      1  0.5669030000000  0.5554420000000  0.5331070000000 1.0
C      1  0.5660800000000  0.4653320000000  0.5552020000000 1.0
C      1  0.5679440000000  0.4420620000000  0.4664150000000 1.0
C      1  0.4297290000000  0.5362080000000  0.4432390000000 1.0
C      1  0.4312620000000  0.5554120000000  0.5339230000000 1.0
C      1  0.4342270000000  0.4649930000000  0.5538010000000 1.0
C      1  0.4345850000000  0.4453280000000  0.4645060000000 1.0
C      1  0.5396910000000  0.5037700000000  0.5373510000000 1.0
C      1  0.5358200000000  0.4606510000000  0.5051060000000 1.0
C      1  0.5485080000000  0.4945050000000  0.4708340000000 1.0
C      1  0.5423070000000  0.5368470000000  0.4966020000000 1.0
C      1  0.4594920000000  0.5038110000000  0.5371160000000 1.0
C      1  0.4661530000000  0.4638510000000  0.5021360000000 1.0
C      1  0.4588190000000  0.4960690000000  0.4616650000000 1.0
C      1  0.4547920000000  0.5378100000000  0.4960560000000 1.0
C      1  0.4754920000000  0.5605510000000  0.4938640000000 1.0
C      1  0.4762210000000  0.5061180000000  0.5624070000000 1.0
C      1  0.4855250000000  0.4392220000000  0.5045310000000 1.0
C      1  0.4727090000000  0.4970560000000  0.4353650000000 1.0
C      1  0.5214010000000  0.5593610000000  0.4934430000000 1.0
C      1  0.5228530000000  0.5060690000000  0.5625370000000 1.0
C      1  0.5154610000000  0.4374510000000  0.5050560000000 1.0
C      1  0.5145750000000  0.4924780000000  0.4413480000000 1.0
C      1  0.4524990000000  0.4072010000000  0.4951750000000 1.0
C      1  0.4448020000000  0.5058670000000  0.4032200000000 1.0
C      1  0.4478140000000  0.5949680000000  0.5034890000000 1.0
C      1  0.4460390000000  0.4955270000000  0.5941840000000 1.0
C      1  0.5483450000000  0.4046520000000  0.4974330000000 1.0
C      1  0.5460480000000  0.5001120000000  0.4094300000000 1.0
C      1  0.5495470000000  0.5938730000000  0.5021420000000 1.0
C      1  0.5529690000000  0.4962650000000  0.5946800000000 1.0
C      1  0.5998610000000  0.5166760000000  0.4800620000000 1.0
C      1  0.5969070000000  0.5138640000000  0.5146130000000 1.0
C      1  0.5960160000000  0.4829430000000  0.5142890000000 1.0
C      1  0.5991790000000  0.4804510000000  0.4847180000000 1.0
C      1  0.3983620000000  0.5175890000000  0.4805680000000 1.0
C      1  0.4016360000000  0.5139070000000  0.5149940000000 1.0
C      1  0.4040810000000  0.4832630000000  0.5137390000000 1.0
C      1  0.4015200000000  0.4814660000000  0.4842630000000 1.0
C      1  0.5306920000000  0.5258290000000  0.5216050000000 1.0
C      1  0.5290690000000  0.4778030000000  0.5271040000000 1.0
C      1  0.5314660000000  0.4720390000000  0.4781790000000 1.0
C      1  0.5371820000000  0.5197740000000  0.4739670000000 1.0
C      1  0.4674230000000  0.5260150000000  0.5210370000000 1.0
C      1  0.4715600000000  0.4786350000000  0.5264460000000 1.0
C      1  0.4741720000000  0.4745770000000  0.4744950000000 1.0
C      1  0.4636690000000  0.5230410000000  0.4729520000000 1.0
C      1  0.5297760000000  0.4768440000000  0.4215290000000 1.0
C      1  0.5336620000000  0.5813900000000  0.4774290000000 1.0
C      1  0.5376760000000  0.5217480000000  0.5837940000000 1.0
C      1  0.5305390000000  0.4164520000000  0.5219490000000 1.0
C      1  0.4627030000000  0.4821360000000  0.4145000000000 1.0
C      1  0.4636740000000  0.5832440000000  0.4784190000000 1.0
C      1  0.4611010000000  0.5213230000000  0.5837070000000 1.0
C      1  0.4697640000000  0.4179800000000  0.5201920000000 1.0
C      1  0.5144820000000  0.5771290000000  0.5734240000000 1.0
C      1  0.5144900000000  0.4264590000000  0.5775060000000 1.0
C      1  0.5151620000000  0.4225440000000  0.4260370000000 1.0
C      1  0.5139900000000  0.5715350000000  0.4236990000000 1.0
C      1  0.4840600000000  0.5769710000000  0.5737280000000 1.0
C      1  0.4848410000000  0.4263680000000  0.5767590000000 1.0
C      1  0.4849900000000  0.4230590000000  0.4236780000000 1.0
C      1  0.4842050000000  0.5745350000000  0.4238250000000 1.0
C      1  0.5311830000000  0.5513120000000  0.5715930000000 1.0
C      1  0.5281310000000  0.4293510000000  0.5507370000000 1.0
C      1  0.5297390000000  0.4487880000000  0.4302320000000 1.0
C      1  0.5298370000000  0.5690940000000  0.4494730000000 1.0
C      1  0.4673520000000  0.5510410000000  0.5718460000000 1.0
C      1  0.4721230000000  0.4296230000000  0.5494340000000 1.0
C      1  0.4704890000000  0.4500110000000  0.4261610000000 1.0
C      1  0.4683130000000  0.5722690000000  0.4497210000000 1.0
C      1  0.4287250000000  0.4890780000000  0.5700170000000 1.0
C      1  0.4335360000000  0.4300310000000  0.4897690000000 1.0
C      1  0.4266170000000  0.5106520000000  0.4280860000000 1.0
C      1  0.4277270000000  0.5726310000000  0.5096060000000 1.0
C      1  0.5707540000000  0.4900100000000  0.5707330000000 1.0
C      1  0.5682660000000  0.4270500000000  0.4922220000000 1.0
C      1  0.5679770000000  0.5062380000000  0.4286620000000 1.0
C      1  0.5700100000000  0.5720770000000  0.5083190000000 1.0
C      1  0.4215250000000  0.4645220000000  0.5268850000000 1.0
C      1  0.4178150000000  0.4700460000000  0.4639710000000 1.0
C      1  0.4142670000000  0.5379130000000  0.4689910000000 1.0
C      1  0.4168120000000  0.5287270000000  0.5346260000000 1.0
C      1  0.5795980000000  0.4638080000000  0.5285550000000 1.0
C      1  0.5842550000000  0.4670450000000  0.4640450000000 1.0
C      1  0.5830880000000  0.5362440000000  0.4679440000000 1.0
C      1  0.5817780000000  0.5289170000000  0.5341670000000 1.0
C      1  0.4286590000000  0.5518730000000  0.4892980000000 1.0
C      1  0.4318070000000  0.5092420000000  0.5492460000000 1.0
C      1  0.4385220000000  0.4515610000000  0.5080700000000 1.0
C      1  0.4308990000000  0.4908920000000  0.4500740000000 1.0
C      1  0.5686960000000  0.5508190000000  0.4883920000000 1.0
C      1  0.5672220000000  0.5095800000000  0.5494100000000 1.0
C      1  0.5634420000000  0.4488030000000  0.5104870000000 1.0
C      1  0.5690890000000  0.4879960000000  0.4511550000000 1.0
C      1  0.5004500000000  0.4826360000000  0.5241260000000 1.0
C      1  0.4977870000000  0.5426700000000  0.4883350000000 1.0
C      1  0.5046760000000  0.4809150000000  0.4666590000000 1.0
C      1  0.4995270000000  0.5215030000000  0.5578100000000 1.0
C      1  0.4974570000000  0.5246780000000  0.5104930000000 1.0
END
