TITL C-3201377-4638-246 -5.94207130289093e-07 125000 -259.190123116348 0 0 41 (D3) n - 1
REM
REM in /home/nfs/bkarasulu/CARBON/AIRSS/Generating-Clusters/LCBOP/Higher-Symm/SD-CG/FIRE-CG
REM
REM
REM
REM
REM
REM ./C.cell (b20cbc046b6831c77cfcea5457e17084)
REM AIRSS Version 0.9.1 bugfix July 2018 build 013d7b7c2542+ Fri, 06 Jul 2018 19:26:36 +0100
REM compiler GCC version 9.2.1 20190827 (Red Hat 9.2.1-1)
REM options -cpp -mtune=generic -march=x86-64 -g -O0 -fpre-include=/usr/include/finclude/math-vector-fortran.h
REM seed 664696655 -665218274 -1523680324 1453944862 1670383827 -1437783524 905783071 -1304810183 -202895597 1219672895 -514862841 1583266822 1021731578 -1014869447 -103311312 1838000757 118254865 1537730539 482167683 725654070 -1671327650 -175381942 660436671 -1788830033 2080996088 -249755376 1823484421 643012363 -1675155815 382582928 507151103 -1206874156 -1762955236
REM
CELL 1.54180   50.00000   50.00000   50.00000   90.00000   90.00000   90.00000
LATT -1
SFAC C  
C      1  0.5008480000000  0.4195910000000  0.5108480000000 1.0
C      1  0.5692610000000  0.5408140000000  0.5108330000000 1.0
C      1  0.4300720000000  0.5394500000000  0.5108420000000 1.0
C      1  0.4992670000000  0.4195890000000  0.4842880000000 1.0
C      1  0.4308610000000  0.5408150000000  0.4842810000000 1.0
C      1  0.5700490000000  0.5394440000000  0.4842730000000 1.0
C      1  0.5029990000000  0.4339100000000  0.5331600000000 1.0
C      1  0.5557890000000  0.5355200000000  0.5331470000000 1.0
C      1  0.4413970000000  0.5304320000000  0.5331550000000 1.0
C      1  0.4971170000000  0.4339040000000  0.4619740000000 1.0
C      1  0.4443320000000  0.5355160000000  0.4619680000000 1.0
C      1  0.5587230000000  0.5304230000000  0.4619620000000 1.0
C      1  0.4862200000000  0.5242060000000  0.5553290000000 1.0
C      1  0.4859830000000  0.4758420000000  0.5553330000000 1.0
C      1  0.5279860000000  0.4998190000000  0.5553280000000 1.0
C      1  0.5139000000000  0.5241950000000  0.4397890000000 1.0
C      1  0.5141350000000  0.4758310000000  0.4397930000000 1.0
C      1  0.4721330000000  0.4998100000000  0.4397930000000 1.0
C      1  0.4677000000000  0.5263110000000  0.4501560000000 1.0
C      1  0.4934030000000  0.4587420000000  0.4501600000000 1.0
C      1  0.5390680000000  0.5147860000000  0.4501530000000 1.0
C      1  0.5324210000000  0.5263180000000  0.5449610000000 1.0
C      1  0.5067150000000  0.4587500000000  0.5449690000000 1.0
C      1  0.4610520000000  0.5147960000000  0.5449660000000 1.0
C      1  0.4495620000000  0.4682840000000  0.4718080000000 1.0
C      1  0.5527280000000  0.4720500000000  0.4718020000000 1.0
C      1  0.4978840000000  0.5595110000000  0.4717970000000 1.0
C      1  0.5505550000000  0.4682860000000  0.5233190000000 1.0
C      1  0.4473900000000  0.4720570000000  0.5233250000000 1.0
C      1  0.5022380000000  0.5595160000000  0.5233140000000 1.0
C      1  0.5383050000000  0.4856270000000  0.4522190000000 1.0
C      1  0.4933340000000  0.5402310000000  0.4522170000000 1.0
C      1  0.4685310000000  0.4739820000000  0.4522250000000 1.0
C      1  0.4618130000000  0.4856370000000  0.5429050000000 1.0
C      1  0.5067870000000  0.5402380000000  0.5428970000000 1.0
C      1  0.5315870000000  0.4739890000000  0.5429020000000 1.0
C      1  0.5000610000000  0.5659050000000  0.4975550000000 1.0
C      1  0.5571770000000  0.4669720000000  0.4975600000000 1.0
C      1  0.4429410000000  0.4669750000000  0.4975670000000 1.0
C      1  0.5000550000000  0.4999450000000  0.4298890000000 1.0
C      1  0.5000640000000  0.4999570000000  0.5652330000000 1.0
END
