TITL C-3201379-3821-1527 1.00531223280584e-07 125000 -754.141131292606 0 0 125 (C1) n - 1
REM
REM in /home/nfs/bkarasulu/CARBON/AIRSS/Generating-Clusters/LCBOP/Higher-Symm/SD-CG/FIRE-CG
REM
REM
REM
REM
REM
REM ./C.cell (b20cbc046b6831c77cfcea5457e17084)
REM AIRSS Version 0.9.1 bugfix July 2018 build 013d7b7c2542+ Fri, 06 Jul 2018 19:26:36 +0100
REM compiler GCC version 9.2.1 20190827 (Red Hat 9.2.1-1)
REM options -cpp -mtune=generic -march=x86-64 -g -O0 -fpre-include=/usr/include/finclude/math-vector-fortran.h
REM seed 1572466331 -766277386 2117700556 501720029 -1586707372 -1704024936 -1571390611 -923409084 1497837067 1473413306 -1107678144 128605613 2099962389 -563934514 -1071789755 2147032059 -1574764988 -973018171 344926339 669070892 1828868453 1655194917 -419051203 1835472883 -818461571 -2109376064 -2093195258 -716701170 1284772718 2101233882 -2027156579 540465392 -1991999988
REM
CELL 1.54180   50.00000   50.00000   50.00000   90.00000   90.00000   90.00000
LATT -1
SFAC C  
C      1  0.4880310000000  0.5897120000000  0.4658840000000 1.0
C      1  0.4796880000000  0.5820650000000  0.5270580000000 1.0
C      1  0.4589130000000  0.4905450000000  0.4704560000000 1.0
C      1  0.4551080000000  0.4735250000000  0.5330140000000 1.0
C      1  0.3969550000000  0.5337860000000  0.4803160000000 1.0
C      1  0.3816540000000  0.5153070000000  0.5386200000000 1.0
C      1  0.5046290000000  0.5187260000000  0.4409140000000 1.0
C      1  0.5054960000000  0.5165790000000  0.5548220000000 1.0
C      1  0.6206710000000  0.4647550000000  0.4854260000000 1.0
C      1  0.6201670000000  0.4648420000000  0.5129220000000 1.0
C      1  0.4977450000000  0.5740950000000  0.4418450000000 1.0
C      1  0.4908610000000  0.5694960000000  0.5535640000000 1.0
C      1  0.5114530000000  0.5483320000000  0.5130910000000 1.0
C      1  0.5138540000000  0.5494360000000  0.4842090000000 1.0
C      1  0.3363130000000  0.5108050000000  0.5158770000000 1.0
C      1  0.3472240000000  0.5231400000000  0.4737790000000 1.0
C      1  0.4920840000000  0.4881360000000  0.5592410000000 1.0
C      1  0.4921660000000  0.4901830000000  0.4349560000000 1.0
C      1  0.5377380000000  0.4868580000000  0.4017150000000 1.0
C      1  0.5370770000000  0.4860220000000  0.5941070000000 1.0
C      1  0.4115750000000  0.5531910000000  0.4954520000000 1.0
C      1  0.4374240000000  0.5532350000000  0.5069090000000 1.0
C      1  0.4224700000000  0.5327080000000  0.5581040000000 1.0
C      1  0.4282500000000  0.5404640000000  0.4444780000000 1.0
C      1  0.6066720000000  0.4784410000000  0.4641750000000 1.0
C      1  0.6056020000000  0.4783830000000  0.5338750000000 1.0
C      1  0.5810510000000  0.5507140000000  0.5906950000000 1.0
C      1  0.5849770000000  0.5487080000000  0.4082250000000 1.0
C      1  0.5233590000000  0.5653710000000  0.5552210000000 1.0
C      1  0.5281220000000  0.5664320000000  0.4421860000000 1.0
C      1  0.4492390000000  0.5418430000000  0.5529840000000 1.0
C      1  0.4554550000000  0.5481550000000  0.4476460000000 1.0
C      1  0.5475010000000  0.5033120000000  0.5258850000000 1.0
C      1  0.5488970000000  0.5040280000000  0.4695630000000 1.0
C      1  0.5909090000000  0.4660450000000  0.5557040000000 1.0
C      1  0.5909660000000  0.4657150000000  0.4428670000000 1.0
C      1  0.4640890000000  0.4197950000000  0.4836550000000 1.0
C      1  0.4640910000000  0.4182260000000  0.5123590000000 1.0
C      1  0.4631920000000  0.4314230000000  0.4546130000000 1.0
C      1  0.4647640000000  0.4287910000000  0.5423500000000 1.0
C      1  0.4884790000000  0.4370230000000  0.4293230000000 1.0
C      1  0.4915790000000  0.4339340000000  0.5655080000000 1.0
C      1  0.4730790000000  0.4693170000000  0.4840910000000 1.0
C      1  0.4725780000000  0.4663400000000  0.5120400000000 1.0
C      1  0.5416930000000  0.3957050000000  0.4798140000000 1.0
C      1  0.5676310000000  0.3807430000000  0.5467180000000 1.0
C      1  0.4576540000000  0.5742090000000  0.5070960000000 1.0
C      1  0.4631630000000  0.5841100000000  0.4800290000000 1.0
C      1  0.5165110000000  0.4503410000000  0.4316270000000 1.0
C      1  0.5191810000000  0.4487060000000  0.5619230000000 1.0
C      1  0.4043070000000  0.5107130000000  0.5545710000000 1.0
C      1  0.4102430000000  0.5221610000000  0.4574280000000 1.0
C      1  0.4440180000000  0.4505520000000  0.5466060000000 1.0
C      1  0.4386940000000  0.4470830000000  0.4494700000000 1.0
C      1  0.5032870000000  0.6034880000000  0.4863460000000 1.0
C      1  0.4977640000000  0.6007200000000  0.5132430000000 1.0
C      1  0.5053870000000  0.5054050000000  0.4839340000000 1.0
C      1  0.5038700000000  0.5037260000000  0.5108870000000 1.0
C      1  0.4996790000000  0.5229940000000  0.3962860000000 1.0
C      1  0.4986130000000  0.5201780000000  0.6002760000000 1.0
C      1  0.5675840000000  0.4882620000000  0.5123310000000 1.0
C      1  0.5680580000000  0.4885730000000  0.4841650000000 1.0
C      1  0.4641200000000  0.5229260000000  0.5334240000000 1.0
C      1  0.4689720000000  0.5349880000000  0.4688950000000 1.0
C      1  0.5609710000000  0.5360710000000  0.4106510000000 1.0
C      1  0.5578270000000  0.5369170000000  0.5871520000000 1.0
C      1  0.5374800000000  0.5485340000000  0.4210820000000 1.0
C      1  0.5338070000000  0.5486200000000  0.5766930000000 1.0
C      1  0.4708030000000  0.5523930000000  0.5703900000000 1.0
C      1  0.4753300000000  0.5568140000000  0.4272470000000 1.0
C      1  0.4112050000000  0.4935650000000  0.4525090000000 1.0
C      1  0.4092440000000  0.4835940000000  0.5625290000000 1.0
C      1  0.5849570000000  0.5297050000000  0.5144610000000 1.0
C      1  0.5859830000000  0.5297240000000  0.4840050000000 1.0
C      1  0.4481950000000  0.5264280000000  0.5088940000000 1.0
C      1  0.4552980000000  0.5153140000000  0.4843430000000 1.0
C      1  0.5931570000000  0.5015710000000  0.4746600000000 1.0
C      1  0.5919710000000  0.5013210000000  0.5233490000000 1.0
C      1  0.4630670000000  0.4947870000000  0.4415690000000 1.0
C      1  0.4634330000000  0.4962030000000  0.5508830000000 1.0
C      1  0.4554070000000  0.5117050000000  0.4183470000000 1.0
C      1  0.4548600000000  0.5073610000000  0.5796620000000 1.0
C      1  0.5550890000000  0.5087350000000  0.5934900000000 1.0
C      1  0.5568890000000  0.5085210000000  0.4029580000000 1.0
C      1  0.5580560000000  0.5327900000000  0.4705290000000 1.0
C      1  0.5561340000000  0.5321910000000  0.5266350000000 1.0
C      1  0.5097310000000  0.4723360000000  0.4516520000000 1.0
C      1  0.5103570000000  0.4702380000000  0.5424780000000 1.0
C      1  0.4898570000000  0.4785890000000  0.4061420000000 1.0
C      1  0.4900620000000  0.4761270000000  0.5877910000000 1.0
C      1  0.5424320000000  0.4613850000000  0.5771110000000 1.0
C      1  0.5417800000000  0.4621240000000  0.4190620000000 1.0
C      1  0.5096870000000  0.4946360000000  0.3923910000000 1.0
C      1  0.5087760000000  0.4921400000000  0.6028260000000 1.0
C      1  0.5729080000000  0.3994320000000  0.5648700000000 1.0
C      1  0.5366190000000  0.4219510000000  0.4712000000000 1.0
C      1  0.5498980000000  0.3785420000000  0.4983830000000 1.0
C      1  0.5592860000000  0.3731070000000  0.5226570000000 1.0
C      1  0.4978510000000  0.5296560000000  0.4685460000000 1.0
C      1  0.4945870000000  0.5266120000000  0.5274750000000 1.0
C      1  0.4816750000000  0.4489830000000  0.5884770000000 1.0
C      1  0.4786190000000  0.4522700000000  0.4064870000000 1.0
C      1  0.5397040000000  0.5583250000000  0.4698630000000 1.0
C      1  0.5366090000000  0.5574350000000  0.5283950000000 1.0
C      1  0.4732430000000  0.5329790000000  0.4067270000000 1.0
C      1  0.4718970000000  0.5292920000000  0.5914680000000 1.0
C      1  0.5648760000000  0.4545270000000  0.4364870000000 1.0
C      1  0.5694950000000  0.4523510000000  0.5696360000000 1.0
C      1  0.3718510000000  0.5252500000000  0.4891210000000 1.0
C      1  0.3647250000000  0.5170580000000  0.5168070000000 1.0
C      1  0.4965360000000  0.4562390000000  0.4723820000000 1.0
C      1  0.4964190000000  0.4542340000000  0.5221860000000 1.0
C      1  0.5243190000000  0.4919140000000  0.4680330000000 1.0
C      1  0.5234130000000  0.4904130000000  0.5260200000000 1.0
C      1  0.5139170000000  0.5291360000000  0.5780320000000 1.0
C      1  0.5159320000000  0.5311120000000  0.4184500000000 1.0
C      1  0.5562070000000  0.4347190000000  0.4554380000000 1.0
C      1  0.5738110000000  0.4246360000000  0.5732460000000 1.0
C      1  0.4210150000000  0.4680630000000  0.4499500000000 1.0
C      1  0.4206980000000  0.4589080000000  0.5603950000000 1.0
C      1  0.5503610000000  0.5795400000000  0.5135790000000 1.0
C      1  0.5522390000000  0.5797990000000  0.4862750000000 1.0
C      1  0.5141000000000  0.4355010000000  0.4825740000000 1.0
C      1  0.5108030000000  0.4335230000000  0.5102380000000 1.0
C      1  0.3265270000000  0.5145620000000  0.4901690000000 1.0
END
