TITL C-3201372-1405-1509 31529.5402423904 125000 -399.877621931009 0 0 68 (C1) n - 1
REM
REM in /home/nfs/bkarasulu/CARBON/AIRSS/Generating-Clusters/LCBOP/Higher-Symm/SD-CG/FIRE-CG
REM
REM
REM
REM
REM
REM ./C.cell (b20cbc046b6831c77cfcea5457e17084)
REM AIRSS Version 0.9.1 bugfix July 2018 build 013d7b7c2542+ Fri, 06 Jul 2018 19:26:36 +0100
REM compiler GCC version 9.2.1 20190827 (Red Hat 9.2.1-1)
REM options -cpp -mtune=generic -march=x86-64 -g -O0 -fpre-include=/usr/include/finclude/math-vector-fortran.h
REM seed -893060562 -1491134559 -1291402522 -641013595 -1258717493 926556283 281649250 -1107299893 -614452490 -1973525421 -1741910296 -357317063 -168007388 1581249443 1092751378 17646116 -1301530590 -540713168 -519116510 -1036311633 -473443137 879221609 579321346 1835643753 -1665928934 -1402072713 -113625346 -1215884420 -794391340 978618761 1685568765 -1376063100 -1691182624
REM
CELL 1.54180   50.00000   50.00000   50.00000   90.00000   90.00000   90.00000
LATT -1
SFAC C  
C      1  0.5305110000000  0.5260600000000  0.4539950000000 1.0
C      1  0.5298640000000  0.4722220000000  0.4540290000000 1.0
C      1  0.5517020000000  0.4862920000000  0.5735450000000 1.0
C      1  0.5520900000000  0.5134400000000  0.5733780000000 1.0
C      1  0.4625060000000  0.5167160000000  0.5462730000000 1.0
C      1  0.4623390000000  0.4849380000000  0.5460480000000 1.0
C      1  0.5066510000000  0.4266470000000  0.4861340000000 1.0
C      1  0.5082240000000  0.5724000000000  0.4851500000000 1.0
C      1  0.4768040000000  0.5507380000000  0.4465920000000 1.0
C      1  0.4755960000000  0.4490180000000  0.4474720000000 1.0
C      1  0.4772030000000  0.4760810000000  0.5712910000000 1.0
C      1  0.4780940000000  0.5263320000000  0.5705320000000 1.0
C      1  0.5035310000000  0.5231560000000  0.4156470000000 1.0
C      1  0.5028290000000  0.4755520000000  0.4158450000000 1.0
C      1  0.5281640000000  0.4709050000000  0.5688060000000 1.0
C      1  0.5290460000000  0.5294490000000  0.5684500000000 1.0
C      1  0.4354050000000  0.4703980000000  0.5363080000000 1.0
C      1  0.4356170000000  0.5301460000000  0.5366820000000 1.0
C      1  0.4805730000000  0.4715910000000  0.5247940000000 1.0
C      1  0.4813720000000  0.5249800000000  0.5240080000000 1.0
C      1  0.5342670000000  0.5672840000000  0.4987880000000 1.0
C      1  0.5329600000000  0.4311390000000  0.4996400000000 1.0
C      1  0.5312590000000  0.5517960000000  0.5508620000000 1.0
C      1  0.5301390000000  0.4480870000000  0.5515530000000 1.0
C      1  0.5118730000000  0.4760300000000  0.4767110000000 1.0
C      1  0.5125490000000  0.5232860000000  0.4768630000000 1.0
C      1  0.4992380000000  0.5669840000000  0.4571950000000 1.0
C      1  0.4975520000000  0.4321690000000  0.4582010000000 1.0
C      1  0.5689700000000  0.4676990000000  0.4899760000000 1.0
C      1  0.5693720000000  0.5295430000000  0.4898810000000 1.0
C      1  0.5261660000000  0.4849740000000  0.4292620000000 1.0
C      1  0.5265110000000  0.5132080000000  0.4292700000000 1.0
C      1  0.4513100000000  0.5600830000000  0.4472840000000 1.0
C      1  0.4498350000000  0.4404800000000  0.4484720000000 1.0
C      1  0.5542070000000  0.4431930000000  0.4813730000000 1.0
C      1  0.5553010000000  0.5543930000000  0.4810280000000 1.0
C      1  0.5043950000000  0.5155930000000  0.5753280000000 1.0
C      1  0.5039410000000  0.4858210000000  0.5755980000000 1.0
C      1  0.5892560000000  0.5123330000000  0.4779940000000 1.0
C      1  0.5890900000000  0.4845730000000  0.4780450000000 1.0
C      1  0.4797450000000  0.5189030000000  0.4296130000000 1.0
C      1  0.4792570000000  0.4806050000000  0.4298910000000 1.0
C      1  0.4682970000000  0.4359730000000  0.5337410000000 1.0
C      1  0.4332330000000  0.5829370000000  0.5538760000000 1.0
C      1  0.5444880000000  0.5515840000000  0.4540510000000 1.0
C      1  0.5430860000000  0.4463630000000  0.4545790000000 1.0
C      1  0.4680380000000  0.5277790000000  0.4986510000000 1.0
C      1  0.4668900000000  0.4736060000000  0.4979250000000 1.0
C      1  0.4124430000000  0.4855320000000  0.5464830000000 1.0
C      1  0.4127510000000  0.5127360000000  0.5453550000000 1.0
C      1  0.5246510000000  0.5693450000000  0.4429570000000 1.0
C      1  0.5227600000000  0.4289640000000  0.4437910000000 1.0
C      1  0.5347990000000  0.5647770000000  0.5273560000000 1.0
C      1  0.5336320000000  0.4344440000000  0.5282820000000 1.0
C      1  0.5512040000000  0.5131240000000  0.5048070000000 1.0
C      1  0.5509720000000  0.4844270000000  0.5047020000000 1.0
C      1  0.5243970000000  0.5224420000000  0.5033890000000 1.0
C      1  0.5240080000000  0.4753630000000  0.5030430000000 1.0
C      1  0.4397550000000  0.5299450000000  0.5053530000000 1.0
C      1  0.4385680000000  0.4736140000000  0.5046420000000 1.0
C      1  0.4841410000000  0.4859680000000  0.4784950000000 1.0
C      1  0.4842740000000  0.5149510000000  0.4783220000000 1.0
C      1  0.4208610000000  0.5159430000000  0.4897310000000 1.0
C      1  0.4202550000000  0.4888610000000  0.4897310000000 1.0
C      1  0.5066810000000  0.4841710000000  0.5234050000000 1.0
C      1  0.5066120000000  0.5129210000000  0.5232200000000 1.0
C      1  0.4329000000000  0.5579000000000  0.5467080000000 1.0
C      1  0.4449950000000  0.4410910000000  0.5395980000000 1.0
END
