TITL C-3201373-1215-2093 -128263.938027995 125000 -668.512503812834 0 0 113 (C4) n - 1
REM
REM in /home/nfs/bkarasulu/CARBON/AIRSS/Generating-Clusters/LCBOP/Higher-Symm/SD-CG/FIRE-CG
REM
REM
REM
REM
REM
REM ./C.cell (b20cbc046b6831c77cfcea5457e17084)
REM AIRSS Version 0.9.1 bugfix July 2018 build 013d7b7c2542+ Fri, 06 Jul 2018 19:26:36 +0100
REM compiler GCC version 9.2.1 20190827 (Red Hat 9.2.1-1)
REM options -cpp -mtune=generic -march=x86-64 -g -O0 -fpre-include=/usr/include/finclude/math-vector-fortran.h
REM seed -1969877360 1292682178 -286467541 -907493794 2022586703 -1465206129 -1200543632 2110573251 2027970979 -1592757721 1563246786 -670178834 707901634 529087807 -850779089 1208553236 1966064238 -1467413291 -578681784 1277237868 416669718 366278688 -502288057 -1481708511 1217893611 1436563966 -1378108398 293340253 665449948 -138411817 -2101140772 756094287 1780928087
REM
CELL 1.54180   50.00000   50.00000   50.00000   90.00000   90.00000   90.00000
LATT -1
SFAC C  
C      1  0.4296190000000  0.4848760000000  0.5318010000000 1.0
C      1  0.5315890000000  0.4848780000000  0.5709370000000 1.0
C      1  0.5707240000000  0.4848840000000  0.4689670000000 1.0
C      1  0.4687550000000  0.4848850000000  0.4298310000000 1.0
C      1  0.5867330000000  0.4857770000000  0.5352320000000 1.0
C      1  0.4653240000000  0.4857720000000  0.5869450000000 1.0
C      1  0.4136110000000  0.4857750000000  0.4655350000000 1.0
C      1  0.5350200000000  0.4857830000000  0.4138230000000 1.0
C      1  0.5412610000000  0.5062430000000  0.5157410000000 1.0
C      1  0.5155270000000  0.5062460000000  0.4592950000000 1.0
C      1  0.4590810000000  0.5062420000000  0.4850270000000 1.0
C      1  0.4848140000000  0.5062400000000  0.5414750000000 1.0
C      1  0.4617620000000  0.5193320000000  0.5177510000000 1.0
C      1  0.4828050000000  0.5193370000000  0.4619770000000 1.0
C      1  0.5385780000000  0.5193380000000  0.4830200000000 1.0
C      1  0.5175360000000  0.5193330000000  0.5387940000000 1.0
C      1  0.5340290000000  0.4200600000000  0.4854370000000 1.0
C      1  0.4852300000000  0.4200610000000  0.4665240000000 1.0
C      1  0.4663180000000  0.4200560000000  0.5153250000000 1.0
C      1  0.5151180000000  0.4200570000000  0.5342380000000 1.0
C      1  0.4660200000000  0.4222230000000  0.4869200000000 1.0
C      1  0.5136350000000  0.4222260000000  0.4662270000000 1.0
C      1  0.5343270000000  0.4222230000000  0.5138420000000 1.0
C      1  0.4867130000000  0.4222210000000  0.5345360000000 1.0
C      1  0.4403830000000  0.4763650000000  0.4248840000000 1.0
C      1  0.4246740000000  0.4763570000000  0.5601720000000 1.0
C      1  0.5599610000000  0.4763610000000  0.5758820000000 1.0
C      1  0.5756700000000  0.4763680000000  0.4405940000000 1.0
C      1  0.5611880000000  0.4764580000000  0.4180500000000 1.0
C      1  0.5825060000000  0.4764520000000  0.5614000000000 1.0
C      1  0.4391570000000  0.4764470000000  0.5827170000000 1.0
C      1  0.4178380000000  0.4764530000000  0.4393670000000 1.0
C      1  0.5128940000000  0.4734110000000  0.4658270000000 1.0
C      1  0.4656180000000  0.4734080000000  0.4876580000000 1.0
C      1  0.4874480000000  0.4734060000000  0.5349380000000 1.0
C      1  0.5347270000000  0.4734090000000  0.5131060000000 1.0
C      1  0.4793030000000  0.4693800000000  0.4556870000000 1.0
C      1  0.5448670000000  0.4693800000000  0.4795150000000 1.0
C      1  0.5210410000000  0.4693760000000  0.5450790000000 1.0
C      1  0.4554770000000  0.4693750000000  0.5212510000000 1.0
C      1  0.4861140000000  0.4357520000000  0.4194130000000 1.0
C      1  0.4192050000000  0.4357460000000  0.5144420000000 1.0
C      1  0.5142350000000  0.4357460000000  0.5813500000000 1.0
C      1  0.5811430000000  0.4357580000000  0.4863210000000 1.0
C      1  0.5140960000000  0.4425610000000  0.4202950000000 1.0
C      1  0.5802590000000  0.4425560000000  0.5143050000000 1.0
C      1  0.4862510000000  0.4425510000000  0.5804690000000 1.0
C      1  0.4200870000000  0.4425530000000  0.4864590000000 1.0
C      1  0.4822400000000  0.5810330000000  0.5505630000000 1.0
C      1  0.5503340000000  0.5810450000000  0.5183160000000 1.0
C      1  0.5180880000000  0.5810500000000  0.4502230000000 1.0
C      1  0.4499930000000  0.5810380000000  0.4824690000000 1.0
C      1  0.5033050000000  0.5928460000000  0.5648460000000 1.0
C      1  0.4357080000000  0.5928410000000  0.5035390000000 1.0
C      1  0.4970190000000  0.5928610000000  0.4359440000000 1.0
C      1  0.5646150000000  0.5928620000000  0.4972510000000 1.0
C      1  0.4866130000000  0.4688440000000  0.5932540000000 1.0
C      1  0.5930430000000  0.4688500000000  0.5139430000000 1.0
C      1  0.5137320000000  0.4688530000000  0.4075120000000 1.0
C      1  0.4073020000000  0.4688460000000  0.4868230000000 1.0
C      1  0.5137880000000  0.4744410000000  0.5928300000000 1.0
C      1  0.4077260000000  0.4744400000000  0.5139990000000 1.0
C      1  0.4865570000000  0.4744510000000  0.4079370000000 1.0
C      1  0.5926160000000  0.4744410000000  0.4867680000000 1.0
C      1  0.5518910000000  0.5296170000000  0.4258980000000 1.0
C      1  0.4256810000000  0.5296120000000  0.4486650000000 1.0
C      1  0.4484500000000  0.5296070000000  0.5748740000000 1.0
C      1  0.5746590000000  0.5296120000000  0.5521060000000 1.0
C      1  0.4441980000000  0.5290260000000  0.4300100000000 1.0
C      1  0.5705470000000  0.5290280000000  0.4444140000000 1.0
C      1  0.5561430000000  0.5290210000000  0.5707620000000 1.0
C      1  0.4297940000000  0.5290170000000  0.5563580000000 1.0
C      1  0.5553110000000  0.4384850000000  0.4762760000000 1.0
C      1  0.4760660000000  0.4384850000000  0.4452440000000 1.0
C      1  0.4450350000000  0.4384790000000  0.5244880000000 1.0
C      1  0.5242790000000  0.4384800000000  0.5555210000000 1.0
C      1  0.4472540000000  0.4430510000000  0.4794960000000 1.0
C      1  0.5210610000000  0.4430560000000  0.4474630000000 1.0
C      1  0.5530910000000  0.4430530000000  0.5212680000000 1.0
C      1  0.4792870000000  0.4430490000000  0.5533010000000 1.0
C      1  0.4674080000000  0.5592680000000  0.4884340000000 1.0
C      1  0.4882130000000  0.5592660000000  0.5331480000000 1.0
C      1  0.5329270000000  0.5592710000000  0.5123430000000 1.0
C      1  0.5121220000000  0.5592730000000  0.4676290000000 1.0
C      1  0.5307330000000  0.5481650000000  0.4861760000000 1.0
C      1  0.5143800000000  0.5481610000000  0.5309510000000 1.0
C      1  0.4696050000000  0.5481590000000  0.5145990000000 1.0
C      1  0.4859570000000  0.5481640000000  0.4698240000000 1.0
C      1  0.4569870000000  0.5930660000000  0.5485770000000 1.0
C      1  0.5483420000000  0.5930800000000  0.5435670000000 1.0
C      1  0.5433350000000  0.5930930000000  0.4522140000000 1.0
C      1  0.4519800000000  0.5930830000000  0.4572220000000 1.0
C      1  0.5294360000000  0.5978160000000  0.5619070000000 1.0
C      1  0.4386460000000  0.5978030000000  0.5296720000000 1.0
C      1  0.4708860000000  0.5978260000000  0.4388840000000 1.0
C      1  0.5616740000000  0.5978330000000  0.4711200000000 1.0
C      1  0.5925460000000  0.5269980000000  0.5110430000000 1.0
C      1  0.5108270000000  0.5270020000000  0.4080100000000 1.0
C      1  0.4077950000000  0.5269940000000  0.4897290000000 1.0
C      1  0.4895140000000  0.5269930000000  0.5927610000000 1.0
C      1  0.4107540000000  0.5282690000000  0.5157830000000 1.0
C      1  0.4847740000000  0.5282790000000  0.4109700000000 1.0
C      1  0.5895860000000  0.5282770000000  0.4849890000000 1.0
C      1  0.5155680000000  0.5282700000000  0.5898010000000 1.0
C      1  0.5301460000000  0.5153030000000  0.5677280000000 1.0
C      1  0.5675140000000  0.5153090000000  0.4704110000000 1.0
C      1  0.4701960000000  0.5153090000000  0.4330420000000 1.0
C      1  0.4328270000000  0.5153010000000  0.5303600000000 1.0
C      1  0.4719250000000  0.5121180000000  0.5747840000000 1.0
C      1  0.4257720000000  0.5121210000000  0.4721390000000 1.0
C      1  0.5284170000000  0.5121270000000  0.4259860000000 1.0
C      1  0.5745700000000  0.5121220000000  0.5286310000000 1.0
C      1  0.5001730000000  0.4732420000000  0.5003860000000 1.0
END
