TITL C-3201373-1215-1644 0.0803256373824245 125000 -1231.85081317848 0 0 200 (C1) n - 1
REM
REM in /home/nfs/bkarasulu/CARBON/AIRSS/Generating-Clusters/LCBOP/Higher-Symm/SD-CG/FIRE-CG
REM
REM
REM
REM
REM
REM ./C.cell (b20cbc046b6831c77cfcea5457e17084)
REM AIRSS Version 0.9.1 bugfix July 2018 build 013d7b7c2542+ Fri, 06 Jul 2018 19:26:36 +0100
REM compiler GCC version 9.2.1 20190827 (Red Hat 9.2.1-1)
REM options -cpp -mtune=generic -march=x86-64 -g -O0 -fpre-include=/usr/include/finclude/math-vector-fortran.h
REM seed -1221674212 -1464961006 -1185980878 1650274708 -1216667863 -370384312 1340783038 -718117335 1595575005 1216145115 1405900700 1888381503 -166990952 647703469 88952246 1930541212 1479434755 450482137 633349328 46518962 608233242 666366430 -243312345 1444003609 -1453319714 1330706172 500899241 -656077739 934887868 356766889 -1373369563 194095101 1838062587
REM
CELL 1.54180   50.00000   50.00000   50.00000   90.00000   90.00000   90.00000
LATT -1
SFAC C  
C      1  0.3963320000000  0.4588230000000  0.5118000000000 1.0
C      1  0.4001000000000  0.5339560000000  0.5121040000000 1.0
C      1  0.3886320000000  0.4919560000000  0.4623080000000 1.0
C      1  0.5058110000000  0.6150280000000  0.4477640000000 1.0
C      1  0.4905710000000  0.4099820000000  0.4311900000000 1.0
C      1  0.4952800000000  0.4886530000000  0.6267310000000 1.0
C      1  0.4763750000000  0.5174600000000  0.4329840000000 1.0
C      1  0.4689410000000  0.4405890000000  0.5195600000000 1.0
C      1  0.4700870000000  0.5451820000000  0.5360430000000 1.0
C      1  0.5192120000000  0.6452980000000  0.4804920000000 1.0
C      1  0.5005160000000  0.4129690000000  0.3842040000000 1.0
C      1  0.5087950000000  0.4445560000000  0.6365710000000 1.0
C      1  0.4619950000000  0.6039240000000  0.4341860000000 1.0
C      1  0.4528280000000  0.3912600000000  0.4510320000000 1.0
C      1  0.4529970000000  0.5076400000000  0.6174380000000 1.0
C      1  0.5431270000000  0.5342760000000  0.5609470000000 1.0
C      1  0.5437100000000  0.5278310000000  0.4399680000000 1.0
C      1  0.5428190000000  0.4403750000000  0.5030940000000 1.0
C      1  0.4445110000000  0.4174820000000  0.4088250000000 1.0
C      1  0.4523980000000  0.4608260000000  0.6345650000000 1.0
C      1  0.4655240000000  0.6426650000000  0.4645050000000 1.0
C      1  0.6412520000000  0.5899100000000  0.5416930000000 1.0
C      1  0.6249240000000  0.4604590000000  0.4037040000000 1.0
C      1  0.6192670000000  0.4599450000000  0.5794070000000 1.0
C      1  0.5447460000000  0.4793240000000  0.4054770000000 1.0
C      1  0.5463140000000  0.4335450000000  0.5681580000000 1.0
C      1  0.5531560000000  0.5909740000000  0.5257360000000 1.0
C      1  0.5446080000000  0.5120100000000  0.6257740000000 1.0
C      1  0.5526290000000  0.5992960000000  0.4266430000000 1.0
C      1  0.5409020000000  0.3931280000000  0.4475460000000 1.0
C      1  0.3853700000000  0.4031550000000  0.4369290000000 1.0
C      1  0.4058160000000  0.4630690000000  0.5862120000000 1.0
C      1  0.4115670000000  0.6018990000000  0.4846450000000 1.0
C      1  0.5904490000000  0.5488420000000  0.5636770000000 1.0
C      1  0.5907200000000  0.5210000000000  0.4271480000000 1.0
C      1  0.5894950000000  0.4330620000000  0.5182080000000 1.0
C      1  0.4684840000000  0.3981180000000  0.5671020000000 1.0
C      1  0.4709230000000  0.6063880000000  0.5505610000000 1.0
C      1  0.4647230000000  0.5017430000000  0.3721790000000 1.0
C      1  0.5431260000000  0.4831190000000  0.5642490000000 1.0
C      1  0.5567570000000  0.5671770000000  0.4818500000000 1.0
C      1  0.5504700000000  0.4548960000000  0.4485560000000 1.0
C      1  0.4112450000000  0.5774740000000  0.5300430000000 1.0
C      1  0.3771050000000  0.4534130000000  0.4318590000000 1.0
C      1  0.4072440000000  0.4284750000000  0.5477250000000 1.0
C      1  0.4714530000000  0.6145290000000  0.5240660000000 1.0
C      1  0.4592390000000  0.4745890000000  0.3778020000000 1.0
C      1  0.4636040000000  0.4179780000000  0.5860650000000 1.0
C      1  0.5409480000000  0.4882240000000  0.4839910000000 1.0
C      1  0.5442400000000  0.5002850000000  0.5102080000000 1.0
C      1  0.5440430000000  0.5291420000000  0.5072110000000 1.0
C      1  0.4900900000000  0.4372030000000  0.3782370000000 1.0
C      1  0.4978530000000  0.4325960000000  0.6149060000000 1.0
C      1  0.5088410000000  0.6319050000000  0.5017940000000 1.0
C      1  0.5392640000000  0.4913640000000  0.6429790000000 1.0
C      1  0.5498910000000  0.6248980000000  0.4363110000000 1.0
C      1  0.5316910000000  0.3881840000000  0.4221090000000 1.0
C      1  0.4147210000000  0.4808230000000  0.5063420000000 1.0
C      1  0.4181530000000  0.5243890000000  0.4903870000000 1.0
C      1  0.4147900000000  0.4961390000000  0.4799380000000 1.0
C      1  0.5093370000000  0.5678180000000  0.4784940000000 1.0
C      1  0.5083400000000  0.4645450000000  0.4624560000000 1.0
C      1  0.4972160000000  0.4859810000000  0.5719680000000 1.0
C      1  0.3619690000000  0.4983960000000  0.4672990000000 1.0
C      1  0.3688810000000  0.4623780000000  0.5152170000000 1.0
C      1  0.3749900000000  0.5263030000000  0.5212590000000 1.0
C      1  0.4749430000000  0.3797520000000  0.5227480000000 1.0
C      1  0.4737620000000  0.5755390000000  0.5876770000000 1.0
C      1  0.4712530000000  0.5325840000000  0.4092710000000 1.0
C      1  0.5687240000000  0.5571200000000  0.4062890000000 1.0
C      1  0.5673130000000  0.3976980000000  0.4941180000000 1.0
C      1  0.5646210000000  0.5507380000000  0.6037220000000 1.0
C      1  0.4437730000000  0.4201550000000  0.6058710000000 1.0
C      1  0.4541400000000  0.6331060000000  0.5121160000000 1.0
C      1  0.4359650000000  0.4588540000000  0.3794620000000 1.0
C      1  0.5720090000000  0.4245860000000  0.5613460000000 1.0
C      1  0.5765780000000  0.5882720000000  0.5408760000000 1.0
C      1  0.5706870000000  0.4888300000000  0.3993580000000 1.0
C      1  0.4338120000000  0.6030230000000  0.4349340000000 1.0
C      1  0.4292880000000  0.3757930000000  0.4522410000000 1.0
C      1  0.4257700000000  0.5079660000000  0.6099910000000 1.0
C      1  0.5106860000000  0.5158910000000  0.3895320000000 1.0
C      1  0.5116480000000  0.4039990000000  0.5427150000000 1.0
C      1  0.5142470000000  0.5850000000000  0.5620800000000 1.0
C      1  0.5258270000000  0.5192500000000  0.6018450000000 1.0
C      1  0.5336680000000  0.5758560000000  0.4338880000000 1.0
C      1  0.5262060000000  0.4116880000000  0.4670970000000 1.0
C      1  0.4702950000000  0.5604790000000  0.4111110000000 1.0
C      1  0.4717520000000  0.3807500000000  0.4964030000000 1.0
C      1  0.4689870000000  0.5537480000000  0.6021690000000 1.0
C      1  0.5136520000000  0.4091650000000  0.4104580000000 1.0
C      1  0.5209930000000  0.4709760000000  0.6310760000000 1.0
C      1  0.5322030000000  0.6272760000000  0.4605630000000 1.0
C      1  0.5719650000000  0.5290900000000  0.5544630000000 1.0
C      1  0.5712210000000  0.5218680000000  0.4478830000000 1.0
C      1  0.5716040000000  0.4506370000000  0.5045020000000 1.0
C      1  0.4853370000000  0.4364500000000  0.5898460000000 1.0
C      1  0.4951710000000  0.6088650000000  0.5099130000000 1.0
C      1  0.4816420000000  0.4613330000000  0.3898420000000 1.0
C      1  0.4037040000000  0.4412350000000  0.5710450000000 1.0
C      1  0.4088440000000  0.5955230000000  0.5103860000000 1.0
C      1  0.3747310000000  0.4268890000000  0.4314230000000 1.0
C      1  0.5516410000000  0.6136020000000  0.4810300000000 1.0
C      1  0.5332240000000  0.4326880000000  0.4099870000000 1.0
C      1  0.5392740000000  0.4623030000000  0.6072880000000 1.0
C      1  0.5197560000000  0.5161290000000  0.4520720000000 1.0
C      1  0.5164370000000  0.4511000000000  0.5108950000000 1.0
C      1  0.5177710000000  0.5341830000000  0.5451180000000 1.0
C      1  0.4863300000000  0.5903570000000  0.5672960000000 1.0
C      1  0.4818970000000  0.5196880000000  0.3859790000000 1.0
C      1  0.4854900000000  0.3921970000000  0.5455830000000 1.0
C      1  0.4141680000000  0.4859460000000  0.5969450000000 1.0
C      1  0.4202590000000  0.6020220000000  0.4595040000000 1.0
C      1  0.4045770000000  0.3867050000000  0.4449780000000 1.0
C      1  0.5784400000000  0.5218620000000  0.4752590000000 1.0
C      1  0.5817500000000  0.4716940000000  0.4867120000000 1.0
C      1  0.5795500000000  0.5032070000000  0.5442190000000 1.0
C      1  0.5414340000000  0.5506910000000  0.4184930000000 1.0
C      1  0.5399520000000  0.4101580000000  0.4947660000000 1.0
C      1  0.5386390000000  0.5443890000000  0.5898780000000 1.0
C      1  0.4646010000000  0.4763220000000  0.4575630000000 1.0
C      1  0.4609420000000  0.4816100000000  0.5410140000000 1.0
C      1  0.4678460000000  0.5490060000000  0.4891740000000 1.0
C      1  0.5181210000000  0.4906040000000  0.4018320000000 1.0
C      1  0.5212940000000  0.4246340000000  0.5591720000000 1.0
C      1  0.5269810000000  0.5865430000000  0.5361990000000 1.0
C      1  0.5242960000000  0.5438870000000  0.5194530000000 1.0
C      1  0.5195750000000  0.4911640000000  0.4658820000000 1.0
C      1  0.5160660000000  0.4614070000000  0.5366010000000 1.0
C      1  0.4739180000000  0.3915960000000  0.4710150000000 1.0
C      1  0.4729200000000  0.5279260000000  0.6115160000000 1.0
C      1  0.4796260000000  0.5837570000000  0.4231440000000 1.0
C      1  0.5887290000000  0.5529820000000  0.5915850000000 1.0
C      1  0.5919310000000  0.5445370000000  0.4117710000000 1.0
C      1  0.5895960000000  0.4072750000000  0.5064930000000 1.0
C      1  0.5973880000000  0.5702320000000  0.5465490000000 1.0
C      1  0.5938690000000  0.4960880000000  0.4142320000000 1.0
C      1  0.5917970000000  0.4378550000000  0.5459680000000 1.0
C      1  0.3513250000000  0.4842370000000  0.5119640000000 1.0
C      1  0.3569480000000  0.5073820000000  0.5270100000000 1.0
C      1  0.3438680000000  0.4900170000000  0.4853510000000 1.0
C      1  0.4444660000000  0.5344940000000  0.4971960000000 1.0
C      1  0.4368770000000  0.4817750000000  0.4601050000000 1.0
C      1  0.4397240000000  0.4758040000000  0.5205720000000 1.0
C      1  0.4329140000000  0.4354470000000  0.3926460000000 1.0
C      1  0.4416030000000  0.4377920000000  0.6261310000000 1.0
C      1  0.4538540000000  0.6456650000000  0.4884060000000 1.0
C      1  0.4769890000000  0.4882710000000  0.4330110000000 1.0
C      1  0.4727920000000  0.4535260000000  0.5455670000000 1.0
C      1  0.4796740000000  0.5610890000000  0.5138510000000 1.0
C      1  0.4326290000000  0.3242400000000  0.4680110000000 1.0
C      1  0.3962370000000  0.5520330000000  0.6199890000000 1.0
C      1  0.4064060000000  0.6031930000000  0.3884210000000 1.0
C      1  0.4192520000000  0.6034440000000  0.4110940000000 1.0
C      1  0.4306400000000  0.3490060000000  0.4601440000000 1.0
C      1  0.4100470000000  0.5303450000000  0.6157390000000 1.0
C      1  0.5063820000000  0.5736780000000  0.5091420000000 1.0
C      1  0.4938060000000  0.4763250000000  0.4111720000000 1.0
C      1  0.4959400000000  0.4511350000000  0.5654290000000 1.0
C      1  0.5245160000000  0.3988250000000  0.5179350000000 1.0
C      1  0.5260840000000  0.5708510000000  0.5837200000000 1.0
C      1  0.5251400000000  0.5391630000000  0.3962750000000 1.0
C      1  0.6225090000000  0.5717580000000  0.5334820000000 1.0
C      1  0.6164920000000  0.4800180000000  0.4209230000000 1.0
C      1  0.6047750000000  0.4613120000000  0.5561770000000 1.0
C      1  0.4886760000000  0.4480960000000  0.4999680000000 1.0
C      1  0.4888940000000  0.5268430000000  0.5476870000000 1.0
C      1  0.4943820000000  0.5292260000000  0.4514680000000 1.0
C      1  0.4432840000000  0.5397090000000  0.5273230000000 1.0
C      1  0.4217030000000  0.4718030000000  0.4378270000000 1.0
C      1  0.4410130000000  0.4452640000000  0.5160350000000 1.0
C      1  0.6027870000000  0.4864030000000  0.5421590000000 1.0
C      1  0.6279130000000  0.5543340000000  0.5121740000000 1.0
C      1  0.6304170000000  0.4841700000000  0.4453210000000 1.0
C      1  0.4882740000000  0.5497510000000  0.4695750000000 1.0
C      1  0.4827900000000  0.4610120000000  0.4742900000000 1.0
C      1  0.4796210000000  0.5001310000000  0.5543300000000 1.0
C      1  0.4987630000000  0.5159860000000  0.6154180000000 1.0
C      1  0.5066240000000  0.5899810000000  0.4315010000000 1.0
C      1  0.4971540000000  0.4044460000000  0.4597920000000 1.0
C      1  0.4618410000000  0.4060930000000  0.4275610000000 1.0
C      1  0.4665010000000  0.4841180000000  0.6283600000000 1.0
C      1  0.4779510000000  0.6234940000000  0.4485460000000 1.0
C      1  0.5605310000000  0.4729490000000  0.4679170000000 1.0
C      1  0.5537410000000  0.4909630000000  0.5373670000000 1.0
C      1  0.5634800000000  0.5408940000000  0.4904520000000 1.0
C      1  0.3938330000000  0.4738140000000  0.4405450000000 1.0
C      1  0.4135570000000  0.4374580000000  0.5218320000000 1.0
C      1  0.4164760000000  0.5499330000000  0.5302700000000 1.0
C      1  0.5466110000000  0.4593140000000  0.5803170000000 1.0
C      1  0.5575540000000  0.5913910000000  0.4971550000000 1.0
C      1  0.5461010000000  0.4551350000000  0.4203660000000 1.0
C      1  0.5340480000000  0.5692420000000  0.4641570000000 1.0
C      1  0.5265060000000  0.4421090000000  0.4591330000000 1.0
C      1  0.5220820000000  0.4972680000000  0.5783830000000 1.0
C      1  0.6355610000000  0.4908070000000  0.4709100000000 1.0
C      1  0.6221350000000  0.4909440000000  0.5218910000000 1.0
C      1  0.6287070000000  0.5319460000000  0.4978480000000 1.0
C      1  0.6218040000000  0.5032820000000  0.4945500000000 1.0
C      1  0.5926270000000  0.4991080000000  0.4866980000000 1.0
END
