TITL C-3201376-6384-969 -7.09806298714054e-07 125000 -441.222825894116 0 0 75 (C1) n - 1
REM
REM in /home/nfs/bkarasulu/CARBON/AIRSS/Generating-Clusters/LCBOP/Higher-Symm/SD-CG/FIRE-CG
REM
REM
REM
REM
REM
REM ./C.cell (b20cbc046b6831c77cfcea5457e17084)
REM AIRSS Version 0.9.1 bugfix July 2018 build 013d7b7c2542+ Fri, 06 Jul 2018 19:26:36 +0100
REM compiler GCC version 9.2.1 20190827 (Red Hat 9.2.1-1)
REM options -cpp -mtune=generic -march=x86-64 -g -O0 -fpre-include=/usr/include/finclude/math-vector-fortran.h
REM seed 1680324638 -1279345988 -1198617811 769430792 -1445975166 1886651026 355929463 -1006140805 -1855730460 -1274227646 -1693805062 1593875611 1097152727 912638525 -1190934392 84382836 1614376556 -1331900198 -474941207 1784693093 274902968 -531490913 1800523557 1492350062 -559073139 -290484843 981535523 402902117 -1740720557 1682411163 694445685 -799643268 -2013429881
REM
CELL 1.54180   50.00000   50.00000   50.00000   90.00000   90.00000   90.00000
LATT -1
SFAC C  
C      1  0.5780100000000  0.4687370000000  0.4575750000000 1.0
C      1  0.4650990000000  0.4745000000000  0.4333400000000 1.0
C      1  0.4193960000000  0.4696630000000  0.5419170000000 1.0
C      1  0.5410580000000  0.4695550000000  0.5809010000000 1.0
C      1  0.5633610000000  0.5212330000000  0.4631950000000 1.0
C      1  0.4652650000000  0.5298420000000  0.4327480000000 1.0
C      1  0.4355110000000  0.5195560000000  0.5329800000000 1.0
C      1  0.5383880000000  0.5235860000000  0.5695390000000 1.0
C      1  0.5426000000000  0.5033400000000  0.4705080000000 1.0
C      1  0.4784570000000  0.5154960000000  0.4542740000000 1.0
C      1  0.4549810000000  0.5026810000000  0.5212450000000 1.0
C      1  0.5327030000000  0.5034330000000  0.5502050000000 1.0
C      1  0.5199260000000  0.5004880000000  0.4836510000000 1.0
C      1  0.4765010000000  0.4895930000000  0.4552620000000 1.0
C      1  0.4762660000000  0.5003350000000  0.5059190000000 1.0
C      1  0.5158450000000  0.4996360000000  0.5304140000000 1.0
C      1  0.5912480000000  0.4850840000000  0.4768920000000 1.0
C      1  0.4771410000000  0.4868060000000  0.4100680000000 1.0
C      1  0.4058320000000  0.4848110000000  0.5217830000000 1.0
C      1  0.5216390000000  0.4860050000000  0.5943840000000 1.0
C      1  0.5877470000000  0.5139760000000  0.4756860000000 1.0
C      1  0.4764570000000  0.5168230000000  0.4092270000000 1.0
C      1  0.4100560000000  0.5135390000000  0.5219650000000 1.0
C      1  0.5231590000000  0.5153920000000  0.5923580000000 1.0
C      1  0.4636190000000  0.4484450000000  0.4958360000000 1.0
C      1  0.4926440000000  0.4535620000000  0.5364010000000 1.0
C      1  0.5346930000000  0.4518980000000  0.5070420000000 1.0
C      1  0.5051450000000  0.4491330000000  0.4649950000000 1.0
C      1  0.4630870000000  0.5548270000000  0.4955970000000 1.0
C      1  0.4948870000000  0.5538260000000  0.5366000000000 1.0
C      1  0.5353960000000  0.5535690000000  0.5050260000000 1.0
C      1  0.5035090000000  0.5574410000000  0.4642390000000 1.0
C      1  0.5499220000000  0.4423450000000  0.4855610000000 1.0
C      1  0.4839440000000  0.4359140000000  0.4513260000000 1.0
C      1  0.4491900000000  0.4406360000000  0.5184460000000 1.0
C      1  0.5137540000000  0.4435640000000  0.5517100000000 1.0
C      1  0.5500670000000  0.5625780000000  0.4828180000000 1.0
C      1  0.4810490000000  0.5693910000000  0.4516050000000 1.0
C      1  0.4487980000000  0.5624020000000  0.5185650000000 1.0
C      1  0.5171480000000  0.5627460000000  0.5513620000000 1.0
C      1  0.4479950000000  0.5438210000000  0.5400370000000 1.0
C      1  0.5405550000000  0.5467200000000  0.5528550000000 1.0
C      1  0.5505620000000  0.5464280000000  0.4595670000000 1.0
C      1  0.4576490000000  0.5530600000000  0.4474670000000 1.0
C      1  0.4451810000000  0.4578230000000  0.5409110000000 1.0
C      1  0.5385830000000  0.4572780000000  0.5551410000000 1.0
C      1  0.5528450000000  0.4559410000000  0.4606480000000 1.0
C      1  0.4594170000000  0.4503760000000  0.4474860000000 1.0
C      1  0.5046470000000  0.4776130000000  0.4083520000000 1.0
C      1  0.4081980000000  0.4751560000000  0.4948850000000 1.0
C      1  0.4943010000000  0.4774010000000  0.5911170000000 1.0
C      1  0.5892180000000  0.4762500000000  0.5042170000000 1.0
C      1  0.5036080000000  0.5268440000000  0.4067060000000 1.0
C      1  0.4080240000000  0.5246890000000  0.4955100000000 1.0
C      1  0.4967430000000  0.5268120000000  0.5919510000000 1.0
C      1  0.5897730000000  0.5256420000000  0.5018730000000 1.0
C      1  0.5208070000000  0.5210370000000  0.4290170000000 1.0
C      1  0.4298380000000  0.5192950000000  0.4774120000000 1.0
C      1  0.4790160000000  0.5183520000000  0.5703320000000 1.0
C      1  0.5688760000000  0.5176270000000  0.5207980000000 1.0
C      1  0.5221670000000  0.4848570000000  0.4301520000000 1.0
C      1  0.4301030000000  0.4822270000000  0.4777010000000 1.0
C      1  0.4773750000000  0.4880730000000  0.5697760000000 1.0
C      1  0.5683920000000  0.4866990000000  0.5220300000000 1.0
C      1  0.5268080000000  0.4634550000000  0.4503120000000 1.0
C      1  0.4488440000000  0.4594300000000  0.4736240000000 1.0
C      1  0.4708050000000  0.4676930000000  0.5497730000000 1.0
C      1  0.5486600000000  0.4655390000000  0.5290640000000 1.0
C      1  0.5239580000000  0.5429640000000  0.4487500000000 1.0
C      1  0.4479650000000  0.5430480000000  0.4736590000000 1.0
C      1  0.4742230000000  0.5393850000000  0.5507310000000 1.0
C      1  0.5498950000000  0.5398860000000  0.5261120000000 1.0
C      1  0.4996760000000  0.5548340000000  0.5008380000000 1.0
C      1  0.4997080000000  0.4506810000000  0.5004080000000 1.0
C      1  0.5037280000000  0.5005040000000  0.5057910000000 1.0
END
