TITL C-3201373-1215-545 -7.93608029624596e-07 125000 -1261.09993219237 0 0 199 (D2) n - 1
REM
REM in /home/nfs/bkarasulu/CARBON/AIRSS/Generating-Clusters/LCBOP/Higher-Symm/SD-CG/FIRE-CG
REM
REM
REM
REM
REM
REM ./C.cell (b20cbc046b6831c77cfcea5457e17084)
REM AIRSS Version 0.9.1 bugfix July 2018 build 013d7b7c2542+ Fri, 06 Jul 2018 19:26:36 +0100
REM compiler GCC version 9.2.1 20190827 (Red Hat 9.2.1-1)
REM options -cpp -mtune=generic -march=x86-64 -g -O0 -fpre-include=/usr/include/finclude/math-vector-fortran.h
REM seed -2059872622 -406614281 -843263249 -1264731987 954511959 1577026818 885566575 -1456373753 1898534180 -52621966 -1866070615 -711751788 835649889 1891667224 -222033544 -859156265 1036252333 1866832295 744919347 514115425 -717823907 914018364 1246243217 1345898568 -1399848753 500088093 1019375095 1415188980 -2010155163 202619939 -971251609 229457270 1924635225
REM
CELL 1.54180   50.00000   50.00000   50.00000   90.00000   90.00000   90.00000
LATT -1
SFAC C  
C      1  0.4384560000000  0.5462090000000  0.4491150000000 1.0
C      1  0.4384560000000  0.4541370000000  0.5512260000000 1.0
C      1  0.5617170000000  0.4541420000000  0.4491150000000 1.0
C      1  0.5617130000000  0.5462090000000  0.5512300000000 1.0
C      1  0.4432440000000  0.5497170000000  0.5111790000000 1.0
C      1  0.4432470000000  0.4506290000000  0.4891630000000 1.0
C      1  0.5569270000000  0.4506310000000  0.5111780000000 1.0
C      1  0.5569250000000  0.5497200000000  0.4891670000000 1.0
C      1  0.6043610000000  0.5634220000000  0.4407810000000 1.0
C      1  0.6043620000000  0.4369310000000  0.5595660000000 1.0
C      1  0.3958120000000  0.4369290000000  0.4407750000000 1.0
C      1  0.3958080000000  0.5634150000000  0.5595650000000 1.0
C      1  0.6245690000000  0.5274620000000  0.5189910000000 1.0
C      1  0.6245710000000  0.4728920000000  0.4813560000000 1.0
C      1  0.3756010000000  0.4728860000000  0.5189860000000 1.0
C      1  0.3756010000000  0.5274570000000  0.4813540000000 1.0
C      1  0.4967720000000  0.4413580000000  0.4648760000000 1.0
C      1  0.4967690000000  0.5589900000000  0.5354680000000 1.0
C      1  0.5034000000000  0.5589920000000  0.4648780000000 1.0
C      1  0.5034020000000  0.4413570000000  0.5354650000000 1.0
C      1  0.4873610000000  0.4134940000000  0.5901680000000 1.0
C      1  0.4873600000000  0.5868540000000  0.4101760000000 1.0
C      1  0.5128080000000  0.5868510000000  0.5901720000000 1.0
C      1  0.5128140000000  0.4134990000000  0.4101720000000 1.0
C      1  0.4635160000000  0.5820090000000  0.4256450000000 1.0
C      1  0.4635170000000  0.4183380000000  0.5746970000000 1.0
C      1  0.5366580000000  0.4183430000000  0.4256430000000 1.0
C      1  0.5366520000000  0.5820070000000  0.5747020000000 1.0
C      1  0.4266260000000  0.4818860000000  0.5999670000000 1.0
C      1  0.4266280000000  0.5184600000000  0.4003740000000 1.0
C      1  0.5735420000000  0.5184580000000  0.5999700000000 1.0
C      1  0.5735460000000  0.4818940000000  0.4003750000000 1.0
C      1  0.4326710000000  0.4333190000000  0.4044080000000 1.0
C      1  0.4326650000000  0.5670270000000  0.5959340000000 1.0
C      1  0.5675030000000  0.5670340000000  0.4044130000000 1.0
C      1  0.5675040000000  0.4333170000000  0.5959330000000 1.0
C      1  0.4889350000000  0.4327040000000  0.4144810000000 1.0
C      1  0.4889290000000  0.5676440000000  0.5858620000000 1.0
C      1  0.5112390000000  0.5676480000000  0.4144840000000 1.0
C      1  0.5112400000000  0.4327010000000  0.5858600000000 1.0
C      1  0.5657920000000  0.5944830000000  0.4599560000000 1.0
C      1  0.5657950000000  0.4058690000000  0.5403890000000 1.0
C      1  0.4343810000000  0.4058670000000  0.4599500000000 1.0
C      1  0.4343750000000  0.5944780000000  0.5403920000000 1.0
C      1  0.3634530000000  0.4856640000000  0.4963850000000 1.0
C      1  0.3634530000000  0.5146790000000  0.5039540000000 1.0
C      1  0.6367180000000  0.5146850000000  0.4963900000000 1.0
C      1  0.6367180000000  0.4856690000000  0.5039580000000 1.0
C      1  0.4565930000000  0.5015660000000  0.4774200000000 1.0
C      1  0.4565920000000  0.4987800000000  0.5229220000000 1.0
C      1  0.5435790000000  0.4987830000000  0.4774220000000 1.0
C      1  0.5435790000000  0.5015670000000  0.5229230000000 1.0
C      1  0.4818800000000  0.4266690000000  0.4454250000000 1.0
C      1  0.4818750000000  0.5736780000000  0.5549180000000 1.0
C      1  0.5182930000000  0.5736820000000  0.4454290000000 1.0
C      1  0.5182950000000  0.4266680000000  0.5549160000000 1.0
C      1  0.5187220000000  0.4866390000000  0.5201070000000 1.0
C      1  0.5187220000000  0.5137100000000  0.4802370000000 1.0
C      1  0.4814490000000  0.5137080000000  0.5201070000000 1.0
C      1  0.4814500000000  0.4866390000000  0.4802360000000 1.0
C      1  0.4909820000000  0.4352740000000  0.5109380000000 1.0
C      1  0.4909790000000  0.5650740000000  0.4894050000000 1.0
C      1  0.5091890000000  0.5650740000000  0.5109410000000 1.0
C      1  0.5091930000000  0.4352750000000  0.4894030000000 1.0
C      1  0.5541140000000  0.5480470000000  0.4602890000000 1.0
C      1  0.5541150000000  0.4523040000000  0.5400560000000 1.0
C      1  0.4460580000000  0.4523040000000  0.4602860000000 1.0
C      1  0.4460550000000  0.5480430000000  0.5400560000000 1.0
C      1  0.5381430000000  0.5611360000000  0.5087010000000 1.0
C      1  0.5381460000000  0.4392140000000  0.4916440000000 1.0
C      1  0.4620280000000  0.4392120000000  0.5086970000000 1.0
C      1  0.4620250000000  0.5611350000000  0.4916460000000 1.0
C      1  0.3794710000000  0.5439040000000  0.5450780000000 1.0
C      1  0.3794740000000  0.4564390000000  0.4552630000000 1.0
C      1  0.6206990000000  0.4564430000000  0.5450790000000 1.0
C      1  0.6206980000000  0.5439120000000  0.4552680000000 1.0
C      1  0.4772240000000  0.4980270000000  0.6198350000000 1.0
C      1  0.4772280000000  0.5023210000000  0.3805080000000 1.0
C      1  0.5229440000000  0.5023160000000  0.6198360000000 1.0
C      1  0.5229470000000  0.4980330000000  0.3805080000000 1.0
C      1  0.5572820000000  0.4719090000000  0.5614490000000 1.0
C      1  0.5572830000000  0.5284420000000  0.4388960000000 1.0
C      1  0.4428870000000  0.5284360000000  0.5614490000000 1.0
C      1  0.4428900000000  0.4719100000000  0.4388930000000 1.0
C      1  0.4991520000000  0.5376120000000  0.5920570000000 1.0
C      1  0.4991570000000  0.4627360000000  0.4082860000000 1.0
C      1  0.5010160000000  0.4627320000000  0.5920560000000 1.0
C      1  0.5010170000000  0.5376160000000  0.4082880000000 1.0
C      1  0.5247460000000  0.4808180000000  0.6000440000000 1.0
C      1  0.5247480000000  0.5195320000000  0.4003000000000 1.0
C      1  0.4754220000000  0.5195270000000  0.6000440000000 1.0
C      1  0.4754260000000  0.4808210000000  0.4002990000000 1.0
C      1  0.5060590000000  0.5310050000000  0.4604980000000 1.0
C      1  0.5060600000000  0.4693440000000  0.5398460000000 1.0
C      1  0.4941130000000  0.4693460000000  0.4604960000000 1.0
C      1  0.4941110000000  0.5310030000000  0.5398470000000 1.0
C      1  0.4181420000000  0.4748410000000  0.4237560000000 1.0
C      1  0.4181390000000  0.5255040000000  0.5765850000000 1.0
C      1  0.5820320000000  0.5255110000000  0.4237600000000 1.0
C      1  0.5820310000000  0.4748410000000  0.5765860000000 1.0
C      1  0.3969690000000  0.5168020000000  0.4386410000000 1.0
C      1  0.3969680000000  0.4835420000000  0.5616990000000 1.0
C      1  0.6032040000000  0.4835500000000  0.4386430000000 1.0
C      1  0.6032020000000  0.5168040000000  0.5617030000000 1.0
C      1  0.6203160000000  0.4921590000000  0.4594280000000 1.0
C      1  0.6203150000000  0.5081950000000  0.5409190000000 1.0
C      1  0.3798560000000  0.5081920000000  0.4594250000000 1.0
C      1  0.3798550000000  0.4921520000000  0.5409150000000 1.0
C      1  0.5905890000000  0.4585250000000  0.4439270000000 1.0
C      1  0.5905850000000  0.5418280000000  0.5564190000000 1.0
C      1  0.4095840000000  0.5418270000000  0.4439260000000 1.0
C      1  0.4095840000000  0.4585180000000  0.5564140000000 1.0
C      1  0.5459490000000  0.4252110000000  0.5480890000000 1.0
C      1  0.5459470000000  0.5751400000000  0.4522560000000 1.0
C      1  0.4542210000000  0.5751350000000  0.5480910000000 1.0
C      1  0.4542260000000  0.4252110000000  0.4522510000000 1.0
C      1  0.5925550000000  0.5867580000000  0.4525710000000 1.0
C      1  0.5925570000000  0.4135950000000  0.5477750000000 1.0
C      1  0.4076180000000  0.4135930000000  0.4525650000000 1.0
C      1  0.4076130000000  0.5867520000000  0.5477760000000 1.0
C      1  0.3940050000000  0.4530680000000  0.5121660000000 1.0
C      1  0.3940030000000  0.5472760000000  0.4881750000000 1.0
C      1  0.6061660000000  0.5472810000000  0.5121710000000 1.0
C      1  0.6061680000000  0.4530730000000  0.4881760000000 1.0
C      1  0.5403480000000  0.5710840000000  0.4018940000000 1.0
C      1  0.5403490000000  0.4292660000000  0.5984510000000 1.0
C      1  0.4598260000000  0.4292690000000  0.4018900000000 1.0
C      1  0.4598200000000  0.5710780000000  0.5984530000000 1.0
C      1  0.4692780000000  0.5114190000000  0.4365270000000 1.0
C      1  0.4692770000000  0.4889280000000  0.5638150000000 1.0
C      1  0.5308950000000  0.4889320000000  0.4365280000000 1.0
C      1  0.5308920000000  0.5114180000000  0.5638170000000 1.0
C      1  0.5527460000000  0.3807360000000  0.4943160000000 1.0
C      1  0.5527400000000  0.6196150000000  0.5060290000000 1.0
C      1  0.4474260000000  0.6196130000000  0.4943200000000 1.0
C      1  0.4474310000000  0.3807340000000  0.5060220000000 1.0
C      1  0.4104960000000  0.4985360000000  0.5823030000000 1.0
C      1  0.4104980000000  0.5018090000000  0.4180380000000 1.0
C      1  0.5896730000000  0.5018090000000  0.5823060000000 1.0
C      1  0.5896760000000  0.4985440000000  0.4180400000000 1.0
C      1  0.5065880000000  0.4756580000000  0.4357650000000 1.0
C      1  0.5065860000000  0.5246910000000  0.5645790000000 1.0
C      1  0.4935850000000  0.5246940000000  0.4357660000000 1.0
C      1  0.4935840000000  0.4756550000000  0.5645770000000 1.0
C      1  0.4399940000000  0.3879360000000  0.4811600000000 1.0
C      1  0.4399880000000  0.6124100000000  0.5191820000000 1.0
C      1  0.5601780000000  0.6124130000000  0.4811670000000 1.0
C      1  0.5601820000000  0.3879380000000  0.5191780000000 1.0
C      1  0.4515350000000  0.4800180000000  0.5436180000000 1.0
C      1  0.4515350000000  0.5203290000000  0.4567240000000 1.0
C      1  0.5486350000000  0.5203290000000  0.5436200000000 1.0
C      1  0.5486380000000  0.4800220000000  0.4567250000000 1.0
C      1  0.5835150000000  0.4514060000000  0.5019510000000 1.0
C      1  0.5835130000000  0.5489460000000  0.4983950000000 1.0
C      1  0.4166560000000  0.5489420000000  0.5019510000000 1.0
C      1  0.4166580000000  0.4514020000000  0.4983900000000 1.0
C      1  0.5253640000000  0.4710140000000  0.3916810000000 1.0
C      1  0.5253600000000  0.5293360000000  0.6086630000000 1.0
C      1  0.4748100000000  0.5293390000000  0.3916820000000 1.0
C      1  0.4748090000000  0.4710080000000  0.6086610000000 1.0
C      1  0.5890510000000  0.5527550000000  0.4182380000000 1.0
C      1  0.5890510000000  0.4475970000000  0.5821080000000 1.0
C      1  0.4111230000000  0.4475970000000  0.4182330000000 1.0
C      1  0.4111180000000  0.5527480000000  0.5821080000000 1.0
C      1  0.4489040000000  0.4434480000000  0.5787520000000 1.0
C      1  0.4489030000000  0.5568990000000  0.4215900000000 1.0
C      1  0.5512650000000  0.5568970000000  0.5787560000000 1.0
C      1  0.5512700000000  0.4434540000000  0.4215890000000 1.0
C      1  0.3725160000000  0.5192080000000  0.5319510000000 1.0
C      1  0.3725170000000  0.4811350000000  0.4683890000000 1.0
C      1  0.6276550000000  0.4811390000000  0.5319540000000 1.0
C      1  0.6276550000000  0.5192150000000  0.4683930000000 1.0
C      1  0.5109260000000  0.6073370000000  0.6081260000000 1.0
C      1  0.5109340000000  0.3930120000000  0.3922180000000 1.0
C      1  0.4892420000000  0.3930070000000  0.6081210000000 1.0
C      1  0.4892410000000  0.6073420000000  0.3922230000000 1.0
C      1  0.4544480000000  0.3855710000000  0.5317260000000 1.0
C      1  0.4544440000000  0.6147750000000  0.4686160000000 1.0
C      1  0.5457220000000  0.6147760000000  0.5317330000000 1.0
C      1  0.5457280000000  0.3855750000000  0.4686120000000 1.0
C      1  0.4566210000000  0.4085430000000  0.5478360000000 1.0
C      1  0.4566190000000  0.5918040000000  0.4525060000000 1.0
C      1  0.5435490000000  0.5918040000000  0.5478420000000 1.0
C      1  0.5435540000000  0.4085470000000  0.4525030000000 1.0
C      1  0.5377910000000  0.4870890000000  0.5753230000000 1.0
C      1  0.5377920000000  0.5132620000000  0.4250220000000 1.0
C      1  0.4623790000000  0.5132570000000  0.5753220000000 1.0
C      1  0.4623810000000  0.4870900000000  0.4250200000000 1.0
C      1  0.4487080000000  0.5373480000000  0.4006970000000 1.0
C      1  0.4487070000000  0.4629980000000  0.5996450000000 1.0
C      1  0.5514660000000  0.4630050000000  0.4006970000000 1.0
C      1  0.5514610000000  0.5373460000000  0.5996480000000 1.0
C      1  0.4487740000000  0.5679220000000  0.4671140000000 1.0
C      1  0.4487760000000  0.4324240000000  0.5332290000000 1.0
C      1  0.5513980000000  0.4324280000000  0.4671120000000 1.0
C      1  0.5513940000000  0.5679230000000  0.5332330000000 1.0
C      1  0.5000880000000  0.5001770000000  0.3639130000000 1.0
C      1  0.5000840000000  0.5001710000000  0.6364300000000 1.0
C      1  0.5000860000000  0.5001740000000  0.5001720000000 1.0
END
