TITL C-3201379-3821-1007 -9.87459749943081e-07 125000 -1113.89166341313 0 0 177 (C3v) n - 1
REM
REM in /home/nfs/bkarasulu/CARBON/AIRSS/Generating-Clusters/LCBOP/Higher-Symm/SD-CG/FIRE-CG
REM
REM
REM
REM
REM
REM ./C.cell (b20cbc046b6831c77cfcea5457e17084)
REM AIRSS Version 0.9.1 bugfix July 2018 build 013d7b7c2542+ Fri, 06 Jul 2018 19:26:36 +0100
REM compiler GCC version 9.2.1 20190827 (Red Hat 9.2.1-1)
REM options -cpp -mtune=generic -march=x86-64 -g -O0 -fpre-include=/usr/include/finclude/math-vector-fortran.h
REM seed 1101341947 731006428 -353116368 53131959 830724719 -1606449220 -320432515 -1633275818 1298923978 1488812873 -411347349 -902413748 -1357583164 992567011 1250242781 -2106952172 1363165217 -1864592324 -2076653753 -879143049 1294743088 -819065062 1824210575 -665990165 562484853 827496110 1144032833 -1985051574 1736677954 -1900248035 1057055668 -1323981951 1320125823
REM
CELL 1.54180   50.00000   50.00000   50.00000   90.00000   90.00000   90.00000
LATT -1
SFAC C  
C      1  0.4130350000000  0.5109650000000  0.5336450000000 1.0
C      1  0.5726170000000  0.5109950000000  0.5584890000000 1.0
C      1  0.5143410000000  0.5109840000000  0.4078660000000 1.0
C      1  0.5869630000000  0.5109970000000  0.5336380000000 1.0
C      1  0.4273840000000  0.5109680000000  0.5584950000000 1.0
C      1  0.4856470000000  0.5109780000000  0.4078670000000 1.0
C      1  0.5484630000000  0.5581310000000  0.5019520000000 1.0
C      1  0.4774420000000  0.5581180000000  0.4570450000000 1.0
C      1  0.4740620000000  0.5581170000000  0.5410040000000 1.0
C      1  0.4515160000000  0.5581130000000  0.5019550000000 1.0
C      1  0.5225320000000  0.5581260000000  0.4570430000000 1.0
C      1  0.5259190000000  0.5581270000000  0.5410010000000 1.0
C      1  0.5685350000000  0.5541960000000  0.5225830000000 1.0
C      1  0.4852750000000  0.5541800000000  0.4293470000000 1.0
C      1  0.4461600000000  0.5541730000000  0.5480700000000 1.0
C      1  0.4314470000000  0.5541700000000  0.5225890000000 1.0
C      1  0.5146990000000  0.5541860000000  0.4293460000000 1.0
C      1  0.5538240000000  0.5541930000000  0.5480660000000 1.0
C      1  0.4066240000000  0.4211130000000  0.5382280000000 1.0
C      1  0.5798160000000  0.4211460000000  0.5617650000000 1.0
C      1  0.5136040000000  0.4211330000000  0.4000080000000 1.0
C      1  0.5934080000000  0.4211480000000  0.5382200000000 1.0
C      1  0.4202180000000  0.4211160000000  0.5617710000000 1.0
C      1  0.4864170000000  0.4211280000000  0.4000090000000 1.0
C      1  0.5589720000000  0.4396900000000  0.5674530000000 1.0
C      1  0.5289460000000  0.4396840000000  0.4152120000000 1.0
C      1  0.4121150000000  0.4396630000000  0.5173360000000 1.0
C      1  0.4410550000000  0.4396680000000  0.5674570000000 1.0
C      1  0.4710690000000  0.4396730000000  0.4152140000000 1.0
C      1  0.5879090000000  0.4396950000000  0.5173290000000 1.0
C      1  0.4288400000000  0.5639780000000  0.4425420000000 1.0
C      1  0.4858020000000  0.5639890000000  0.5903440000000 1.0
C      1  0.5853220000000  0.5640070000000  0.4671130000000 1.0
C      1  0.5711310000000  0.5640040000000  0.4425370000000 1.0
C      1  0.5141810000000  0.5639940000000  0.5903430000000 1.0
C      1  0.4146520000000  0.5639750000000  0.4671200000000 1.0
C      1  0.5676080000000  0.4489040000000  0.4454760000000 1.0
C      1  0.4189910000000  0.4488770000000  0.4687200000000 1.0
C      1  0.5134290000000  0.4488940000000  0.5858040000000 1.0
C      1  0.4324060000000  0.4488790000000  0.4454820000000 1.0
C      1  0.5810250000000  0.4489070000000  0.4687130000000 1.0
C      1  0.4865970000000  0.4488890000000  0.5858050000000 1.0
C      1  0.4465190000000  0.5372040000000  0.5945940000000 1.0
C      1  0.6086500000000  0.5372340000000  0.4990130000000 1.0
C      1  0.4448090000000  0.5372040000000  0.4063930000000 1.0
C      1  0.5534740000000  0.5372240000000  0.5945890000000 1.0
C      1  0.3913350000000  0.5371940000000  0.4990210000000 1.0
C      1  0.5551690000000  0.5372240000000  0.4063890000000 1.0
C      1  0.5148610000000  0.6107210000000  0.5664050000000 1.0
C      1  0.5500470000000  0.6107270000000  0.4539090000000 1.0
C      1  0.4350300000000  0.6107060000000  0.4796850000000 1.0
C      1  0.4851030000000  0.6107150000000  0.5664060000000 1.0
C      1  0.4499080000000  0.6107090000000  0.4539130000000 1.0
C      1  0.5649270000000  0.6107300000000  0.4796800000000 1.0
C      1  0.5904430000000  0.5377510000000  0.4777630000000 1.0
C      1  0.4355100000000  0.5377230000000  0.4327870000000 1.0
C      1  0.4740260000000  0.5377300000000  0.5894510000000 1.0
C      1  0.4095410000000  0.5377180000000  0.4777700000000 1.0
C      1  0.5644710000000  0.5377470000000  0.4327810000000 1.0
C      1  0.5259670000000  0.5377400000000  0.5894490000000 1.0
C      1  0.4695150000000  0.4907330000000  0.4997420000000 1.0
C      1  0.5150210000000  0.4907410000000  0.5265310000000 1.0
C      1  0.5154680000000  0.4907410000000  0.4737270000000 1.0
C      1  0.5304880000000  0.4907440000000  0.4997390000000 1.0
C      1  0.4849840000000  0.4907360000000  0.5265320000000 1.0
C      1  0.4845330000000  0.4907360000000  0.4737280000000 1.0
C      1  0.4853310000000  0.3524840000000  0.5258480000000 1.0
C      1  0.5297600000000  0.3524920000000  0.4998040000000 1.0
C      1  0.4849900000000  0.3524830000000  0.4743490000000 1.0
C      1  0.5147260000000  0.3524890000000  0.5258470000000 1.0
C      1  0.4702940000000  0.3524810000000  0.4998060000000 1.0
C      1  0.5150620000000  0.3524890000000  0.4743480000000 1.0
C      1  0.4852040000000  0.5813540000000  0.4747000000000 1.0
C      1  0.4854640000000  0.5813540000000  0.5254500000000 1.0
C      1  0.5292850000000  0.5813620000000  0.4998500000000 1.0
C      1  0.5147630000000  0.5813590000000  0.4746990000000 1.0
C      1  0.5145070000000  0.5813590000000  0.5254490000000 1.0
C      1  0.4706840000000  0.5813510000000  0.4998520000000 1.0
C      1  0.4413060000000  0.5892630000000  0.4365500000000 1.0
C      1  0.4743730000000  0.5892690000000  0.5825410000000 1.0
C      1  0.5842720000000  0.5892900000000  0.4809090000000 1.0
C      1  0.5586560000000  0.5892850000000  0.4365450000000 1.0
C      1  0.5256010000000  0.5892790000000  0.5825390000000 1.0
C      1  0.4156930000000  0.5892580000000  0.4809150000000 1.0
C      1  0.4032250000000  0.5516020000000  0.5718010000000 1.0
C      1  0.6105540000000  0.5516400000000  0.5479000000000 1.0
C      1  0.4861910000000  0.5516170000000  0.3802980000000 1.0
C      1  0.5967610000000  0.5516380000000  0.5717930000000 1.0
C      1  0.3894300000000  0.5515990000000  0.5479090000000 1.0
C      1  0.5137800000000  0.5516220000000  0.3802970000000 1.0
C      1  0.4235370000000  0.4639100000000  0.5272270000000 1.0
C      1  0.5618210000000  0.4639360000000  0.5526110000000 1.0
C      1  0.5146620000000  0.4639270000000  0.4201620000000 1.0
C      1  0.5764780000000  0.4639390000000  0.5272210000000 1.0
C      1  0.4381970000000  0.4639130000000  0.5526160000000 1.0
C      1  0.4853450000000  0.4639220000000  0.4201630000000 1.0
C      1  0.5294060000000  0.4041030000000  0.5844320000000 1.0
C      1  0.5584440000000  0.4041080000000  0.4323330000000 1.0
C      1  0.4122030000000  0.4040810000000  0.4832350000000 1.0
C      1  0.4706370000000  0.4040920000000  0.5844350000000 1.0
C      1  0.4415860000000  0.4040870000000  0.4323380000000 1.0
C      1  0.5878310000000  0.4041140000000  0.4832280000000 1.0
C      1  0.4751370000000  0.6244060000000  0.4517630000000 1.0
C      1  0.4706230000000  0.6244060000000  0.5456300000000 1.0
C      1  0.5541710000000  0.6244210000000  0.5026060000000 1.0
C      1  0.5248130000000  0.6244160000000  0.4517610000000 1.0
C      1  0.5293350000000  0.6244170000000  0.5456280000000 1.0
C      1  0.4457830000000  0.6244010000000  0.5026100000000 1.0
C      1  0.5135230000000  0.3724500000000  0.4293250000000 1.0
C      1  0.4320670000000  0.3724350000000  0.5236470000000 1.0
C      1  0.5544800000000  0.3724580000000  0.5470290000000 1.0
C      1  0.4865180000000  0.3724450000000  0.4293260000000 1.0
C      1  0.5679820000000  0.3724610000000  0.5236410000000 1.0
C      1  0.4455710000000  0.3724380000000  0.5470330000000 1.0
C      1  0.4748420000000  0.3758670000000  0.5444100000000 1.0
C      1  0.5510740000000  0.3758810000000  0.4996030000000 1.0
C      1  0.4741540000000  0.3758660000000  0.4559870000000 1.0
C      1  0.5252080000000  0.3758760000000  0.5444080000000 1.0
C      1  0.4489720000000  0.3758620000000  0.4996070000000 1.0
C      1  0.5258890000000  0.3758760000000  0.4559850000000 1.0
C      1  0.5261640000000  0.5389230000000  0.4043500000000 1.0
C      1  0.4040720000000  0.5389000000000  0.5251600000000 1.0
C      1  0.5697420000000  0.5389310000000  0.5704900000000 1.0
C      1  0.4738140000000  0.5389130000000  0.4043520000000 1.0
C      1  0.5959160000000  0.5389360000000  0.5251520000000 1.0
C      1  0.4302490000000  0.5389050000000  0.5704960000000 1.0
C      1  0.5531490000000  0.4900190000000  0.5599570000000 1.0
C      1  0.5253530000000  0.4900130000000  0.4239940000000 1.0
C      1  0.4215030000000  0.4899940000000  0.5160490000000 1.0
C      1  0.4468590000000  0.4899990000000  0.5599620000000 1.0
C      1  0.4746450000000  0.4900040000000  0.4239960000000 1.0
C      1  0.5785020000000  0.4900230000000  0.5160420000000 1.0
C      1  0.5331530000000  0.4981010000000  0.4501220000000 1.0
C      1  0.4402280000000  0.4980840000000  0.4962270000000 1.0
C      1  0.5266190000000  0.4981000000000  0.5536500000000 1.0
C      1  0.4668430000000  0.4980890000000  0.4501250000000 1.0
C      1  0.5597720000000  0.4981060000000  0.4962220000000 1.0
C      1  0.4733860000000  0.4980900000000  0.5536520000000 1.0
C      1  0.4474990000000  0.4316580000000  0.4290120000000 1.0
C      1  0.4647920000000  0.4316610000000  0.5809720000000 1.0
C      1  0.5877460000000  0.4316840000000  0.4900160000000 1.0
C      1  0.5525200000000  0.4316770000000  0.4290080000000 1.0
C      1  0.5352400000000  0.4316740000000  0.5809690000000 1.0
C      1  0.4122780000000  0.4316510000000  0.4900230000000 1.0
C      1  0.5544360000000  0.3844850000000  0.4522660000000 1.0
C      1  0.4314750000000  0.3844630000000  0.4767430000000 1.0
C      1  0.5141530000000  0.3844780000000  0.5709920000000 1.0
C      1  0.4456030000000  0.3844650000000  0.4522710000000 1.0
C      1  0.5685660000000  0.3844880000000  0.4767370000000 1.0
C      1  0.4858960000000  0.3844730000000  0.5709930000000 1.0
C      1  0.5285960000000  0.6387860000000  0.4997100000000 1.0
C      1  0.4854120000000  0.6387780000000  0.4753580000000 1.0
C      1  0.4859140000000  0.6387780000000  0.5249320000000 1.0
C      1  0.4713530000000  0.6387750000000  0.4997120000000 1.0
C      1  0.5145340000000  0.6387830000000  0.4753570000000 1.0
C      1  0.5140360000000  0.6387830000000  0.5249310000000 1.0
C      1  0.4705940000000  0.3994850000000  0.5002100000000 1.0
C      1  0.5149130000000  0.3994930000000  0.5253780000000 1.0
C      1  0.5145490000000  0.3994930000000  0.4744130000000 1.0
C      1  0.5294430000000  0.3994960000000  0.5002080000000 1.0
C      1  0.4851260000000  0.3994870000000  0.5253790000000 1.0
C      1  0.4854860000000  0.3994870000000  0.4744140000000 1.0
C      1  0.5705880000000  0.5161280000000  0.4756380000000 1.0
C      1  0.4436040000000  0.5161050000000  0.4510470000000 1.0
C      1  0.4857990000000  0.5161130000000  0.5733140000000 1.0
C      1  0.4294040000000  0.5161020000000  0.4756440000000 1.0
C      1  0.5563860000000  0.5161260000000  0.4510430000000 1.0
C      1  0.5142000000000  0.5161180000000  0.5733130000000 1.0
C      1  0.4854620000000  0.5361370000000  0.4752350000000 1.0
C      1  0.4858120000000  0.5361370000000  0.5249670000000 1.0
C      1  0.5287060000000  0.5361450000000  0.4997970000000 1.0
C      1  0.5145230000000  0.5361430000000  0.4752340000000 1.0
C      1  0.5141760000000  0.5361430000000  0.5249660000000 1.0
C      1  0.4712810000000  0.5361350000000  0.4998000000000 1.0
C      1  0.4999750000000  0.6189930000000  0.4366940000000 1.0
C      1  0.4451540000000  0.6189830000000  0.5316550000000 1.0
C      1  0.5548040000000  0.6190030000000  0.5316510000000 1.0
END
