TITL C-3201376-6384-425 -0.0673439498398392 125000 -477.797723643141 0 0 78 (C1) n - 1
REM
REM in /home/nfs/bkarasulu/CARBON/AIRSS/Generating-Clusters/LCBOP/Higher-Symm/SD-CG/FIRE-CG
REM
REM
REM
REM
REM
REM ./C.cell (b20cbc046b6831c77cfcea5457e17084)
REM AIRSS Version 0.9.1 bugfix July 2018 build 013d7b7c2542+ Fri, 06 Jul 2018 19:26:36 +0100
REM compiler GCC version 9.2.1 20190827 (Red Hat 9.2.1-1)
REM options -cpp -mtune=generic -march=x86-64 -g -O0 -fpre-include=/usr/include/finclude/math-vector-fortran.h
REM seed 1796573857 411198655 -873417169 -881034513 1108747831 -654011672 -1988552912 1907761166 -1990985394 -1549985794 -1421044680 1204797772 -731742528 -513046007 552031243 -346076542 -1599472004 991290295 -52930929 -1753078103 -841791528 -463108677 -512095608 -1086747190 -703135881 306651647 2029579621 -1080229856 -223016937 749757113 -1373328259 1339764366 -486190063
REM
CELL 1.54180   50.00000   50.00000   50.00000   90.00000   90.00000   90.00000
LATT -1
SFAC C  
C      1  0.4147010000000  0.4843390000000  0.4938790000000 1.0
C      1  0.4695320000000  0.4512140000000  0.5248870000000 1.0
C      1  0.5021000000000  0.6108830000000  0.5127840000000 1.0
C      1  0.4738430000000  0.5127180000000  0.5034970000000 1.0
C      1  0.4684610000000  0.5594970000000  0.5296000000000 1.0
C      1  0.5252490000000  0.4291240000000  0.5489730000000 1.0
C      1  0.4700730000000  0.4869810000000  0.4316250000000 1.0
C      1  0.5624220000000  0.4514770000000  0.4495470000000 1.0
C      1  0.4669310000000  0.5332460000000  0.5207410000000 1.0
C      1  0.4458870000000  0.5703910000000  0.4624190000000 1.0
C      1  0.5326480000000  0.4582760000000  0.3315360000000 1.0
C      1  0.4894750000000  0.4930630000000  0.5164390000000 1.0
C      1  0.5238850000000  0.4807640000000  0.4526440000000 1.0
C      1  0.5648100000000  0.4435270000000  0.4966440000000 1.0
C      1  0.5406740000000  0.5158540000000  0.5405990000000 1.0
C      1  0.5262050000000  0.4982150000000  0.4304020000000 1.0
C      1  0.5466050000000  0.5426510000000  0.5007500000000 1.0
C      1  0.5656260000000  0.5203060000000  0.4917390000000 1.0
C      1  0.5297500000000  0.5555660000000  0.4802900000000 1.0
C      1  0.5307360000000  0.4685440000000  0.3554230000000 1.0
C      1  0.5261260000000  0.4957380000000  0.5843370000000 1.0
C      1  0.4427970000000  0.4494900000000  0.5152960000000 1.0
C      1  0.4636750000000  0.5085020000000  0.4480700000000 1.0
C      1  0.5258910000000  0.4499500000000  0.5677940000000 1.0
C      1  0.5343780000000  0.4494620000000  0.6401040000000 1.0
C      1  0.4178300000000  0.5344260000000  0.4752320000000 1.0
C      1  0.5263920000000  0.4888600000000  0.4041660000000 1.0
C      1  0.5385020000000  0.4961120000000  0.5208670000000 1.0
C      1  0.5794840000000  0.5177710000000  0.4672010000000 1.0
C      1  0.5312330000000  0.4036020000000  0.5569580000000 1.0
C      1  0.4760080000000  0.4769710000000  0.5355310000000 1.0
C      1  0.4931010000000  0.4371170000000  0.4821650000000 1.0
C      1  0.4434680000000  0.5716910000000  0.4915410000000 1.0
C      1  0.4126510000000  0.5065000000000  0.4761450000000 1.0
C      1  0.4452360000000  0.4520530000000  0.4685850000000 1.0
C      1  0.5152280000000  0.4908690000000  0.5060960000000 1.0
C      1  0.4949570000000  0.5790800000000  0.4551250000000 1.0
C      1  0.4380260000000  0.5027780000000  0.5537620000000 1.0
C      1  0.4700440000000  0.4414110000000  0.4667250000000 1.0
C      1  0.5184870000000  0.4339510000000  0.5220010000000 1.0
C      1  0.5287380000000  0.4789490000000  0.3797170000000 1.0
C      1  0.4698950000000  0.5106880000000  0.4756450000000 1.0
C      1  0.4666250000000  0.5774620000000  0.5078590000000 1.0
C      1  0.5737300000000  0.4690450000000  0.5055370000000 1.0
C      1  0.5170840000000  0.4907330000000  0.4779540000000 1.0
C      1  0.5298980000000  0.5254280000000  0.4360720000000 1.0
C      1  0.4314650000000  0.4610890000000  0.4915930000000 1.0
C      1  0.5398420000000  0.5422860000000  0.5294360000000 1.0
C      1  0.5313400000000  0.4584410000000  0.6153650000000 1.0
C      1  0.5077290000000  0.5748170000000  0.4804050000000 1.0
C      1  0.5334870000000  0.5444370000000  0.4543160000000 1.0
C      1  0.4782230000000  0.4976580000000  0.5800530000000 1.0
C      1  0.5337130000000  0.4540420000000  0.4537290000000 1.0
C      1  0.5747100000000  0.4367580000000  0.4706700000000 1.0
C      1  0.4801810000000  0.5664170000000  0.5538650000000 1.0
C      1  0.4323720000000  0.5465650000000  0.4532450000000 1.0
C      1  0.5834200000000  0.4988790000000  0.4483900000000 1.0
C      1  0.5212310000000  0.4383120000000  0.4746950000000 1.0
C      1  0.5277990000000  0.4678790000000  0.5893620000000 1.0
C      1  0.4911950000000  0.4374330000000  0.5117840000000 1.0
C      1  0.5372440000000  0.4359890000000  0.4999230000000 1.0
C      1  0.4177080000000  0.5380250000000  0.5243170000000 1.0
C      1  0.5373450000000  0.4405880000000  0.6644370000000 1.0
C      1  0.5445230000000  0.5079510000000  0.5670050000000 1.0
C      1  0.4631420000000  0.4903290000000  0.5575590000000 1.0
C      1  0.5020000000000  0.5106270000000  0.5872990000000 1.0
C      1  0.5768670000000  0.4740490000000  0.4402480000000 1.0
C      1  0.5041490000000  0.5387490000000  0.5847280000000 1.0
C      1  0.5271440000000  0.5606730000000  0.5466110000000 1.0
C      1  0.4926180000000  0.5881100000000  0.5009220000000 1.0
C      1  0.5049580000000  0.5583070000000  0.5643510000000 1.0
C      1  0.4183790000000  0.5118240000000  0.5357450000000 1.0
C      1  0.5625710000000  0.4948420000000  0.5059610000000 1.0
C      1  0.4235030000000  0.5504440000000  0.4994120000000 1.0
C      1  0.4469350000000  0.5286250000000  0.4374470000000 1.0
C      1  0.4064240000000  0.4913830000000  0.5201400000000 1.0
C      1  0.4700230000000  0.4689920000000  0.4127290000000 1.0
C      1  0.4686620000000  0.5802060000000  0.4493530000000 1.0
END
