TITL C-3201376-6384-1030 0.451501992728277 125000 -573.506336261436 0 0 94 (C1) n - 1
REM
REM in /home/nfs/bkarasulu/CARBON/AIRSS/Generating-Clusters/LCBOP/Higher-Symm/SD-CG/FIRE-CG
REM
REM
REM
REM
REM
REM ./C.cell (b20cbc046b6831c77cfcea5457e17084)
REM AIRSS Version 0.9.1 bugfix July 2018 build 013d7b7c2542+ Fri, 06 Jul 2018 19:26:36 +0100
REM compiler GCC version 9.2.1 20190827 (Red Hat 9.2.1-1)
REM options -cpp -mtune=generic -march=x86-64 -g -O0 -fpre-include=/usr/include/finclude/math-vector-fortran.h
REM seed -957046109 2062875535 1605515441 -28797588 603506312 1443241555 651887036 -690492080 -1482649752 336113949 606940796 784120160 2035990367 -1315894436 7950910 778148934 -1597737581 989456646 1374925706 -886569888 -2084880652 1575745075 1730413317 -53659635 -1562176523 136070939 508088377 -1145061650 -1761689648 2121234476 1336786042 469101650 103691354
REM
CELL 1.54180   50.00000   50.00000   50.00000   90.00000   90.00000   90.00000
LATT -1
SFAC C  
C      1  0.4887620000000  0.4416890000000  0.4550980000000 1.0
C      1  0.5739470000000  0.4641790000000  0.5196060000000 1.0
C      1  0.5465440000000  0.4057770000000  0.5942530000000 1.0
C      1  0.5540620000000  0.4952690000000  0.5767270000000 1.0
C      1  0.4988620000000  0.6809710000000  0.4273180000000 1.0
C      1  0.4111640000000  0.5324180000000  0.4085500000000 1.0
C      1  0.5304720000000  0.4889120000000  0.4627090000000 1.0
C      1  0.5574860000000  0.4417030000000  0.4348940000000 1.0
C      1  0.4982890000000  0.4644860000000  0.4374210000000 1.0
C      1  0.5432650000000  0.5247080000000  0.5365870000000 1.0
C      1  0.5476790000000  0.3927240000000  0.5298650000000 1.0
C      1  0.4403960000000  0.4748310000000  0.5489110000000 1.0
C      1  0.4569100000000  0.4436710000000  0.4568940000000 1.0
C      1  0.4259750000000  0.4577750000000  0.4171070000000 1.0
C      1  0.5617590000000  0.4333310000000  0.5572450000000 1.0
C      1  0.5576530000000  0.4828800000000  0.4605140000000 1.0
C      1  0.4549540000000  0.5053340000000  0.5141040000000 1.0
C      1  0.4909620000000  0.3988080000000  0.4295450000000 1.0
C      1  0.5609850000000  0.5456830000000  0.4722210000000 1.0
C      1  0.5783120000000  0.4400050000000  0.5041840000000 1.0
C      1  0.4577040000000  0.6244950000000  0.4957480000000 1.0
C      1  0.4644580000000  0.5869520000000  0.5329560000000 1.0
C      1  0.4190140000000  0.5803660000000  0.4294940000000 1.0
C      1  0.5745250000000  0.4806920000000  0.5650340000000 1.0
C      1  0.5728730000000  0.4903690000000  0.5076620000000 1.0
C      1  0.5012020000000  0.4293340000000  0.5045120000000 1.0
C      1  0.4236520000000  0.6022830000000  0.4436720000000 1.0
C      1  0.4831360000000  0.6657070000000  0.4414360000000 1.0
C      1  0.4333480000000  0.4522700000000  0.5318230000000 1.0
C      1  0.4939330000000  0.4812550000000  0.5322710000000 1.0
C      1  0.4492030000000  0.4564740000000  0.4824340000000 1.0
C      1  0.5398140000000  0.5168930000000  0.5638070000000 1.0
C      1  0.5476830000000  0.5445780000000  0.4489050000000 1.0
C      1  0.5359690000000  0.3850460000000  0.5069030000000 1.0
C      1  0.6031170000000  0.4855780000000  0.4646930000000 1.0
C      1  0.5153620000000  0.5195310000000  0.5799680000000 1.0
C      1  0.5362640000000  0.4810410000000  0.5948670000000 1.0
C      1  0.5787400000000  0.4898250000000  0.4796910000000 1.0
C      1  0.4620320000000  0.4707700000000  0.5679210000000 1.0
C      1  0.4301050000000  0.4546120000000  0.5032650000000 1.0
C      1  0.4502190000000  0.6334580000000  0.4703630000000 1.0
C      1  0.4871890000000  0.4683910000000  0.5548390000000 1.0
C      1  0.4500750000000  0.5249440000000  0.4948200000000 1.0
C      1  0.4742530000000  0.5627690000000  0.4694040000000 1.0
C      1  0.5111230000000  0.5779420000000  0.4991220000000 1.0
C      1  0.5208560000000  0.5371600000000  0.5229320000000 1.0
C      1  0.4765770000000  0.4870130000000  0.5108660000000 1.0
C      1  0.4744730000000  0.4670650000000  0.4917410000000 1.0
C      1  0.5490370000000  0.4304340000000  0.5826340000000 1.0
C      1  0.4484240000000  0.5490390000000  0.5576070000000 1.0
C      1  0.4884910000000  0.4152060000000  0.5234370000000 1.0
C      1  0.4425340000000  0.4268290000000  0.5403930000000 1.0
C      1  0.5123940000000  0.4967640000000  0.5979700000000 1.0
C      1  0.4872470000000  0.5698740000000  0.5400590000000 1.0
C      1  0.5124660000000  0.5213500000000  0.5011660000000 1.0
C      1  0.4671490000000  0.6501650000000  0.4557450000000 1.0
C      1  0.5313100000000  0.5334010000000  0.4307030000000 1.0
C      1  0.5288820000000  0.3903950000000  0.4815600000000 1.0
C      1  0.5869420000000  0.4178700000000  0.5201300000000 1.0
C      1  0.4950120000000  0.4481610000000  0.4846880000000 1.0
C      1  0.5693490000000  0.4670340000000  0.4383310000000 1.0
C      1  0.4653530000000  0.4131310000000  0.5367490000000 1.0
C      1  0.4396820000000  0.5016410000000  0.5382150000000 1.0
C      1  0.5392620000000  0.4532960000000  0.5959830000000 1.0
C      1  0.5142370000000  0.4875890000000  0.4392180000000 1.0
C      1  0.4354910000000  0.5245700000000  0.5539610000000 1.0
C      1  0.5665410000000  0.4114760000000  0.5392080000000 1.0
C      1  0.5653860000000  0.4328710000000  0.4804750000000 1.0
C      1  0.5680780000000  0.5370500000000  0.4967270000000 1.0
C      1  0.4871120000000  0.4881120000000  0.6065900000000 1.0
C      1  0.5502100000000  0.4263400000000  0.4575280000000 1.0
C      1  0.4113270000000  0.5062020000000  0.4044340000000 1.0
C      1  0.4142510000000  0.5572260000000  0.4174320000000 1.0
C      1  0.4253010000000  0.6253960000000  0.4593010000000 1.0
C      1  0.6108020000000  0.4051150000000  0.5177580000000 1.0
C      1  0.4160550000000  0.4801930000000  0.4068750000000 1.0
C      1  0.5093830000000  0.5634770000000  0.5234820000000 1.0
C      1  0.5273020000000  0.4095820000000  0.4607080000000 1.0
C      1  0.5022370000000  0.4157230000000  0.4479070000000 1.0
C      1  0.4413540000000  0.5737850000000  0.5444220000000 1.0
C      1  0.4774440000000  0.5509450000000  0.5597150000000 1.0
C      1  0.4571170000000  0.5439850000000  0.4775670000000 1.0
C      1  0.4632800000000  0.6092880000000  0.5167320000000 1.0
C      1  0.4959690000000  0.5765480000000  0.4769220000000 1.0
C      1  0.4024500000000  0.6407160000000  0.4641550000000 1.0
C      1  0.3813020000000  0.6551980000000  0.4688680000000 1.0
C      1  0.5192200000000  0.5020450000000  0.4843800000000 1.0
C      1  0.5710090000000  0.4591740000000  0.5476000000000 1.0
C      1  0.5976600000000  0.4729350000000  0.4405840000000 1.0
C      1  0.5640300000000  0.5168170000000  0.5170410000000 1.0
C      1  0.4403010000000  0.4438260000000  0.4346230000000 1.0
C      1  0.5166630000000  0.5114880000000  0.4243070000000 1.0
C      1  0.4948430000000  0.5375730000000  0.5762680000000 1.0
C      1  0.4647760000000  0.4781950000000  0.5949410000000 1.0
END
