TITL C-3201378-2706-895 -1.18926799088001e-06 125000 -281.108491649265 0 0 52 (T23) n - 1
REM
REM in /home/nfs/bkarasulu/CARBON/AIRSS/Generating-Clusters/LCBOP/Higher-Symm/SD-CG/FIRE-CG
REM
REM
REM
REM
REM
REM ./C.cell (b20cbc046b6831c77cfcea5457e17084)
REM AIRSS Version 0.9.1 bugfix July 2018 build 013d7b7c2542+ Fri, 06 Jul 2018 19:26:36 +0100
REM compiler GCC version 9.2.1 20190827 (Red Hat 9.2.1-1)
REM options -cpp -mtune=generic -march=x86-64 -g -O0 -fpre-include=/usr/include/finclude/math-vector-fortran.h
REM seed 433278336 1104050269 112716596 744389907 1906235800 -1795660820 830452163 -1092846759 -626872774 -1911018297 -887915072 -462731749 353599198 -692653524 480179346 -1709992797 -842972392 -847559977 1576037548 -2102442807 -1948726200 616624333 282092046 -124067028 -1467792768 -545437891 1920293490 -2144016412 582390003 -441606163 -709253043 199358333 1472355834
REM
CELL 1.54180   50.00000   50.00000   50.00000   90.00000   90.00000   90.00000
LATT -1
SFAC C  
C      1  0.4419070000000  0.4614940000000  0.5169440000000 1.0
C      1  0.4612710000000  0.5173400000000  0.4417340000000 1.0
C      1  0.5171180000000  0.4421320000000  0.4610990000000 1.0
C      1  0.5573000000000  0.5381610000000  0.5169450000000 1.0
C      1  0.4419050000000  0.5381580000000  0.4819200000000 1.0
C      1  0.5573030000000  0.4614990000000  0.4819180000000 1.0
C      1  0.5379360000000  0.4823180000000  0.4417330000000 1.0
C      1  0.4612730000000  0.4823130000000  0.5571290000000 1.0
C      1  0.5379350000000  0.5173410000000  0.5571290000000 1.0
C      1  0.4820890000000  0.5575260000000  0.4611010000000 1.0
C      1  0.5171140000000  0.5575250000000  0.5377640000000 1.0
C      1  0.4820930000000  0.4421290000000  0.5377620000000 1.0
C      1  0.4610190000000  0.4393000000000  0.5172740000000 1.0
C      1  0.5174490000000  0.4612430000000  0.4389040000000 1.0
C      1  0.4390760000000  0.5176700000000  0.4608460000000 1.0
C      1  0.5381880000000  0.5603560000000  0.5172760000000 1.0
C      1  0.5381920000000  0.4393030000000  0.4815860000000 1.0
C      1  0.4610150000000  0.5603530000000  0.4815890000000 1.0
C      1  0.4817580000000  0.5384150000000  0.4389060000000 1.0
C      1  0.4817610000000  0.4612400000000  0.5599570000000 1.0
C      1  0.5174460000000  0.5384140000000  0.5599590000000 1.0
C      1  0.5601310000000  0.4819870000000  0.4608450000000 1.0
C      1  0.5601300000000  0.5176730000000  0.5380180000000 1.0
C      1  0.4390780000000  0.4819810000000  0.5380180000000 1.0
C      1  0.5606390000000  0.5088130000000  0.4750700000000 1.0
C      1  0.5085870000000  0.4754660000000  0.5604670000000 1.0
C      1  0.4752400000000  0.5608630000000  0.5084150000000 1.0
C      1  0.4385680000000  0.4908440000000  0.4750700000000 1.0
C      1  0.5606400000000  0.4908480000000  0.5237920000000 1.0
C      1  0.4385670000000  0.5088070000000  0.5237930000000 1.0
C      1  0.4906210000000  0.5241880000000  0.5604680000000 1.0
C      1  0.5085840000000  0.5241910000000  0.4383960000000 1.0
C      1  0.4906220000000  0.4754670000000  0.4383950000000 1.0
C      1  0.5239670000000  0.4387930000000  0.5084120000000 1.0
C      1  0.4752450000000  0.4387910000000  0.4904480000000 1.0
C      1  0.5239630000000  0.5608650000000  0.4904510000000 1.0
C      1  0.5028840000000  0.5449270000000  0.4779580000000 1.0
C      1  0.4781290000000  0.5031080000000  0.5445300000000 1.0
C      1  0.5447030000000  0.4783550000000  0.5027130000000 1.0
C      1  0.4963230000000  0.4547300000000  0.4779560000000 1.0
C      1  0.4963200000000  0.5449260000000  0.5209070000000 1.0
C      1  0.5028870000000  0.4547290000000  0.5209050000000 1.0
C      1  0.5210790000000  0.4965460000000  0.5445300000000 1.0
C      1  0.5210780000000  0.5031110000000  0.4543330000000 1.0
C      1  0.4781290000000  0.4965460000000  0.4543330000000 1.0
C      1  0.4545040000000  0.5213010000000  0.5027140000000 1.0
C      1  0.4545060000000  0.4783520000000  0.4961500000000 1.0
C      1  0.5447010000000  0.5213040000000  0.4961500000000 1.0
C      1  0.4843060000000  0.5151240000000  0.4841350000000 1.0
C      1  0.5149010000000  0.4845320000000  0.4841340000000 1.0
C      1  0.4843070000000  0.4845300000000  0.5147280000000 1.0
C      1  0.5149000000000  0.5151250000000  0.5147290000000 1.0
END
