TITL C-3201379-3821-875 160005.679141693 125000 -868.056971854967 0 0 143 (C2) n - 1
REM
REM in /home/nfs/bkarasulu/CARBON/AIRSS/Generating-Clusters/LCBOP/Higher-Symm/SD-CG/FIRE-CG
REM
REM
REM
REM
REM
REM ./C.cell (b20cbc046b6831c77cfcea5457e17084)
REM AIRSS Version 0.9.1 bugfix July 2018 build 013d7b7c2542+ Fri, 06 Jul 2018 19:26:36 +0100
REM compiler GCC version 9.2.1 20190827 (Red Hat 9.2.1-1)
REM options -cpp -mtune=generic -march=x86-64 -g -O0 -fpre-include=/usr/include/finclude/math-vector-fortran.h
REM seed -575328150 1269853966 2086358313 -2107055903 -1810192315 -343065406 -1480546634 918522460 -1750939001 -1551319621 2110998412 -1024772633 -52690540 -1601583714 -74433167 -1745074611 282643171 1088226114 1191808792 -333876893 2086488772 1166003939 1784970985 1760672872 1179563376 2009868738 1267010969 986163153 1285275654 1916730389 1520170132 1777932915 853761874
REM
CELL 1.54180   50.00000   50.00000   50.00000   90.00000   90.00000   90.00000
LATT -1
SFAC C  
C      1  0.5644260000000  0.4870510000000  0.4553990000000 1.0
C      1  0.5389460000000  0.5318370000000  0.5108750000000 1.0
C      1  0.5533420000000  0.4727580000000  0.5242830000000 1.0
C      1  0.4612270000000  0.5064160000000  0.4668110000000 1.0
C      1  0.4468110000000  0.4652640000000  0.5112650000000 1.0
C      1  0.4357440000000  0.5320680000000  0.5333340000000 1.0
C      1  0.5724440000000  0.4913900000000  0.5933920000000 1.0
C      1  0.5765780000000  0.4174590000000  0.4429770000000 1.0
C      1  0.5589230000000  0.5836730000000  0.4583730000000 1.0
C      1  0.4235720000000  0.5080260000000  0.5998090000000 1.0
C      1  0.4412740000000  0.5778090000000  0.4481750000000 1.0
C      1  0.4277050000000  0.4147410000000  0.4605670000000 1.0
C      1  0.4151130000000  0.5195490000000  0.4291420000000 1.0
C      1  0.4048720000000  0.5609480000000  0.5539920000000 1.0
C      1  0.4087780000000  0.4326720000000  0.5233270000000 1.0
C      1  0.5953020000000  0.4835940000000  0.4200630000000 1.0
C      1  0.5913640000000  0.4460030000000  0.5464810000000 1.0
C      1  0.5850710000000  0.5710120000000  0.5183480000000 1.0
C      1  0.3887130000000  0.5282840000000  0.4691430000000 1.0
C      1  0.3794480000000  0.5190960000000  0.5394790000000 1.0
C      1  0.3822090000000  0.4626300000000  0.4948730000000 1.0
C      1  0.6207160000000  0.4752260000000  0.4635680000000 1.0
C      1  0.6179470000000  0.4856170000000  0.5347720000000 1.0
C      1  0.6114660000000  0.5407320000000  0.4907840000000 1.0
C      1  0.6026340000000  0.4601510000000  0.4483780000000 1.0
C      1  0.5886650000000  0.5589120000000  0.4904040000000 1.0
C      1  0.5969320000000  0.4763260000000  0.5525250000000 1.0
C      1  0.4115190000000  0.5376970000000  0.4535940000000 1.0
C      1  0.4032180000000  0.4426040000000  0.4940440000000 1.0
C      1  0.3975280000000  0.5247070000000  0.5601310000000 1.0
C      1  0.5322320000000  0.6038640000000  0.4938480000000 1.0
C      1  0.5463160000000  0.4497840000000  0.5951530000000 1.0
C      1  0.5528070000000  0.4353060000000  0.4032790000000 1.0
C      1  0.4538220000000  0.3924030000000  0.4957200000000 1.0
C      1  0.4473530000000  0.5513230000000  0.6042110000000 1.0
C      1  0.4679650000000  0.5571780000000  0.4129540000000 1.0
C      1  0.5776110000000  0.4434830000000  0.4572190000000 1.0
C      1  0.5634550000000  0.5573990000000  0.4721970000000 1.0
C      1  0.5728960000000  0.4929200000000  0.5636480000000 1.0
C      1  0.4367330000000  0.5527000000000  0.4640140000000 1.0
C      1  0.4272570000000  0.4412630000000  0.4741160000000 1.0
C      1  0.4225450000000  0.5087070000000  0.5701500000000 1.0
C      1  0.5604760000000  0.5343650000000  0.4532020000000 1.0
C      1  0.5620620000000  0.5200500000000  0.5533350000000 1.0
C      1  0.5663340000000  0.4432300000000  0.4862210000000 1.0
C      1  0.4381000000000  0.4637590000000  0.4557810000000 1.0
C      1  0.4338170000000  0.4834630000000  0.5558680000000 1.0
C      1  0.4397080000000  0.5576290000000  0.4934600000000 1.0
C      1  0.6219420000000  0.5033680000000  0.4538010000000 1.0
C      1  0.6176920000000  0.5364880000000  0.5200830000000 1.0
C      1  0.6234330000000  0.4632330000000  0.5153510000000 1.0
C      1  0.3824820000000  0.5007900000000  0.4581650000000 1.0
C      1  0.3767200000000  0.4682560000000  0.5239680000000 1.0
C      1  0.3782330000000  0.5416270000000  0.5199920000000 1.0
C      1  0.4934800000000  0.4724350000000  0.4236000000000 1.0
C      1  0.4893110000000  0.5585980000000  0.5396570000000 1.0
C      1  0.4935220000000  0.4599360000000  0.5384170000000 1.0
C      1  0.5108650000000  0.4948590000000  0.4292530000000 1.0
C      1  0.5066250000000  0.4465940000000  0.5153120000000 1.0
C      1  0.5066900000000  0.5522750000000  0.5619060000000 1.0
C      1  0.4953930000000  0.4883990000000  0.5391380000000 1.0
C      1  0.4920130000000  0.4530390000000  0.4436070000000 1.0
C      1  0.4907830000000  0.5437450000000  0.5162390000000 1.0
C      1  0.5081480000000  0.5252480000000  0.5686970000000 1.0
C      1  0.5093930000000  0.5077120000000  0.4538260000000 1.0
C      1  0.5047630000000  0.4602060000000  0.4903020000000 1.0
C      1  0.4375340000000  0.4577190000000  0.5676690000000 1.0
C      1  0.4370500000000  0.4678020000000  0.4273670000000 1.0
C      1  0.4411380000000  0.5810600000000  0.5103200000000 1.0
C      1  0.5631180000000  0.5466780000000  0.5640430000000 1.0
C      1  0.5590500000000  0.5314820000000  0.4244800000000 1.0
C      1  0.5626080000000  0.4201380000000  0.5026120000000 1.0
C      1  0.4798870000000  0.4369820000000  0.5524920000000 1.0
C      1  0.4770160000000  0.4833650000000  0.4015660000000 1.0
C      1  0.4779890000000  0.5850190000000  0.5436340000000 1.0
C      1  0.5231610000000  0.5768160000000  0.5634620000000 1.0
C      1  0.5221940000000  0.5046240000000  0.4043860000000 1.0
C      1  0.5202510000000  0.4229230000000  0.5281530000000 1.0
C      1  0.4403830000000  0.3929090000000  0.4706960000000 1.0
C      1  0.4560950000000  0.5796400000000  0.4255360000000 1.0
C      1  0.4351310000000  0.5278020000000  0.6145640000000 1.0
C      1  0.5441070000000  0.6041980000000  0.4681060000000 1.0
C      1  0.5650200000000  0.4145740000000  0.4184720000000 1.0
C      1  0.5597590000000  0.4717040000000  0.6072310000000 1.0
C      1  0.5400200000000  0.4309750000000  0.3796540000000 1.0
C      1  0.5155280000000  0.6233370000000  0.5028410000000 1.0
C      1  0.5318850000000  0.4314800000000  0.6091740000000 1.0
C      1  0.4846730000000  0.5591240000000  0.3915960000000 1.0
C      1  0.4682470000000  0.3711050000000  0.5045610000000 1.0
C      1  0.4601400000000  0.5696130000000  0.6197800000000 1.0
C      1  0.5598270000000  0.5800950000000  0.5292260000000 1.0
C      1  0.5651830000000  0.4323480000000  0.5500540000000 1.0
C      1  0.5688210000000  0.4850450000000  0.4077370000000 1.0
C      1  0.4349550000000  0.4227420000000  0.5333700000000 1.0
C      1  0.4313560000000  0.5723400000000  0.5589050000000 1.0
C      1  0.4403580000000  0.5146630000000  0.4158410000000 1.0
C      1  0.3894590000000  0.4477970000000  0.5390540000000 1.0
C      1  0.3946890000000  0.4992980000000  0.4326130000000 1.0
C      1  0.3883740000000  0.5651320000000  0.5317870000000 1.0
C      1  0.6054880000000  0.5578730000000  0.5341520000000 1.0
C      1  0.6118060000000  0.5049110000000  0.4275470000000 1.0
C      1  0.6106850000000  0.4399410000000  0.5255220000000 1.0
C      1  0.4430190000000  0.5291660000000  0.5607910000000 1.0
C      1  0.4490540000000  0.4415780000000  0.4957380000000 1.0
C      1  0.4584350000000  0.5319890000000  0.4545900000000 1.0
C      1  0.5510950000000  0.4743600000000  0.5525600000000 1.0
C      1  0.5417480000000  0.5552080000000  0.4948410000000 1.0
C      1  0.5571440000000  0.4618260000000  0.4441800000000 1.0
C      1  0.4726730000000  0.5003450000000  0.5271820000000 1.0
C      1  0.4847980000000  0.4615990000000  0.4698650000000 1.0
C      1  0.4725160000000  0.5235150000000  0.5108150000000 1.0
C      1  0.5153610000000  0.5067890000000  0.5481540000000 1.0
C      1  0.5276540000000  0.5022860000000  0.4740600000000 1.0
C      1  0.5274880000000  0.4765260000000  0.4859400000000 1.0
C      1  0.5397250000000  0.5809200000000  0.5087610000000 1.0
C      1  0.5491720000000  0.4493910000000  0.5670520000000 1.0
C      1  0.5548280000000  0.4607190000000  0.4155400000000 1.0
C      1  0.4509690000000  0.4165410000000  0.5101140000000 1.0
C      1  0.4453390000000  0.5534130000000  0.5760720000000 1.0
C      1  0.4604630000000  0.5327920000000  0.4253640000000 1.0
C      1  0.4494300000000  0.4877170000000  0.4101040000000 1.0
C      1  0.4490070000000  0.5849810000000  0.5383000000000 1.0
C      1  0.4506510000000  0.4357220000000  0.5547110000000 1.0
C      1  0.5511770000000  0.5092150000000  0.4070910000000 1.0
C      1  0.5494870000000  0.4203630000000  0.5281390000000 1.0
C      1  0.5507480000000  0.5715900000000  0.5554280000000 1.0
C      1  0.3723350000000  0.4844410000000  0.4791590000000 1.0
C      1  0.3741110000000  0.5312730000000  0.4937310000000 1.0
C      1  0.3688560000000  0.4955330000000  0.5269140000000 1.0
C      1  0.6260650000000  0.5209310000000  0.4759010000000 1.0
C      1  0.6313040000000  0.4743200000000  0.4902580000000 1.0
C      1  0.6278300000000  0.5101290000000  0.5237440000000 1.0
C      1  0.4463270000000  0.5343080000000  0.5079380000000 1.0
C      1  0.4485690000000  0.4853770000000  0.5305480000000 1.0
C      1  0.4608410000000  0.4781370000000  0.4678830000000 1.0
C      1  0.5515870000000  0.4661190000000  0.4972230000000 1.0
C      1  0.5393240000000  0.5167670000000  0.5348280000000 1.0
C      1  0.5538480000000  0.5101670000000  0.4661560000000 1.0
C      1  0.5000660000000  0.4157270000000  0.5485340000000 1.0
C      1  0.5017330000000  0.5976390000000  0.5570180000000 1.0
C      1  0.4984520000000  0.4993520000000  0.3867600000000 1.0
C      1  0.3626720000000  0.5042160000000  0.4990940000000 1.0
C      1  0.6374950000000  0.5027520000000  0.4966520000000 1.0
END
