TITL C-3201372-1405-330 1.32846260336535e-07 125000 -440.566534416812 0 0 73 (C1) n - 1
REM
REM in /home/nfs/bkarasulu/CARBON/AIRSS/Generating-Clusters/LCBOP/Higher-Symm/SD-CG/FIRE-CG
REM
REM
REM
REM
REM
REM ./C.cell (b20cbc046b6831c77cfcea5457e17084)
REM AIRSS Version 0.9.1 bugfix July 2018 build 013d7b7c2542+ Fri, 06 Jul 2018 19:26:36 +0100
REM compiler GCC version 9.2.1 20190827 (Red Hat 9.2.1-1)
REM options -cpp -mtune=generic -march=x86-64 -g -O0 -fpre-include=/usr/include/finclude/math-vector-fortran.h
REM seed -1452786460 93687282 1431260434 -1899606025 -851449596 -1431041720 827138410 -1149365563 1736028729 1879573102 1563646727 845544023 -1767947034 1677319318 -463450218 65673501 1413578160 -423192615 -1572358903 2065689627 31149830 -1965268125 -1123907758 1686649181 282594159 1637434830 1111147167 -976466050 80576441 1522283045 -1949775363 -2021437062 197648555
REM
CELL 1.54180   50.00000   50.00000   50.00000   90.00000   90.00000   90.00000
LATT -1
SFAC C  
C      1  0.4733550000000  0.4755860000000  0.4153250000000 1.0
C      1  0.5819260000000  0.4673330000000  0.4840690000000 1.0
C      1  0.4213410000000  0.5055170000000  0.5028410000000 1.0
C      1  0.4703150000000  0.5386640000000  0.4794720000000 1.0
C      1  0.4359630000000  0.4510570000000  0.5392820000000 1.0
C      1  0.5605350000000  0.4578590000000  0.5266260000000 1.0
C      1  0.5049100000000  0.5709770000000  0.5465070000000 1.0
C      1  0.5306000000000  0.5461140000000  0.4440410000000 1.0
C      1  0.4633990000000  0.5570850000000  0.5242120000000 1.0
C      1  0.5514280000000  0.5210610000000  0.6142170000000 1.0
C      1  0.5174240000000  0.5819090000000  0.4813590000000 1.0
C      1  0.5369860000000  0.4662190000000  0.5398130000000 1.0
C      1  0.4990640000000  0.4879140000000  0.4159680000000 1.0
C      1  0.5093960000000  0.4987520000000  0.4398960000000 1.0
C      1  0.5775230000000  0.5256140000000  0.5241680000000 1.0
C      1  0.5426500000000  0.5752800000000  0.5736360000000 1.0
C      1  0.5329420000000  0.5485410000000  0.5787980000000 1.0
C      1  0.5785510000000  0.4992140000000  0.4454830000000 1.0
C      1  0.4595090000000  0.4645210000000  0.4987110000000 1.0
C      1  0.5098170000000  0.4601060000000  0.5274940000000 1.0
C      1  0.4074480000000  0.5435380000000  0.4743390000000 1.0
C      1  0.4903870000000  0.4859080000000  0.5293300000000 1.0
C      1  0.4131460000000  0.5170610000000  0.4776160000000 1.0
C      1  0.4878190000000  0.5727160000000  0.5238920000000 1.0
C      1  0.5750310000000  0.4490680000000  0.5042250000000 1.0
C      1  0.5001580000000  0.4038570000000  0.4835440000000 1.0
C      1  0.4274510000000  0.4953300000000  0.4357820000000 1.0
C      1  0.5295220000000  0.4918250000000  0.3715650000000 1.0
C      1  0.5745080000000  0.5166170000000  0.5490910000000 1.0
C      1  0.5466450000000  0.5257220000000  0.5877660000000 1.0
C      1  0.5135510000000  0.4486190000000  0.4983230000000 1.0
C      1  0.4518950000000  0.4429130000000  0.5161270000000 1.0
C      1  0.4776900000000  0.4455770000000  0.5658300000000 1.0
C      1  0.4138100000000  0.4673460000000  0.5339350000000 1.0
C      1  0.4738500000000  0.4260610000000  0.5235040000000 1.0
C      1  0.4588020000000  0.5366560000000  0.5048730000000 1.0
C      1  0.4745940000000  0.4619290000000  0.4749780000000 1.0
C      1  0.4483840000000  0.5106480000000  0.5107590000000 1.0
C      1  0.4954090000000  0.5313950000000  0.4710560000000 1.0
C      1  0.5535450000000  0.5397140000000  0.4290660000000 1.0
C      1  0.5337200000000  0.5584750000000  0.4726700000000 1.0
C      1  0.5186880000000  0.4830670000000  0.4625100000000 1.0
C      1  0.5460920000000  0.4116430000000  0.4937080000000 1.0
C      1  0.5079750000000  0.5470260000000  0.5637560000000 1.0
C      1  0.5704320000000  0.4222510000000  0.4972060000000 1.0
C      1  0.4711750000000  0.4496010000000  0.4068400000000 1.0
C      1  0.5552710000000  0.5076660000000  0.5675690000000 1.0
C      1  0.5142150000000  0.4895310000000  0.3925290000000 1.0
C      1  0.5029080000000  0.4637380000000  0.4760820000000 1.0
C      1  0.4503290000000  0.4893800000000  0.4235610000000 1.0
C      1  0.3892930000000  0.4712700000000  0.4917310000000 1.0
C      1  0.4663330000000  0.4884340000000  0.5133950000000 1.0
C      1  0.4927150000000  0.5029060000000  0.5515160000000 1.0
C      1  0.4617360000000  0.5367150000000  0.5680430000000 1.0
C      1  0.4058680000000  0.4827530000000  0.5118800000000 1.0
C      1  0.4507920000000  0.5530810000000  0.5493700000000 1.0
C      1  0.5266490000000  0.5881110000000  0.5550200000000 1.0
C      1  0.4092660000000  0.4976550000000  0.4568090000000 1.0
C      1  0.5611360000000  0.5552980000000  0.4854380000000 1.0
C      1  0.5419880000000  0.4930970000000  0.4762000000000 1.0
C      1  0.5196240000000  0.4208810000000  0.4927110000000 1.0
C      1  0.4882060000000  0.5270350000000  0.5648450000000 1.0
C      1  0.5078370000000  0.5268500000000  0.4453190000000 1.0
C      1  0.5396510000000  0.5156760000000  0.4936040000000 1.0
C      1  0.5633910000000  0.5310360000000  0.5009640000000 1.0
C      1  0.5723310000000  0.5205510000000  0.4304350000000 1.0
C      1  0.5683030000000  0.4855620000000  0.4677930000000 1.0
C      1  0.4506290000000  0.4500350000000  0.5638690000000 1.0
C      1  0.4985970000000  0.5846630000000  0.5005940000000 1.0
C      1  0.4922580000000  0.4388690000000  0.5419690000000 1.0
C      1  0.5183140000000  0.5342940000000  0.4882040000000 1.0
C      1  0.5410590000000  0.4842400000000  0.5611170000000 1.0
C      1  0.3919430000000  0.4767880000000  0.4652200000000 1.0
END
