TITL C-3201376-6384-1936 81422.0860617538 125000 -1045.87704288938 0 0 166 (C1) n - 1
REM
REM in /home/nfs/bkarasulu/CARBON/AIRSS/Generating-Clusters/LCBOP/Higher-Symm/SD-CG/FIRE-CG
REM
REM
REM
REM
REM
REM ./C.cell (b20cbc046b6831c77cfcea5457e17084)
REM AIRSS Version 0.9.1 bugfix July 2018 build 013d7b7c2542+ Fri, 06 Jul 2018 19:26:36 +0100
REM compiler GCC version 9.2.1 20190827 (Red Hat 9.2.1-1)
REM options -cpp -mtune=generic -march=x86-64 -g -O0 -fpre-include=/usr/include/finclude/math-vector-fortran.h
REM seed 636851135 115369250 -148025957 1470852986 -1322299504 -1126864246 1661272471 1003389904 -1212180477 185058245 468245645 1786409840 -488460902 1955550972 1307773650 371450250 1227511655 -864986543 934042199 -364549265 -87847201 -204008041 506998311 951977673 934728566 -1746529326 872661129 292571730 600084175 439342091 1342976775 1606183611 -705523871
REM
CELL 1.54180   50.00000   50.00000   50.00000   90.00000   90.00000   90.00000
LATT -1
SFAC C  
C      1  0.4977210000000  0.5302480000000  0.3964870000000 1.0
C      1  0.3990540000000  0.4953850000000  0.5315930000000 1.0
C      1  0.5303520000000  0.3942160000000  0.4974010000000 1.0
C      1  0.4990730000000  0.4711510000000  0.6042150000000 1.0
C      1  0.5028080000000  0.4687300000000  0.3955370000000 1.0
C      1  0.5011670000000  0.5330110000000  0.6074300000000 1.0
C      1  0.3981910000000  0.5023260000000  0.4702800000000 1.0
C      1  0.6002050000000  0.5031890000000  0.5311300000000 1.0
C      1  0.6029310000000  0.4969030000000  0.4697950000000 1.0
C      1  0.5321240000000  0.6077670000000  0.5014560000000 1.0
C      1  0.4706450000000  0.6040410000000  0.4985900000000 1.0
C      1  0.4689940000000  0.3925430000000  0.5008490000000 1.0
C      1  0.4526560000000  0.4270850000000  0.4674580000000 1.0
C      1  0.4682660000000  0.4503630000000  0.4271900000000 1.0
C      1  0.4252460000000  0.4669200000000  0.4476280000000 1.0
C      1  0.4508200000000  0.5760790000000  0.5341170000000 1.0
C      1  0.5492890000000  0.5726990000000  0.4687860000000 1.0
C      1  0.5475880000000  0.4257010000000  0.5304940000000 1.0
C      1  0.4650200000000  0.5495950000000  0.5766160000000 1.0
C      1  0.5322470000000  0.5465850000000  0.4288240000000 1.0
C      1  0.5309510000000  0.4559200000000  0.5725990000000 1.0
C      1  0.4313240000000  0.5292880000000  0.5502440000000 1.0
C      1  0.5767720000000  0.5330950000000  0.4478940000000 1.0
C      1  0.5701720000000  0.4673630000000  0.5489750000000 1.0
C      1  0.4610230000000  0.4801490000000  0.5783580000000 1.0
C      1  0.5785280000000  0.4566020000000  0.4816280000000 1.0
C      1  0.4832550000000  0.5761070000000  0.4612150000000 1.0
C      1  0.4579190000000  0.5182480000000  0.4204530000000 1.0
C      1  0.5417990000000  0.5261120000000  0.5857080000000 1.0
C      1  0.5432480000000  0.4804870000000  0.4183090000000 1.0
C      1  0.5814330000000  0.5451870000000  0.5186980000000 1.0
C      1  0.4240030000000  0.5413820000000  0.4838430000000 1.0
C      1  0.4191660000000  0.4541330000000  0.5182070000000 1.0
C      1  0.4791890000000  0.4152720000000  0.5410020000000 1.0
C      1  0.5179150000000  0.4217830000000  0.4596850000000 1.0
C      1  0.5229000000000  0.5888980000000  0.5436510000000 1.0
C      1  0.4666430000000  0.5603560000000  0.5153110000000 1.0
C      1  0.5224590000000  0.4732470000000  0.5510980000000 1.0
C      1  0.5592720000000  0.5156980000000  0.4623370000000 1.0
C      1  0.4658390000000  0.4428390000000  0.4878840000000 1.0
C      1  0.5333250000000  0.4388490000000  0.5086960000000 1.0
C      1  0.5360210000000  0.5583170000000  0.4902160000000 1.0
C      1  0.5125850000000  0.5325520000000  0.4447600000000 1.0
C      1  0.4774670000000  0.5308920000000  0.5584180000000 1.0
C      1  0.4880310000000  0.4638250000000  0.4435790000000 1.0
C      1  0.5460920000000  0.4761740000000  0.5359460000000 1.0
C      1  0.4437270000000  0.4846420000000  0.4612280000000 1.0
C      1  0.4574040000000  0.5151940000000  0.5417240000000 1.0
C      1  0.5150370000000  0.5629030000000  0.5370730000000 1.0
C      1  0.5290810000000  0.5256550000000  0.5601630000000 1.0
C      1  0.5542320000000  0.5418710000000  0.5073750000000 1.0
C      1  0.5078480000000  0.4507610000000  0.4627900000000 1.0
C      1  0.4862260000000  0.4412730000000  0.5321620000000 1.0
C      1  0.4943080000000  0.5476150000000  0.4639220000000 1.0
C      1  0.5397130000000  0.4907860000000  0.4460280000000 1.0
C      1  0.4684890000000  0.4859110000000  0.5497000000000 1.0
C      1  0.4627860000000  0.5071120000000  0.4485730000000 1.0
C      1  0.5497210000000  0.4579390000000  0.4914270000000 1.0
C      1  0.4464280000000  0.4579500000000  0.5061270000000 1.0
C      1  0.4526190000000  0.5407100000000  0.4956750000000 1.0
C      1  0.5137480000000  0.6076450000000  0.5246790000000 1.0
C      1  0.5248490000000  0.5154370000000  0.6059590000000 1.0
C      1  0.6002450000000  0.5252300000000  0.5117140000000 1.0
C      1  0.5111510000000  0.3996950000000  0.4761210000000 1.0
C      1  0.4873710000000  0.3945200000000  0.5236830000000 1.0
C      1  0.4899670000000  0.5981870000000  0.4776310000000 1.0
C      1  0.5246380000000  0.4879070000000  0.3983920000000 1.0
C      1  0.4768470000000  0.4888840000000  0.6002470000000 1.0
C      1  0.4758730000000  0.5111060000000  0.3995150000000 1.0
C      1  0.5980420000000  0.4757240000000  0.4892570000000 1.0
C      1  0.3998190000000  0.4736500000000  0.5115170000000 1.0
C      1  0.4036640000000  0.5227460000000  0.4903620000000 1.0
C      1  0.4995590000000  0.4913920000000  0.5472640000000 1.0
C      1  0.5547200000000  0.5190230000000  0.4890390000000 1.0
C      1  0.4915850000000  0.5531560000000  0.5253240000000 1.0
C      1  0.5132540000000  0.5041140000000  0.4508390000000 1.0
C      1  0.5022120000000  0.5170010000000  0.5619420000000 1.0
C      1  0.4882490000000  0.4915220000000  0.4434860000000 1.0
C      1  0.5464550000000  0.4806900000000  0.5091640000000 1.0
C      1  0.4446440000000  0.4812360000000  0.4883570000000 1.0
C      1  0.4561850000000  0.5169750000000  0.5125840000000 1.0
C      1  0.4931150000000  0.4563060000000  0.4887940000000 1.0
C      1  0.5059700000000  0.4437780000000  0.5121320000000 1.0
C      1  0.5114410000000  0.5451530000000  0.4876310000000 1.0
C      1  0.4714510000000  0.5911910000000  0.5493860000000 1.0
C      1  0.5472000000000  0.4745470000000  0.5896000000000 1.0
C      1  0.5922940000000  0.5477840000000  0.4678830000000 1.0
C      1  0.4707880000000  0.4102730000000  0.4517290000000 1.0
C      1  0.5285260000000  0.4110330000000  0.5465270000000 1.0
C      1  0.5304050000000  0.5882860000000  0.4527750000000 1.0
C      1  0.5469150000000  0.5297120000000  0.4100420000000 1.0
C      1  0.4509850000000  0.5302580000000  0.5945680000000 1.0
C      1  0.4536270000000  0.4685950000000  0.4090800000000 1.0
C      1  0.5881320000000  0.4534960000000  0.5313060000000 1.0
C      1  0.4096840000000  0.4520400000000  0.4674560000000 1.0
C      1  0.4142540000000  0.5437970000000  0.5322000000000 1.0
C      1  0.5178930000000  0.6046300000000  0.4750650000000 1.0
C      1  0.4747060000000  0.5171610000000  0.6070900000000 1.0
C      1  0.6016680000000  0.4762220000000  0.5178760000000 1.0
C      1  0.5166280000000  0.3930280000000  0.5246840000000 1.0
C      1  0.4829760000000  0.3941230000000  0.4742190000000 1.0
C      1  0.4841040000000  0.6073420000000  0.5256570000000 1.0
C      1  0.4759060000000  0.4822870000000  0.3948840000000 1.0
C      1  0.5253610000000  0.4861700000000  0.6062480000000 1.0
C      1  0.5245060000000  0.5168000000000  0.3950530000000 1.0
C      1  0.6049600000000  0.5244420000000  0.4828470000000 1.0
C      1  0.3993750000000  0.5222290000000  0.5187280000000 1.0
C      1  0.3960350000000  0.4747850000000  0.4824710000000 1.0
C      1  0.4438080000000  0.5425680000000  0.4198590000000 1.0
C      1  0.4187440000000  0.4408920000000  0.5430240000000 1.0
C      1  0.5414400000000  0.4187120000000  0.4439420000000 1.0
C      1  0.4450200000000  0.4569360000000  0.5806350000000 1.0
C      1  0.5574150000000  0.4560570000000  0.4177020000000 1.0
C      1  0.5599700000000  0.5478760000000  0.5850610000000 1.0
C      1  0.4207570000000  0.5563130000000  0.4599820000000 1.0
C      1  0.5825660000000  0.5593390000000  0.5429950000000 1.0
C      1  0.5814770000000  0.4417630000000  0.4576150000000 1.0
C      1  0.5464090000000  0.5882580000000  0.5593280000000 1.0
C      1  0.4598380000000  0.5795560000000  0.4457010000000 1.0
C      1  0.4569820000000  0.4153810000000  0.5581780000000 1.0
C      1  0.5388440000000  0.4332860000000  0.4190160000000 1.0
C      1  0.4198260000000  0.5393910000000  0.4360430000000 1.0
C      1  0.4333210000000  0.4161820000000  0.5407400000000 1.0
C      1  0.5417900000000  0.5714740000000  0.5830730000000 1.0
C      1  0.4622580000000  0.5652510000000  0.4207600000000 1.0
C      1  0.4624750000000  0.4333900000000  0.5808090000000 1.0
C      1  0.4205240000000  0.4599630000000  0.5652970000000 1.0
C      1  0.5816020000000  0.4594340000000  0.4340540000000 1.0
C      1  0.5812550000000  0.5408950000000  0.5659560000000 1.0
C      1  0.4360050000000  0.5807740000000  0.4625610000000 1.0
C      1  0.5689360000000  0.5849020000000  0.5402820000000 1.0
C      1  0.5654830000000  0.4174310000000  0.4607180000000 1.0
C      1  0.5717150000000  0.4854210000000  0.5728400000000 1.0
C      1  0.5751090000000  0.5765240000000  0.4801730000000 1.0
C      1  0.4807790000000  0.5746700000000  0.5747150000000 1.0
C      1  0.5778570000000  0.5187580000000  0.4232840000000 1.0
C      1  0.4253450000000  0.5149570000000  0.5744050000000 1.0
C      1  0.4231590000000  0.4806990000000  0.4232900000000 1.0
C      1  0.5732780000000  0.4236490000000  0.5189050000000 1.0
C      1  0.4266730000000  0.4235080000000  0.4793480000000 1.0
C      1  0.4263240000000  0.5755920000000  0.5207260000000 1.0
C      1  0.4811630000000  0.4243500000000  0.4255120000000 1.0
C      1  0.5165450000000  0.4309130000000  0.5729900000000 1.0
C      1  0.5197260000000  0.5729160000000  0.4275600000000 1.0
C      1  0.4387750000000  0.5913960000000  0.4909460000000 1.0
C      1  0.4919890000000  0.4394930000000  0.5888200000000 1.0
C      1  0.5915690000000  0.4888160000000  0.4375100000000 1.0
C      1  0.4377230000000  0.4059580000000  0.5079060000000 1.0
C      1  0.5623440000000  0.4067830000000  0.4895660000000 1.0
C      1  0.5638950000000  0.5945040000000  0.5087000000000 1.0
C      1  0.4908040000000  0.5616470000000  0.4105640000000 1.0
C      1  0.5082570000000  0.5642930000000  0.5916860000000 1.0
C      1  0.5101850000000  0.4367960000000  0.4089020000000 1.0
C      1  0.5866700000000  0.5103440000000  0.5599960000000 1.0
C      1  0.4092890000000  0.5106560000000  0.4382090000000 1.0
C      1  0.4110020000000  0.4889160000000  0.5607640000000 1.0
C      1  0.5128070000000  0.4986240000000  0.4793140000000 1.0
C      1  0.4649460000000  0.4963200000000  0.4975180000000 1.0
C      1  0.5009810000000  0.5031770000000  0.5206490000000 1.0
C      1  0.5355730000000  0.5012150000000  0.4957720000000 1.0
C      1  0.4921360000000  0.4871070000000  0.4965500000000 1.0
C      1  0.5017330000000  0.5308710000000  0.5105850000000 1.0
C      1  0.5349610000000  0.5423380000000  0.5380000000000 1.0
C      1  0.5351400000000  0.4654730000000  0.4649340000000 1.0
C      1  0.4651310000000  0.4616590000000  0.5312060000000 1.0
C      1  0.4684280000000  0.5315360000000  0.4686030000000 1.0
END
