TITL C-3201378-2706-62 265.123516040162 125000 -1209.99243205198 0 0 196 (C1) n - 1
REM
REM in /home/nfs/bkarasulu/CARBON/AIRSS/Generating-Clusters/LCBOP/Higher-Symm/SD-CG/FIRE-CG
REM
REM
REM
REM
REM
REM ./C.cell (b20cbc046b6831c77cfcea5457e17084)
REM AIRSS Version 0.9.1 bugfix July 2018 build 013d7b7c2542+ Fri, 06 Jul 2018 19:26:36 +0100
REM compiler GCC version 9.2.1 20190827 (Red Hat 9.2.1-1)
REM options -cpp -mtune=generic -march=x86-64 -g -O0 -fpre-include=/usr/include/finclude/math-vector-fortran.h
REM seed -769614608 -1390299922 88615072 341778143 -618067204 -121001575 -721480187 889844199 -504431859 511777192 598613937 650470850 -644767181 -157538348 -638496329 1650460418 -1699686603 -1731740633 1593691663 1861815259 919057476 -1609016908 1688351854 21880589 -840359928 298805208 -1067454361 -1737214284 226161156 -1129170958 -451950482 -88430291 -326797007
REM
CELL 1.54180   50.00000   50.00000   50.00000   90.00000   90.00000   90.00000
LATT -1
SFAC C  
C      1  0.4844640000000  0.4034690000000  0.5810580000000 1.0
C      1  0.4208800000000  0.5051050000000  0.4788610000000 1.0
C      1  0.4955670000000  0.4685300000000  0.5075400000000 1.0
C      1  0.4105740000000  0.4229830000000  0.5272310000000 1.0
C      1  0.6066910000000  0.5357190000000  0.4772960000000 1.0
C      1  0.3589540000000  0.4390250000000  0.5765500000000 1.0
C      1  0.5471810000000  0.4345210000000  0.6069030000000 1.0
C      1  0.4567410000000  0.5224940000000  0.3955420000000 1.0
C      1  0.5329420000000  0.3753200000000  0.4769640000000 1.0
C      1  0.5529220000000  0.3962290000000  0.4784880000000 1.0
C      1  0.6018650000000  0.5247160000000  0.5839910000000 1.0
C      1  0.5878730000000  0.5571070000000  0.4146680000000 1.0
C      1  0.3747710000000  0.4824490000000  0.5626920000000 1.0
C      1  0.4834410000000  0.5755710000000  0.4760270000000 1.0
C      1  0.5008420000000  0.5050940000000  0.4225720000000 1.0
C      1  0.5590390000000  0.4086930000000  0.5043200000000 1.0
C      1  0.5142860000000  0.4007670000000  0.5856360000000 1.0
C      1  0.5147730000000  0.4429440000000  0.5497390000000 1.0
C      1  0.5684160000000  0.5578130000000  0.5596080000000 1.0
C      1  0.4268720000000  0.3995970000000  0.4879220000000 1.0
C      1  0.6110930000000  0.5012090000000  0.5711850000000 1.0
C      1  0.4503220000000  0.4459730000000  0.4697920000000 1.0
C      1  0.4590990000000  0.3863000000000  0.4475200000000 1.0
C      1  0.5248060000000  0.5022350000000  0.4826810000000 1.0
C      1  0.5792750000000  0.4631580000000  0.4844810000000 1.0
C      1  0.5417500000000  0.4312740000000  0.5107070000000 1.0
C      1  0.4846250000000  0.5955960000000  0.5504260000000 1.0
C      1  0.4929810000000  0.4784170000000  0.3846250000000 1.0
C      1  0.5083580000000  0.5166360000000  0.5625000000000 1.0
C      1  0.5234620000000  0.5712430000000  0.5769410000000 1.0
C      1  0.4240540000000  0.5223020000000  0.5533880000000 1.0
C      1  0.4870440000000  0.5533750000000  0.6041910000000 1.0
C      1  0.5121370000000  0.5826410000000  0.5087870000000 1.0
C      1  0.5934920000000  0.4774260000000  0.5683930000000 1.0
C      1  0.5212480000000  0.6258520000000  0.4934860000000 1.0
C      1  0.5149210000000  0.5913780000000  0.5574500000000 1.0
C      1  0.5347680000000  0.5108340000000  0.4572580000000 1.0
C      1  0.4394080000000  0.4281060000000  0.4505730000000 1.0
C      1  0.3860430000000  0.4795490000000  0.4980890000000 1.0
C      1  0.5466570000000  0.6200730000000  0.4804040000000 1.0
C      1  0.5234550000000  0.3914710000000  0.5597430000000 1.0
C      1  0.5855810000000  0.4223900000000  0.5062460000000 1.0
C      1  0.4288650000000  0.4837420000000  0.5222030000000 1.0
C      1  0.4974930000000  0.5329410000000  0.4152730000000 1.0
C      1  0.4569230000000  0.4585240000000  0.4162740000000 1.0
C      1  0.5188820000000  0.6199980000000  0.4382550000000 1.0
C      1  0.4720420000000  0.6150900000000  0.3850120000000 1.0
C      1  0.5846420000000  0.5083820000000  0.3855800000000 1.0
C      1  0.4544800000000  0.4303040000000  0.4254960000000 1.0
C      1  0.4369850000000  0.4463330000000  0.4945590000000 1.0
C      1  0.5705810000000  0.4766520000000  0.5855510000000 1.0
C      1  0.4486280000000  0.4851130000000  0.6286000000000 1.0
C      1  0.6008520000000  0.5116910000000  0.4935480000000 1.0
C      1  0.4793420000000  0.4034330000000  0.5524150000000 1.0
C      1  0.5117950000000  0.5669730000000  0.6030240000000 1.0
C      1  0.5191340000000  0.6093760000000  0.5156880000000 1.0
C      1  0.4951890000000  0.4700700000000  0.6039830000000 1.0
C      1  0.4294710000000  0.5826220000000  0.4647310000000 1.0
C      1  0.4699340000000  0.5918570000000  0.5243330000000 1.0
C      1  0.4482700000000  0.4350870000000  0.5958770000000 1.0
C      1  0.3759410000000  0.4535130000000  0.5604070000000 1.0
C      1  0.3930020000000  0.4386820000000  0.5427590000000 1.0
C      1  0.4288850000000  0.4757410000000  0.5697020000000 1.0
C      1  0.5533340000000  0.5516690000000  0.6314320000000 1.0
C      1  0.4683160000000  0.6077110000000  0.4371270000000 1.0
C      1  0.4454210000000  0.5395610000000  0.5503200000000 1.0
C      1  0.5619840000000  0.4168690000000  0.4576010000000 1.0
C      1  0.5635590000000  0.4373110000000  0.5502060000000 1.0
C      1  0.5896070000000  0.4658630000000  0.4187630000000 1.0
C      1  0.5879760000000  0.4378160000000  0.5335480000000 1.0
C      1  0.5084720000000  0.5875960000000  0.3618620000000 1.0
C      1  0.4329700000000  0.4536760000000  0.5842840000000 1.0
C      1  0.4087240000000  0.5256060000000  0.4190580000000 1.0
C      1  0.5000030000000  0.4650120000000  0.4624680000000 1.0
C      1  0.5401090000000  0.4530580000000  0.5550230000000 1.0
C      1  0.4751780000000  0.5009620000000  0.4749480000000 1.0
C      1  0.4882550000000  0.6041760000000  0.3669270000000 1.0
C      1  0.4330500000000  0.4052060000000  0.5349210000000 1.0
C      1  0.4288050000000  0.5253340000000  0.3987950000000 1.0
C      1  0.4937110000000  0.4799440000000  0.5328300000000 1.0
C      1  0.5400600000000  0.4823320000000  0.5485750000000 1.0
C      1  0.5922350000000  0.5461430000000  0.5683930000000 1.0
C      1  0.3688130000000  0.4993050000000  0.4302000000000 1.0
C      1  0.4441230000000  0.4600090000000  0.5184840000000 1.0
C      1  0.4319340000000  0.4673390000000  0.4053610000000 1.0
C      1  0.4712020000000  0.5353450000000  0.5074140000000 1.0
C      1  0.4740750000000  0.4247240000000  0.5974450000000 1.0
C      1  0.5697420000000  0.5781030000000  0.4548920000000 1.0
C      1  0.4631120000000  0.4911660000000  0.4515190000000 1.0
C      1  0.5294110000000  0.4414810000000  0.4074710000000 1.0
C      1  0.4674760000000  0.4038520000000  0.4243810000000 1.0
C      1  0.4970460000000  0.4391630000000  0.5055810000000 1.0
C      1  0.5423360000000  0.5044860000000  0.5049840000000 1.0
C      1  0.6074860000000  0.4960330000000  0.4511790000000 1.0
C      1  0.4645420000000  0.6169390000000  0.4105010000000 1.0
C      1  0.5658340000000  0.5688210000000  0.5337580000000 1.0
C      1  0.5626900000000  0.4700180000000  0.4249950000000 1.0
C      1  0.3990020000000  0.4878260000000  0.6090670000000 1.0
C      1  0.4792420000000  0.3704120000000  0.4614560000000 1.0
C      1  0.5756140000000  0.5374850000000  0.6270520000000 1.0
C      1  0.4796560000000  0.4651050000000  0.5527130000000 1.0
C      1  0.5521230000000  0.5512180000000  0.5161390000000 1.0
C      1  0.6037360000000  0.4592910000000  0.5456560000000 1.0
C      1  0.5806380000000  0.5826420000000  0.4809690000000 1.0
C      1  0.4325100000000  0.5959320000000  0.4899910000000 1.0
C      1  0.4596250000000  0.4474550000000  0.5399900000000 1.0
C      1  0.4750140000000  0.4800150000000  0.6249120000000 1.0
C      1  0.4222360000000  0.4871050000000  0.6229980000000 1.0
C      1  0.5348500000000  0.6052610000000  0.5393240000000 1.0
C      1  0.5048850000000  0.3793760000000  0.4716190000000 1.0
C      1  0.5216300000000  0.4240270000000  0.6018300000000 1.0
C      1  0.3805300000000  0.5254060000000  0.5343370000000 1.0
C      1  0.4784440000000  0.4468560000000  0.4665890000000 1.0
C      1  0.4850570000000  0.5100610000000  0.5777860000000 1.0
C      1  0.5234580000000  0.4831230000000  0.5999670000000 1.0
C      1  0.4585400000000  0.5410910000000  0.4594750000000 1.0
C      1  0.5655880000000  0.6025840000000  0.4969140000000 1.0
C      1  0.4093200000000  0.5607300000000  0.4636580000000 1.0
C      1  0.4974730000000  0.6296080000000  0.4772710000000 1.0
C      1  0.4646470000000  0.5413590000000  0.5322290000000 1.0
C      1  0.4082630000000  0.4786050000000  0.4105990000000 1.0
C      1  0.4734640000000  0.4814890000000  0.4273110000000 1.0
C      1  0.4949020000000  0.4032160000000  0.4182730000000 1.0
C      1  0.5265060000000  0.5704850000000  0.3714130000000 1.0
C      1  0.4594490000000  0.5565600000000  0.4352880000000 1.0
C      1  0.3953280000000  0.5520140000000  0.4876630000000 1.0
C      1  0.5650540000000  0.4541430000000  0.6022620000000 1.0
C      1  0.4121370000000  0.4901810000000  0.4998230000000 1.0
C      1  0.5284060000000  0.5607760000000  0.5060080000000 1.0
C      1  0.5146410000000  0.4261980000000  0.5250620000000 1.0
C      1  0.5137290000000  0.4105090000000  0.4379680000000 1.0
C      1  0.5011770000000  0.5717670000000  0.4563480000000 1.0
C      1  0.4062450000000  0.5455380000000  0.4393740000000 1.0
C      1  0.5867680000000  0.5790210000000  0.4324860000000 1.0
C      1  0.3834220000000  0.4969060000000  0.5869750000000 1.0
C      1  0.5370390000000  0.5577770000000  0.3940540000000 1.0
C      1  0.4511630000000  0.5840980000000  0.4437820000000 1.0
C      1  0.5047510000000  0.4074970000000  0.4648620000000 1.0
C      1  0.5229330000000  0.5650170000000  0.4404490000000 1.0
C      1  0.4918000000000  0.4260810000000  0.4810740000000 1.0
C      1  0.5428740000000  0.6213300000000  0.4518670000000 1.0
C      1  0.5860320000000  0.5170550000000  0.5164200000000 1.0
C      1  0.4810720000000  0.4804670000000  0.5780800000000 1.0
C      1  0.4349630000000  0.3858360000000  0.5124600000000 1.0
C      1  0.5054880000000  0.4002760000000  0.5380010000000 1.0
C      1  0.4441760000000  0.5989140000000  0.5144000000000 1.0
C      1  0.6090780000000  0.5262620000000  0.4502010000000 1.0
C      1  0.4683810000000  0.5269370000000  0.4813630000000 1.0
C      1  0.4276520000000  0.4943540000000  0.5485400000000 1.0
C      1  0.5113260000000  0.4587090000000  0.3938340000000 1.0
C      1  0.6002710000000  0.5622100000000  0.4864260000000 1.0
C      1  0.5477360000000  0.4913890000000  0.4135050000000 1.0
C      1  0.4376140000000  0.4005690000000  0.4615040000000 1.0
C      1  0.5941140000000  0.5263060000000  0.6111420000000 1.0
C      1  0.5507090000000  0.4606770000000  0.4480640000000 1.0
C      1  0.5187460000000  0.5519940000000  0.4153730000000 1.0
C      1  0.5650460000000  0.5552250000000  0.3977630000000 1.0
C      1  0.4571190000000  0.4184880000000  0.5432740000000 1.0
C      1  0.5257640000000  0.4574490000000  0.4561240000000 1.0
C      1  0.5593920000000  0.5250810000000  0.5130110000000 1.0
C      1  0.5459370000000  0.4939820000000  0.5783740000000 1.0
C      1  0.6329520000000  0.4954620000000  0.5531980000000 1.0
C      1  0.6288610000000  0.4721290000000  0.5387870000000 1.0
C      1  0.4736480000000  0.4995960000000  0.3841680000000 1.0
C      1  0.4763250000000  0.5303620000000  0.5951700000000 1.0
C      1  0.5964710000000  0.4870250000000  0.4771950000000 1.0
C      1  0.6036620000000  0.5346390000000  0.4227050000000 1.0
C      1  0.4993110000000  0.4862970000000  0.4835100000000 1.0
C      1  0.4921630000000  0.6197210000000  0.4504010000000 1.0
C      1  0.5517980000000  0.5330500000000  0.4579820000000 1.0
C      1  0.3688410000000  0.4985520000000  0.5383010000000 1.0
C      1  0.5585440000000  0.5023510000000  0.3899510000000 1.0
C      1  0.5386540000000  0.4227250000000  0.4307350000000 1.0
C      1  0.3651180000000  0.4839940000000  0.5143870000000 1.0
C      1  0.5134630000000  0.4963040000000  0.5435460000000 1.0
C      1  0.5305270000000  0.5636690000000  0.6240260000000 1.0
C      1  0.3974270000000  0.5315190000000  0.5567090000000 1.0
C      1  0.4974160000000  0.4401520000000  0.6055870000000 1.0
C      1  0.5606300000000  0.5963450000000  0.5268970000000 1.0
C      1  0.3941980000000  0.5009830000000  0.4204210000000 1.0
C      1  0.4424050000000  0.3597870000000  0.5146900000000 1.0
C      1  0.5479180000000  0.5602400000000  0.4525540000000 1.0
C      1  0.5553600000000  0.4587200000000  0.5040180000000 1.0
C      1  0.6038870000000  0.5105690000000  0.4062240000000 1.0
C      1  0.5852400000000  0.4349550000000  0.4776320000000 1.0
C      1  0.6069460000000  0.4872710000000  0.4237960000000 1.0
C      1  0.4854220000000  0.5807980000000  0.5031910000000 1.0
C      1  0.5433070000000  0.5505760000000  0.5713010000000 1.0
C      1  0.5348550000000  0.5233480000000  0.5740040000000 1.0
C      1  0.4707100000000  0.5413800000000  0.4127990000000 1.0
C      1  0.4691740000000  0.6050980000000  0.5714050000000 1.0
C      1  0.3845590000000  0.5399710000000  0.5097000000000 1.0
C      1  0.4171940000000  0.4258280000000  0.4987120000000 1.0
C      1  0.5487240000000  0.4811420000000  0.5196110000000 1.0
C      1  0.5272970000000  0.5007770000000  0.4312030000000 1.0
C      1  0.3859100000000  0.5249740000000  0.5817570000000 1.0
END
