TITL C-3201372-1405-978 -3.48562788655287e-05 125000 -998.906721163018 0 0 162 (C1) n - 1
REM
REM in /home/nfs/bkarasulu/CARBON/AIRSS/Generating-Clusters/LCBOP/Higher-Symm/SD-CG/FIRE-CG
REM
REM
REM
REM
REM
REM ./C.cell (b20cbc046b6831c77cfcea5457e17084)
REM AIRSS Version 0.9.1 bugfix July 2018 build 013d7b7c2542+ Fri, 06 Jul 2018 19:26:36 +0100
REM compiler GCC version 9.2.1 20190827 (Red Hat 9.2.1-1)
REM options -cpp -mtune=generic -march=x86-64 -g -O0 -fpre-include=/usr/include/finclude/math-vector-fortran.h
REM seed 1456543488 -1101876323 700099215 14856266 1471920054 1431006634 -1485087065 361655667 -1734270749 -917645092 -201163247 917142127 -2047068417 -1187911429 1051556205 -200188619 -1511425304 -653843719 -1876751074 1659588853 148341165 -1631091853 1715668260 -2015880796 -333481970 -1183986916 1140355968 189263384 1565091650 -26524671 1238131470 2134383970 759989454
REM
CELL 1.54180   50.00000   50.00000   50.00000   90.00000   90.00000   90.00000
LATT -1
SFAC C  
C      1  0.5238400000000  0.5846210000000  0.4593260000000 1.0
C      1  0.5214920000000  0.5777210000000  0.5342250000000 1.0
C      1  0.4608320000000  0.5883830000000  0.5003730000000 1.0
C      1  0.5704440000000  0.5280340000000  0.5862890000000 1.0
C      1  0.3914920000000  0.5490810000000  0.5352350000000 1.0
C      1  0.5244450000000  0.5403080000000  0.3977280000000 1.0
C      1  0.4298850000000  0.3995030000000  0.4904170000000 1.0
C      1  0.5523340000000  0.3987100000000  0.4510250000000 1.0
C      1  0.4914030000000  0.3688320000000  0.5731870000000 1.0
C      1  0.4486070000000  0.4781240000000  0.4758290000000 1.0
C      1  0.5570850000000  0.4838130000000  0.4759400000000 1.0
C      1  0.4889290000000  0.4778130000000  0.5428370000000 1.0
C      1  0.5923030000000  0.6093230000000  0.4681220000000 1.0
C      1  0.4871780000000  0.5898540000000  0.5943930000000 1.0
C      1  0.4307260000000  0.5903520000000  0.4345680000000 1.0
C      1  0.5473350000000  0.5869300000000  0.4051430000000 1.0
C      1  0.5640130000000  0.5733870000000  0.5726240000000 1.0
C      1  0.3987960000000  0.5916340000000  0.5052580000000 1.0
C      1  0.4712120000000  0.6009240000000  0.5231870000000 1.0
C      1  0.4982940000000  0.5955140000000  0.4580120000000 1.0
C      1  0.5369390000000  0.5881340000000  0.5131220000000 1.0
C      1  0.4108390000000  0.4663620000000  0.3816100000000 1.0
C      1  0.6565930000000  0.4763710000000  0.4776140000000 1.0
C      1  0.4348030000000  0.4708140000000  0.6334220000000 1.0
C      1  0.3905850000000  0.5713400000000  0.5205510000000 1.0
C      1  0.5371740000000  0.5638110000000  0.3961060000000 1.0
C      1  0.5745440000000  0.5476210000000  0.5674590000000 1.0
C      1  0.6056780000000  0.6004870000000  0.5310190000000 1.0
C      1  0.4258330000000  0.5900120000000  0.5763370000000 1.0
C      1  0.4787030000000  0.5912850000000  0.3904540000000 1.0
C      1  0.4792190000000  0.6030090000000  0.4144700000000 1.0
C      1  0.5816460000000  0.6054050000000  0.5204500000000 1.0
C      1  0.4446810000000  0.6040770000000  0.5631520000000 1.0
C      1  0.5198200000000  0.5934660000000  0.5582970000000 1.0
C      1  0.4436050000000  0.6018120000000  0.4812830000000 1.0
C      1  0.5464270000000  0.6013530000000  0.4540130000000 1.0
C      1  0.3867600000000  0.4604120000000  0.3930310000000 1.0
C      1  0.6549120000000  0.4613910000000  0.4549740000000 1.0
C      1  0.4515250000000  0.4586850000000  0.6510570000000 1.0
C      1  0.4308610000000  0.5700360000000  0.4168120000000 1.0
C      1  0.6131030000000  0.5923030000000  0.4692250000000 1.0
C      1  0.4705520000000  0.5712360000000  0.6045140000000 1.0
C      1  0.4729900000000  0.5101840000000  0.4385880000000 1.0
C      1  0.5837380000000  0.5300930000000  0.4917970000000 1.0
C      1  0.4502850000000  0.5157140000000  0.5560420000000 1.0
C      1  0.5627030000000  0.4094260000000  0.5541680000000 1.0
C      1  0.4449270000000  0.4090630000000  0.5126910000000 1.0
C      1  0.5107800000000  0.4364320000000  0.4705760000000 1.0
C      1  0.4030740000000  0.5284180000000  0.5501950000000 1.0
C      1  0.5038920000000  0.5214270000000  0.4018310000000 1.0
C      1  0.5888770000000  0.5407600000000  0.5437600000000 1.0
C      1  0.5438050000000  0.5912740000000  0.5732320000000 1.0
C      1  0.4169790000000  0.6046140000000  0.4904600000000 1.0
C      1  0.5523620000000  0.6028380000000  0.4263120000000 1.0
C      1  0.6357210000000  0.4782660000000  0.4968500000000 1.0
C      1  0.4350200000000  0.4649970000000  0.6057130000000 1.0
C      1  0.4354770000000  0.4609670000000  0.3945340000000 1.0
C      1  0.4494940000000  0.6008390000000  0.4531760000000 1.0
C      1  0.5649260000000  0.6065400000000  0.4749600000000 1.0
C      1  0.4935120000000  0.5989050000000  0.5682490000000 1.0
C      1  0.4705350000000  0.6037240000000  0.5512080000000 1.0
C      1  0.4760450000000  0.6023070000000  0.4425880000000 1.0
C      1  0.5598580000000  0.6010740000000  0.5028330000000 1.0
C      1  0.6164310000000  0.4891370000000  0.5604930000000 1.0
C      1  0.3947300000000  0.4626360000000  0.5425940000000 1.0
C      1  0.5057380000000  0.4464680000000  0.3869530000000 1.0
C      1  0.5001010000000  0.4398190000000  0.4465400000000 1.0
C      1  0.5719970000000  0.4305560000000  0.5411620000000 1.0
C      1  0.4330600000000  0.4214900000000  0.5346040000000 1.0
C      1  0.6257610000000  0.5844550000000  0.5384770000000 1.0
C      1  0.4252660000000  0.5650110000000  0.5895020000000 1.0
C      1  0.4763020000000  0.5703490000000  0.3739920000000 1.0
C      1  0.4811530000000  0.3757190000000  0.4478450000000 1.0
C      1  0.5292840000000  0.3613760000000  0.5104950000000 1.0
C      1  0.4497840000000  0.3423380000000  0.5189950000000 1.0
C      1  0.5948550000000  0.5457540000000  0.4708750000000 1.0
C      1  0.4613310000000  0.5326370000000  0.5768600000000 1.0
C      1  0.4520390000000  0.5295370000000  0.4353650000000 1.0
C      1  0.5326010000000  0.3813610000000  0.4609120000000 1.0
C      1  0.4917520000000  0.3558240000000  0.5484160000000 1.0
C      1  0.4388180000000  0.3745330000000  0.4797770000000 1.0
C      1  0.4762400000000  0.5438870000000  0.3697200000000 1.0
C      1  0.6326620000000  0.5589850000000  0.5437360000000 1.0
C      1  0.4034770000000  0.5475950000000  0.5933150000000 1.0
C      1  0.4220960000000  0.4956090000000  0.5184910000000 1.0
C      1  0.5197580000000  0.4938110000000  0.4409090000000 1.0
C      1  0.5367080000000  0.4774470000000  0.5372540000000 1.0
C      1  0.6101710000000  0.4466070000000  0.4658660000000 1.0
C      1  0.4715880000000  0.4317770000000  0.6156540000000 1.0
C      1  0.4066240000000  0.4424550000000  0.4334050000000 1.0
C      1  0.4621820000000  0.4698510000000  0.3892500000000 1.0
C      1  0.6352480000000  0.4976990000000  0.5171390000000 1.0
C      1  0.4149460000000  0.4727150000000  0.5868750000000 1.0
C      1  0.5791200000000  0.5456780000000  0.4474580000000 1.0
C      1  0.4898410000000  0.5308910000000  0.5785890000000 1.0
C      1  0.4377910000000  0.5353640000000  0.4591440000000 1.0
C      1  0.6143780000000  0.5657150000000  0.4730580000000 1.0
C      1  0.4511870000000  0.5538640000000  0.5929620000000 1.0
C      1  0.4432380000000  0.5460870000000  0.4144030000000 1.0
C      1  0.4796950000000  0.4465120000000  0.4288680000000 1.0
C      1  0.5853270000000  0.4535460000000  0.5325640000000 1.0
C      1  0.4347060000000  0.4394530000000  0.5557830000000 1.0
C      1  0.4672370000000  0.4914140000000  0.4587670000000 1.0
C      1  0.5736940000000  0.5052810000000  0.4839260000000 1.0
C      1  0.4689480000000  0.4965070000000  0.5478030000000 1.0
C      1  0.4565150000000  0.3743910000000  0.4579460000000 1.0
C      1  0.5359810000000  0.3692980000000  0.4860390000000 1.0
C      1  0.4684770000000  0.3442360000000  0.5378660000000 1.0
C      1  0.4321140000000  0.4469590000000  0.4193230000000 1.0
C      1  0.6138740000000  0.4603550000000  0.4920220000000 1.0
C      1  0.4568800000000  0.4477180000000  0.5968460000000 1.0
C      1  0.5527820000000  0.5488500000000  0.4445210000000 1.0
C      1  0.5105450000000  0.5407650000000  0.5646990000000 1.0
C      1  0.4390680000000  0.5508200000000  0.4807400000000 1.0
C      1  0.5124370000000  0.5511240000000  0.5384370000000 1.0
C      1  0.4592660000000  0.5601120000000  0.4984090000000 1.0
C      1  0.5294840000000  0.5568580000000  0.4581770000000 1.0
C      1  0.4120000000000  0.4167550000000  0.4772060000000 1.0
C      1  0.5690160000000  0.4195130000000  0.4511970000000 1.0
C      1  0.4896350000000  0.3868410000000  0.5926440000000 1.0
C      1  0.5981070000000  0.4699590000000  0.5513640000000 1.0
C      1  0.4126260000000  0.4561640000000  0.5633630000000 1.0
C      1  0.4832090000000  0.4540900000000  0.4014580000000 1.0
C      1  0.4694010000000  0.4400140000000  0.6427110000000 1.0
C      1  0.3841760000000  0.4488950000000  0.4176530000000 1.0
C      1  0.6327250000000  0.4468300000000  0.4490180000000 1.0
C      1  0.5818260000000  0.4414460000000  0.4625470000000 1.0
C      1  0.4840340000000  0.4081860000000  0.6074600000000 1.0
C      1  0.4144940000000  0.4398560000000  0.4614760000000 1.0
C      1  0.4258280000000  0.5146100000000  0.5405170000000 1.0
C      1  0.4993130000000  0.5083340000000  0.4267600000000 1.0
C      1  0.5785190000000  0.5391610000000  0.5177780000000 1.0
C      1  0.4017390000000  0.4978400000000  0.5880430000000 1.0
C      1  0.4691600000000  0.4951900000000  0.3790410000000 1.0
C      1  0.6252570000000  0.5083940000000  0.5412750000000 1.0
C      1  0.4383450000000  0.3523670000000  0.4970770000000 1.0
C      1  0.5076920000000  0.3781470000000  0.4482940000000 1.0
C      1  0.5145490000000  0.3568480000000  0.5321280000000 1.0
C      1  0.4619730000000  0.5137880000000  0.5031370000000 1.0
C      1  0.5194620000000  0.5114940000000  0.4845380000000 1.0
C      1  0.5118940000000  0.5100240000000  0.5116820000000 1.0
C      1  0.5686630000000  0.4586860000000  0.4824330000000 1.0
C      1  0.4825510000000  0.4526960000000  0.5542540000000 1.0
C      1  0.4402350000000  0.4538180000000  0.4642720000000 1.0
C      1  0.5879730000000  0.4591210000000  0.5051500000000 1.0
C      1  0.4596220000000  0.4443090000000  0.5688100000000 1.0
C      1  0.4533690000000  0.4475310000000  0.4385200000000 1.0
C      1  0.6258050000000  0.4891900000000  0.5861270000000 1.0
C      1  0.4005040000000  0.4778590000000  0.5211440000000 1.0
C      1  0.5279280000000  0.4402130000000  0.3748070000000 1.0
C      1  0.5124470000000  0.4874850000000  0.5295470000000 1.0
C      1  0.4427910000000  0.4936180000000  0.4991640000000 1.0
C      1  0.5312820000000  0.4923370000000  0.4670380000000 1.0
C      1  0.5166870000000  0.5372180000000  0.4729470000000 1.0
C      1  0.4998340000000  0.5350520000000  0.5195820000000 1.0
C      1  0.4740490000000  0.5385820000000  0.5089530000000 1.0
C      1  0.6172090000000  0.5355020000000  0.5447510000000 1.0
C      1  0.3984720000000  0.5242590000000  0.5782010000000 1.0
C      1  0.4833200000000  0.5193990000000  0.3817520000000 1.0
C      1  0.5565260000000  0.3895810000000  0.5699010000000 1.0
C      1  0.4721840000000  0.4060390000000  0.5125210000000 1.0
C      1  0.5178250000000  0.4333790000000  0.4954830000000 1.0
END
