TITL C-3201378-2706-556 -6530.69621182225 125000 -685.509565842524 0 0 115 (C1) n - 1
REM
REM in /home/nfs/bkarasulu/CARBON/AIRSS/Generating-Clusters/LCBOP/Higher-Symm/SD-CG/FIRE-CG
REM
REM
REM
REM
REM
REM ./C.cell (b20cbc046b6831c77cfcea5457e17084)
REM AIRSS Version 0.9.1 bugfix July 2018 build 013d7b7c2542+ Fri, 06 Jul 2018 19:26:36 +0100
REM compiler GCC version 9.2.1 20190827 (Red Hat 9.2.1-1)
REM options -cpp -mtune=generic -march=x86-64 -g -O0 -fpre-include=/usr/include/finclude/math-vector-fortran.h
REM seed 280735778 -250804894 1152910804 906147515 980949717 1308340031 788033820 1168493106 -857791269 521497106 -1806892691 1276110748 -758734588 -1286612151 1259291415 -1975985189 568371704 -1916588787 -754463243 -1754190186 1500064908 167571066 856672541 1464486376 -276704571 141154214 591370327 1960342716 -1985527726 -425973037 359048386 1765189212 243668049
REM
CELL 1.54180   50.00000   50.00000   50.00000   90.00000   90.00000   90.00000
LATT -1
SFAC C  
C      1  0.5140030000000  0.4014690000000  0.4546830000000 1.0
C      1  0.4771570000000  0.5130790000000  0.4001980000000 1.0
C      1  0.4085190000000  0.4741490000000  0.5167280000000 1.0
C      1  0.4858870000000  0.3963450000000  0.5206810000000 1.0
C      1  0.5176200000000  0.6036850000000  0.5212360000000 1.0
C      1  0.4696660000000  0.6034300000000  0.4775920000000 1.0
C      1  0.5303420000000  0.5220050000000  0.5989040000000 1.0
C      1  0.4761450000000  0.4798790000000  0.5982280000000 1.0
C      1  0.5270820000000  0.4683080000000  0.4100500000000 1.0
C      1  0.6043520000000  0.4799740000000  0.4860140000000 1.0
C      1  0.4054750000000  0.5402080000000  0.4809520000000 1.0
C      1  0.5872910000000  0.5239950000000  0.5260680000000 1.0
C      1  0.5174770000000  0.6014720000000  0.4732550000000 1.0
C      1  0.4778590000000  0.4664820000000  0.4101490000000 1.0
C      1  0.4031270000000  0.5206690000000  0.5259410000000 1.0
C      1  0.4714320000000  0.6009690000000  0.5285520000000 1.0
C      1  0.5285190000000  0.3813750000000  0.5028450000000 1.0
C      1  0.4693520000000  0.4047470000000  0.4758770000000 1.0
C      1  0.5305280000000  0.4738370000000  0.5950640000000 1.0
C      1  0.4825260000000  0.5273280000000  0.6025580000000 1.0
C      1  0.5278310000000  0.5158510000000  0.3934970000000 1.0
C      1  0.5920790000000  0.5324830000000  0.4789240000000 1.0
C      1  0.3958750000000  0.4905830000000  0.4721580000000 1.0
C      1  0.5917890000000  0.4735790000000  0.5319050000000 1.0
C      1  0.4299310000000  0.5272250000000  0.5317550000000 1.0
C      1  0.5406550000000  0.4064880000000  0.4971500000000 1.0
C      1  0.5186220000000  0.5319630000000  0.4149710000000 1.0
C      1  0.5697760000000  0.5155720000000  0.4687200000000 1.0
C      1  0.4160670000000  0.5018040000000  0.4555430000000 1.0
C      1  0.5675970000000  0.4593990000000  0.5303440000000 1.0
C      1  0.4652870000000  0.4329810000000  0.4770730000000 1.0
C      1  0.5184140000000  0.5734440000000  0.4682560000000 1.0
C      1  0.4600800000000  0.5751320000000  0.5179660000000 1.0
C      1  0.4750500000000  0.5341770000000  0.5759770000000 1.0
C      1  0.5167640000000  0.4659960000000  0.5697640000000 1.0
C      1  0.4680040000000  0.4696200000000  0.4364030000000 1.0
C      1  0.4361430000000  0.4684740000000  0.5209620000000 1.0
C      1  0.5175640000000  0.5767530000000  0.5302650000000 1.0
C      1  0.5388630000000  0.4664640000000  0.4353180000000 1.0
C      1  0.5794150000000  0.4854960000000  0.4705230000000 1.0
C      1  0.4292680000000  0.5279290000000  0.4649870000000 1.0
C      1  0.5634370000000  0.5382900000000  0.5294160000000 1.0
C      1  0.4580170000000  0.5769470000000  0.4861200000000 1.0
C      1  0.5326750000000  0.4201320000000  0.4700360000000 1.0
C      1  0.4869810000000  0.4236520000000  0.5293860000000 1.0
C      1  0.4853420000000  0.4690250000000  0.5720940000000 1.0
C      1  0.5329370000000  0.5293030000000  0.5717730000000 1.0
C      1  0.4895800000000  0.5265030000000  0.4250480000000 1.0
C      1  0.4782470000000  0.4803500000000  0.4903920000000 1.0
C      1  0.4880600000000  0.4505670000000  0.4881350000000 1.0
C      1  0.4775060000000  0.4873860000000  0.4556560000000 1.0
C      1  0.5481820000000  0.4672570000000  0.5101850000000 1.0
C      1  0.4532570000000  0.5199780000000  0.5134160000000 1.0
C      1  0.5420750000000  0.5183910000000  0.4858520000000 1.0
C      1  0.5216580000000  0.4665920000000  0.5217300000000 1.0
C      1  0.4782700000000  0.5425120000000  0.5257630000000 1.0
C      1  0.5024400000000  0.5561130000000  0.4846300000000 1.0
C      1  0.5211220000000  0.4838590000000  0.5451990000000 1.0
C      1  0.4884230000000  0.5217910000000  0.5503140000000 1.0
C      1  0.5188910000000  0.5024590000000  0.4712850000000 1.0
C      1  0.4540740000000  0.5284310000000  0.4848540000000 1.0
C      1  0.4742130000000  0.5509440000000  0.4803750000000 1.0
C      1  0.4957880000000  0.5071130000000  0.4494660000000 1.0
C      1  0.5335630000000  0.5295110000000  0.5177510000000 1.0
C      1  0.4597920000000  0.4886290000000  0.5171930000000 1.0
C      1  0.5542320000000  0.4727370000000  0.4832620000000 1.0
C      1  0.5100060000000  0.5519180000000  0.5136380000000 1.0
C      1  0.5003720000000  0.4458760000000  0.5160500000000 1.0
C      1  0.5146400000000  0.4472920000000  0.4717640000000 1.0
C      1  0.5203760000000  0.5149180000000  0.5463830000000 1.0
C      1  0.4760620000000  0.4910380000000  0.5464390000000 1.0
C      1  0.5300680000000  0.4735670000000  0.4637200000000 1.0
C      1  0.5528660000000  0.4167790000000  0.5205820000000 1.0
C      1  0.5389110000000  0.5413280000000  0.4325200000000 1.0
C      1  0.4337740000000  0.5489910000000  0.5492960000000 1.0
C      1  0.4422810000000  0.4428950000000  0.4634810000000 1.0
C      1  0.5335270000000  0.5642410000000  0.4470770000000 1.0
C      1  0.4358340000000  0.5724830000000  0.5343720000000 1.0
C      1  0.4496550000000  0.5457260000000  0.5719430000000 1.0
C      1  0.5341140000000  0.4408460000000  0.5610290000000 1.0
C      1  0.4419310000000  0.4613610000000  0.4423030000000 1.0
C      1  0.5603560000000  0.5250140000000  0.4413880000000 1.0
C      1  0.4241150000000  0.4823570000000  0.4370600000000 1.0
C      1  0.5551110000000  0.4358570000000  0.5415120000000 1.0
C      1  0.5216060000000  0.5735950000000  0.5581410000000 1.0
C      1  0.5628270000000  0.4507570000000  0.4388730000000 1.0
C      1  0.4428110000000  0.4432160000000  0.5315770000000 1.0
C      1  0.4375110000000  0.5736450000000  0.4629510000000 1.0
C      1  0.5572350000000  0.4266550000000  0.4530080000000 1.0
C      1  0.4647860000000  0.4321080000000  0.5448470000000 1.0
C      1  0.4716270000000  0.4431570000000  0.5693020000000 1.0
C      1  0.5414180000000  0.5560390000000  0.5668510000000 1.0
C      1  0.4655830000000  0.5448090000000  0.4327800000000 1.0
C      1  0.5838160000000  0.4685140000000  0.4457120000000 1.0
C      1  0.4401940000000  0.5496990000000  0.4459590000000 1.0
C      1  0.5640400000000  0.5567320000000  0.5505310000000 1.0
C      1  0.4879030000000  0.3955010000000  0.4568760000000 1.0
C      1  0.4711620000000  0.4879200000000  0.3931140000000 1.0
C      1  0.3966690000000  0.4718810000000  0.4914310000000 1.0
C      1  0.5078630000000  0.3789340000000  0.5200490000000 1.0
C      1  0.4935330000000  0.6162360000000  0.5285800000000 1.0
C      1  0.4925490000000  0.6132790000000  0.4676310000000 1.0
C      1  0.4721480000000  0.5027740000000  0.6114150000000 1.0
C      1  0.5335640000000  0.4895950000000  0.3928550000000 1.0
C      1  0.6095500000000  0.4695200000000  0.5102760000000 1.0
C      1  0.3927080000000  0.5350560000000  0.5040980000000 1.0
C      1  0.6023480000000  0.5320890000000  0.5038200000000 1.0
C      1  0.5387690000000  0.4965280000000  0.6065210000000 1.0
C      1  0.5028550000000  0.4546410000000  0.4059060000000 1.0
C      1  0.5082510000000  0.5338630000000  0.6117670000000 1.0
C      1  0.4666930000000  0.3913600000000  0.5004240000000 1.0
C      1  0.5300250000000  0.6101450000000  0.4969560000000 1.0
C      1  0.3964290000000  0.4942750000000  0.5324010000000 1.0
C      1  0.5916130000000  0.5003850000000  0.5407180000000 1.0
C      1  0.5012570000000  0.4979730000000  0.4955470000000 1.0
END
