TITL C-3201375-1262-438 -2.7529876733933e-07 125000 -295.850310197832 0 0 50 (C3) n - 1
REM
REM in /home/nfs/bkarasulu/CARBON/AIRSS/Generating-Clusters/LCBOP/Higher-Symm/SD-CG/FIRE-CG
REM
REM
REM
REM
REM
REM ./C.cell (b20cbc046b6831c77cfcea5457e17084)
REM AIRSS Version 0.9.1 bugfix July 2018 build 013d7b7c2542+ Fri, 06 Jul 2018 19:26:36 +0100
REM compiler GCC version 9.2.1 20190827 (Red Hat 9.2.1-1)
REM options -cpp -mtune=generic -march=x86-64 -g -O0 -fpre-include=/usr/include/finclude/math-vector-fortran.h
REM seed 1946366936 -409195670 -231492439 1099324413 -645713348 -967643404 698352675 2076656577 -621144922 2108259811 -697532631 965972122 -762301767 615107562 -1108800371 -32088971 -1297217804 314574948 1560641075 -1986690840 205719592 1384596537 2009087009 1977657433 -157070848 -2099323133 406101289 1027739735 -682967573 2087345182 1509538637 78096765 -926310179
REM
CELL 1.54180   50.00000   50.00000   50.00000   90.00000   90.00000   90.00000
LATT -1
SFAC C  
C      1  0.5416650000000  0.5065460000000  0.4812710000000 1.0
C      1  0.4839230000000  0.4585390000000  0.4812870000000 1.0
C      1  0.4712180000000  0.5325480000000  0.4812840000000 1.0
C      1  0.4999270000000  0.4349300000000  0.4754630000000 1.0
C      1  0.4427690000000  0.5304920000000  0.4754670000000 1.0
C      1  0.5541070000000  0.5322100000000  0.4754430000000 1.0
C      1  0.4452360000000  0.5087190000000  0.4549370000000 1.0
C      1  0.5340130000000  0.5409540000000  0.4549160000000 1.0
C      1  0.5175410000000  0.4479530000000  0.4549270000000 1.0
C      1  0.4751190000000  0.5127120000000  0.5010040000000 1.0
C      1  0.5225410000000  0.5130920000000  0.5009940000000 1.0
C      1  0.4991590000000  0.4718330000000  0.5010020000000 1.0
C      1  0.5709140000000  0.5337460000000  0.4994480000000 1.0
C      1  0.4928580000000  0.4196140000000  0.4994740000000 1.0
C      1  0.4330450000000  0.5442780000000  0.4994760000000 1.0
C      1  0.4667980000000  0.4573560000000  0.5303420000000 1.0
C      1  0.4787680000000  0.5479850000000  0.5303320000000 1.0
C      1  0.5512710000000  0.4923040000000  0.5303210000000 1.0
C      1  0.5290700000000  0.5404070000000  0.5717630000000 1.0
C      1  0.5195670000000  0.4525440000000  0.5717720000000 1.0
C      1  0.4482270000000  0.5047050000000  0.5717830000000 1.0
C      1  0.5277340000000  0.4962240000000  0.5496440000000 1.0
C      1  0.4819660000000  0.4757850000000  0.5496550000000 1.0
C      1  0.4871500000000  0.5256410000000  0.5496500000000 1.0
C      1  0.5102430000000  0.4735490000000  0.5568240000000 1.0
C      1  0.4710760000000  0.5022730000000  0.5568300000000 1.0
C      1  0.5155350000000  0.5218300000000  0.5568190000000 1.0
C      1  0.4533930000000  0.5006190000000  0.5144500000000 1.0
C      1  0.5229340000000  0.5379580000000  0.5144320000000 1.0
C      1  0.5205000000000  0.4590640000000  0.5144390000000 1.0
C      1  0.4716340000000  0.4686480000000  0.4579140000000 1.0
C      1  0.4861120000000  0.5381290000000  0.4579060000000 1.0
C      1  0.5390450000000  0.4908500000000  0.4578980000000 1.0
C      1  0.4348560000000  0.4695680000000  0.4872500000000 1.0
C      1  0.5053060000000  0.5695290000000  0.4872270000000 1.0
C      1  0.5566490000000  0.4585370000000  0.4872250000000 1.0
C      1  0.4774300000000  0.5173680000000  0.4399840000000 1.0
C      1  0.5254030000000  0.5087440000000  0.4399750000000 1.0
C      1  0.4939470000000  0.4715110000000  0.4399840000000 1.0
C      1  0.5093770000000  0.5538260000000  0.4628680000000 1.0
C      1  0.5410080000000  0.4628550000000  0.4628690000000 1.0
C      1  0.4464100000000  0.4809470000000  0.4628870000000 1.0
C      1  0.4778760000000  0.4316100000000  0.5203430000000 1.0
C      1  0.4509310000000  0.5512620000000  0.5203390000000 1.0
C      1  0.5680250000000  0.5147710000000  0.5203170000000 1.0
C      1  0.4474990000000  0.4725790000000  0.5134310000000 1.0
C      1  0.5015980000000  0.5570820000000  0.5134130000000 1.0
C      1  0.5477300000000  0.4679800000000  0.5134100000000 1.0
C      1  0.4989400000000  0.4992130000000  0.5017190000000 1.0
C      1  0.4989250000000  0.4992070000000  0.4333700000000 1.0
END
