TITL C-3201372-1405-147 674.229271318652 125000 -511.798298137011 0 0 87 (C1) n - 1
REM
REM in /home/nfs/bkarasulu/CARBON/AIRSS/Generating-Clusters/LCBOP/Higher-Symm/SD-CG/FIRE-CG
REM
REM
REM
REM
REM
REM ./C.cell (b20cbc046b6831c77cfcea5457e17084)
REM AIRSS Version 0.9.1 bugfix July 2018 build 013d7b7c2542+ Fri, 06 Jul 2018 19:26:36 +0100
REM compiler GCC version 9.2.1 20190827 (Red Hat 9.2.1-1)
REM options -cpp -mtune=generic -march=x86-64 -g -O0 -fpre-include=/usr/include/finclude/math-vector-fortran.h
REM seed -1596182535 918086736 -720739983 -253761658 -1392534299 201202841 1756195678 -115040898 -1879576223 1360203701 -1767663381 1594628079 1426345047 -696987801 310972805 707484643 2043722988 -1880195594 -669851517 -1018399555 -886185963 837277377 -1201187233 1819569162 -799396798 382794262 -1032874062 -282163399 -291082442 1009991047 220729868 -415623234 -1936191489
REM
CELL 1.54180   50.00000   50.00000   50.00000   90.00000   90.00000   90.00000
LATT -1
SFAC C  
C      1  0.4626330000000  0.4416380000000  0.5592490000000 1.0
C      1  0.4617490000000  0.5589840000000  0.4430600000000 1.0
C      1  0.4611060000000  0.4407590000000  0.4453150000000 1.0
C      1  0.4641940000000  0.5525610000000  0.5570570000000 1.0
C      1  0.4798670000000  0.5210490000000  0.5294310000000 1.0
C      1  0.4787350000000  0.4756860000000  0.4650360000000 1.0
C      1  0.4797320000000  0.5251310000000  0.4638750000000 1.0
C      1  0.4752330000000  0.4710030000000  0.5295700000000 1.0
C      1  0.5310050000000  0.5682310000000  0.5161230000000 1.0
C      1  0.5297770000000  0.4287990000000  0.4865850000000 1.0
C      1  0.5309100000000  0.5688320000000  0.4856420000000 1.0
C      1  0.5303760000000  0.4287690000000  0.5172360000000 1.0
C      1  0.5105800000000  0.4279510000000  0.5380060000000 1.0
C      1  0.5101960000000  0.5703430000000  0.4659720000000 1.0
C      1  0.5093470000000  0.4279000000000  0.4666030000000 1.0
C      1  0.5101080000000  0.5669130000000  0.5353860000000 1.0
C      1  0.5296020000000  0.4702180000000  0.5659110000000 1.0
C      1  0.5297920000000  0.5288860000000  0.4355170000000 1.0
C      1  0.5291250000000  0.4691710000000  0.4354390000000 1.0
C      1  0.5317610000000  0.5275590000000  0.5661200000000 1.0
C      1  0.5481060000000  0.4838750000000  0.5481390000000 1.0
C      1  0.5468010000000  0.5140710000000  0.4543130000000 1.0
C      1  0.5464930000000  0.4838790000000  0.4536330000000 1.0
C      1  0.5488840000000  0.5134450000000  0.5474230000000 1.0
C      1  0.5606390000000  0.5289340000000  0.5271480000000 1.0
C      1  0.5582690000000  0.4689180000000  0.4749970000000 1.0
C      1  0.5604430000000  0.5290620000000  0.4741470000000 1.0
C      1  0.5595670000000  0.4692280000000  0.5265650000000 1.0
C      1  0.6005200000000  0.5121470000000  0.5218020000000 1.0
C      1  0.6184610000000  0.4943070000000  0.4600840000000 1.0
C      1  0.6000580000000  0.5006860000000  0.4773630000000 1.0
C      1  0.6198570000000  0.5118690000000  0.5392380000000 1.0
C      1  0.4347890000000  0.5130720000000  0.5463220000000 1.0
C      1  0.4337310000000  0.4860860000000  0.4531810000000 1.0
C      1  0.4343940000000  0.5153660000000  0.4530940000000 1.0
C      1  0.4328440000000  0.4838000000000  0.5472200000000 1.0
C      1  0.4405440000000  0.5134730000000  0.4079810000000 1.0
C      1  0.4413030000000  0.4847030000000  0.5931150000000 1.0
C      1  0.4418240000000  0.5125200000000  0.5925840000000 1.0
C      1  0.4406230000000  0.4853920000000  0.4083560000000 1.0
C      1  0.5230870000000  0.4852930000000  0.4124940000000 1.0
C      1  0.5265010000000  0.5125270000000  0.5897780000000 1.0
C      1  0.5247300000000  0.4853410000000  0.5895880000000 1.0
C      1  0.5237060000000  0.5126560000000  0.4125910000000 1.0
C      1  0.5121390000000  0.5456680000000  0.5561790000000 1.0
C      1  0.5109410000000  0.4478350000000  0.4442980000000 1.0
C      1  0.5118700000000  0.5510110000000  0.4429890000000 1.0
C      1  0.5105100000000  0.4509540000000  0.5565910000000 1.0
C      1  0.4762240000000  0.4189640000000  0.5333860000000 1.0
C      1  0.4757990000000  0.5764140000000  0.4729350000000 1.0
C      1  0.4751110000000  0.4218410000000  0.4738600000000 1.0
C      1  0.4769130000000  0.5738450000000  0.5308850000000 1.0
C      1  0.4385890000000  0.4672260000000  0.5703910000000 1.0
C      1  0.4386130000000  0.5324390000000  0.4302340000000 1.0
C      1  0.4384790000000  0.4673190000000  0.4313790000000 1.0
C      1  0.4402610000000  0.5294260000000  0.5693360000000 1.0
C      1  0.5567350000000  0.4403090000000  0.4786890000000 1.0
C      1  0.5580950000000  0.5567330000000  0.5229290000000 1.0
C      1  0.5577860000000  0.4405170000000  0.5235100000000 1.0
C      1  0.5578640000000  0.5569670000000  0.4783860000000 1.0
C      1  0.4958740000000  0.4702340000000  0.4877720000000 1.0
C      1  0.4950270000000  0.5367350000000  0.5099150000000 1.0
C      1  0.4829060000000  0.4535810000000  0.5061800000000 1.0
C      1  0.4982840000000  0.5319150000000  0.4846140000000 1.0
C      1  0.4835020000000  0.4559480000000  0.4428660000000 1.0
C      1  0.4857630000000  0.5344220000000  0.5557330000000 1.0
C      1  0.4832320000000  0.4595050000000  0.5557570000000 1.0
C      1  0.4839840000000  0.5438960000000  0.4402270000000 1.0
C      1  0.4458290000000  0.4731040000000  0.5245570000000 1.0
C      1  0.4510480000000  0.5254370000000  0.4744920000000 1.0
C      1  0.4493510000000  0.4756340000000  0.4752090000000 1.0
C      1  0.4502480000000  0.5221730000000  0.5237560000000 1.0
C      1  0.4094280000000  0.5262280000000  0.4988890000000 1.0
C      1  0.4064120000000  0.4780410000000  0.4977040000000 1.0
C      1  0.4733200000000  0.4264170000000  0.5041760000000 1.0
C      1  0.4701570000000  0.5790330000000  0.5019210000000 1.0
C      1  0.4379100000000  0.5286440000000  0.4993130000000 1.0
C      1  0.4342270000000  0.4716470000000  0.4990070000000 1.0
C      1  0.5738040000000  0.4314010000000  0.5007360000000 1.0
C      1  0.5744590000000  0.5660110000000  0.5006490000000 1.0
C      1  0.4910560000000  0.4949570000000  0.5250560000000 1.0
C      1  0.4858780000000  0.4999800000000  0.4517290000000 1.0
C      1  0.5791310000000  0.5100830000000  0.4986160000000 1.0
C      1  0.3955940000000  0.5029060000000  0.4980870000000 1.0
C      1  0.5079490000000  0.4905210000000  0.5029150000000 1.0
C      1  0.5335930000000  0.4986260000000  0.5009920000000 1.0
C      1  0.5606820000000  0.4854980000000  0.5006350000000 1.0
END
