TITL C-3201379-3821-1345 246661.833245989 125000 -731.852656779376 0 0 126 (C3) n - 1
REM
REM in /home/nfs/bkarasulu/CARBON/AIRSS/Generating-Clusters/LCBOP/Higher-Symm/SD-CG/FIRE-CG
REM
REM
REM
REM
REM
REM ./C.cell (b20cbc046b6831c77cfcea5457e17084)
REM AIRSS Version 0.9.1 bugfix July 2018 build 013d7b7c2542+ Fri, 06 Jul 2018 19:26:36 +0100
REM compiler GCC version 9.2.1 20190827 (Red Hat 9.2.1-1)
REM options -cpp -mtune=generic -march=x86-64 -g -O0 -fpre-include=/usr/include/finclude/math-vector-fortran.h
REM seed -685712968 1239736357 -2074440286 -984085787 -340526148 -284435020 -401032161 -2042886466 -1324793212 -976638234 -140496152 1044757821 682160492 -7124398 1006392280 2030342401 1712475826 1313207399 -1025746321 -201589185 885778740 1596545657 -95172738 1028299851 1325181063 708784795 -1438946586 -1944951384 -931851094 -616237772 1022724004 -32822512 -2052806150
REM
CELL 1.54180   50.00000   50.00000   50.00000   90.00000   90.00000   90.00000
LATT -1
SFAC C  
C      1  0.5205060000000  0.4515960000000  0.4865800000000 1.0
C      1  0.4478320000000  0.5064550000000  0.4865850000000 1.0
C      1  0.5316650000000  0.5419760000000  0.4865770000000 1.0
C      1  0.5258800000000  0.4475840000000  0.5153610000000 1.0
C      1  0.4416580000000  0.5037950000000  0.5153660000000 1.0
C      1  0.5324500000000  0.5486550000000  0.5153450000000 1.0
C      1  0.4610680000000  0.5202320000000  0.5576110000000 1.0
C      1  0.5370320000000  0.5236460000000  0.5575260000000 1.0
C      1  0.5019170000000  0.4561190000000  0.5575810000000 1.0
C      1  0.4630890000000  0.5244960000000  0.4421610000000 1.0
C      1  0.5397240000000  0.5197540000000  0.4422520000000 1.0
C      1  0.4972250000000  0.4557560000000  0.4422050000000 1.0
C      1  0.4144710000000  0.4639370000000  0.4847550000000 1.0
C      1  0.5115270000000  0.5921060000000  0.4847460000000 1.0
C      1  0.5739910000000  0.4439830000000  0.4847860000000 1.0
C      1  0.4119820000000  0.4592400000000  0.5146680000000 1.0
C      1  0.5086970000000  0.5966000000000  0.5146800000000 1.0
C      1  0.5792830000000  0.4441870000000  0.5147250000000 1.0
C      1  0.4557330000000  0.4777960000000  0.5272360000000 1.0
C      1  0.5028980000000  0.5494390000000  0.5272370000000 1.0
C      1  0.5413330000000  0.4727900000000  0.5272470000000 1.0
C      1  0.4590590000000  0.4829380000000  0.4740310000000 1.0
C      1  0.5056900000000  0.5440000000000  0.4739990000000 1.0
C      1  0.5352440000000  0.4730890000000  0.4740200000000 1.0
C      1  0.5398990000000  0.4958060000000  0.5669800000000 1.0
C      1  0.4763070000000  0.4674740000000  0.5669660000000 1.0
C      1  0.4837560000000  0.5366550000000  0.5670520000000 1.0
C      1  0.5387650000000  0.4916550000000  0.4329920000000 1.0
C      1  0.4733120000000  0.4705890000000  0.4330080000000 1.0
C      1  0.4879180000000  0.5377310000000  0.4329170000000 1.0
C      1  0.5338400000000  0.5815910000000  0.4399140000000 1.0
C      1  0.5537100000000  0.4299890000000  0.4398810000000 1.0
C      1  0.4123680000000  0.4884650000000  0.4399570000000 1.0
C      1  0.5249200000000  0.5861740000000  0.5631160000000 1.0
C      1  0.5621010000000  0.4354110000000  0.5631810000000 1.0
C      1  0.4128530000000  0.4784360000000  0.5630840000000 1.0
C      1  0.4844510000000  0.5612390000000  0.5812210000000 1.0
C      1  0.5608860000000  0.4829670000000  0.5811220000000 1.0
C      1  0.4546250000000  0.4556840000000  0.5809860000000 1.0
C      1  0.4914260000000  0.5625360000000  0.4197110000000 1.0
C      1  0.5585330000000  0.4762650000000  0.4197990000000 1.0
C      1  0.4500270000000  0.4611270000000  0.4199500000000 1.0
C      1  0.6095090000000  0.4974450000000  0.5087960000000 1.0
C      1  0.4430060000000  0.4064330000000  0.5087440000000 1.0
C      1  0.4474640000000  0.5961230000000  0.5087140000000 1.0
C      1  0.6028980000000  0.4997730000000  0.4827420000000 1.0
C      1  0.4483460000000  0.4110000000000  0.4826950000000 1.0
C      1  0.4487560000000  0.5892290000000  0.4826620000000 1.0
C      1  0.5282590000000  0.5422860000000  0.4011610000000 1.0
C      1  0.5225310000000  0.4547250000000  0.4011110000000 1.0
C      1  0.4492570000000  0.5030020000000  0.4011690000000 1.0
C      1  0.5237450000000  0.5448280000000  0.5990010000000 1.0
C      1  0.5269480000000  0.4574070000000  0.5990740000000 1.0
C      1  0.4493740000000  0.4977940000000  0.5989980000000 1.0
C      1  0.4994540000000  0.3959490000000  0.5106630000000 1.0
C      1  0.4102020000000  0.5524880000000  0.5106620000000 1.0
C      1  0.5903890000000  0.5515930000000  0.5106800000000 1.0
C      1  0.5143730000000  0.3989200000000  0.4863380000000 1.0
C      1  0.4052980000000  0.5380900000000  0.4863340000000 1.0
C      1  0.5803640000000  0.5630180000000  0.4863480000000 1.0
C      1  0.4434700000000  0.5202490000000  0.5817890000000 1.0
C      1  0.5460470000000  0.5388830000000  0.5816070000000 1.0
C      1  0.5106300000000  0.4409170000000  0.5818100000000 1.0
C      1  0.4461260000000  0.5265160000000  0.4175680000000 1.0
C      1  0.5501320000000  0.5334180000000  0.4177330000000 1.0
C      1  0.5038820000000  0.4400930000000  0.4175690000000 1.0
C      1  0.5118620000000  0.5699050000000  0.5857730000000 1.0
C      1  0.5546080000000  0.4549420000000  0.5858250000000 1.0
C      1  0.4334730000000  0.4751110000000  0.5856770000000 1.0
C      1  0.5196770000000  0.5680430000000  0.4157770000000 1.0
C      1  0.5491110000000  0.4490890000000  0.4157410000000 1.0
C      1  0.4311700000000  0.4828420000000  0.4158880000000 1.0
C      1  0.5093350000000  0.5198330000000  0.6084090000000 1.0
C      1  0.5125360000000  0.4825480000000  0.6083300000000 1.0
C      1  0.4782330000000  0.4974530000000  0.6083860000000 1.0
C      1  0.5110860000000  0.5189160000000  0.3916440000000 1.0
C      1  0.5109220000000  0.4814480000000  0.3917290000000 1.0
C      1  0.4780420000000  0.4994580000000  0.3916630000000 1.0
C      1  0.4799330000000  0.5338670000000  0.5136270000000 1.0
C      1  0.5393420000000  0.5004640000000  0.5136310000000 1.0
C      1  0.4807050000000  0.4656810000000  0.5136350000000 1.0
C      1  0.4833340000000  0.5312180000000  0.4882530000000 1.0
C      1  0.5353370000000  0.4988450000000  0.4882670000000 1.0
C      1  0.4813140000000  0.4699660000000  0.4882690000000 1.0
C      1  0.4241040000000  0.5438570000000  0.4660760000000 1.0
C      1  0.5759550000000  0.5438160000000  0.4661260000000 1.0
C      1  0.4999670000000  0.4123300000000  0.4660950000000 1.0
C      1  0.4312300000000  0.5490060000000  0.5276650000000 1.0
C      1  0.5768410000000  0.5350770000000  0.5276210000000 1.0
C      1  0.4919400000000  0.4159130000000  0.5276440000000 1.0
C      1  0.4000980000000  0.5099260000000  0.4904300000000 1.0
C      1  0.5585520000000  0.5815790000000  0.4904290000000 1.0
C      1  0.5413520000000  0.4085300000000  0.4904350000000 1.0
C      1  0.4108700000000  0.5031230000000  0.5175410000000 1.0
C      1  0.5472690000000  0.5756460000000  0.5175330000000 1.0
C      1  0.5418510000000  0.4212520000000  0.5175530000000 1.0
C      1  0.4531970000000  0.5286480000000  0.5297520000000 1.0
C      1  0.5482280000000  0.5262410000000  0.5296850000000 1.0
C      1  0.4985960000000  0.4451100000000  0.5297240000000 1.0
C      1  0.4528220000000  0.5365340000000  0.4677020000000 1.0
C      1  0.5552480000000  0.5226100000000  0.4677640000000 1.0
C      1  0.4919580000000  0.4408610000000  0.4677320000000 1.0
C      1  0.4036590000000  0.4805000000000  0.5338200000000 1.0
C      1  0.5312720000000  0.5931690000000  0.5338370000000 1.0
C      1  0.5650060000000  0.4263650000000  0.5338850000000 1.0
C      1  0.4040440000000  0.4880560000000  0.4701690000000 1.0
C      1  0.5376380000000  0.5890590000000  0.4701470000000 1.0
C      1  0.5582830000000  0.4229150000000  0.4701430000000 1.0
C      1  0.4681710000000  0.4942530000000  0.4478880000000 1.0
C      1  0.5109670000000  0.5304320000000  0.4478720000000 1.0
C      1  0.5208730000000  0.4753230000000  0.4478790000000 1.0
C      1  0.4675700000000  0.4900840000000  0.5522860000000 1.0
C      1  0.5076560000000  0.5330250000000  0.5522640000000 1.0
C      1  0.5247380000000  0.4768910000000  0.5522840000000 1.0
C      1  0.4937350000000  0.5721950000000  0.4729620000000 1.0
C      1  0.5656440000000  0.4693510000000  0.4730080000000 1.0
C      1  0.4406180000000  0.4584820000000  0.4730070000000 1.0
C      1  0.4899170000000  0.5779730000000  0.5265740000000 1.0
C      1  0.5725380000000  0.4697680000000  0.5266080000000 1.0
C      1  0.4375010000000  0.4522900000000  0.5265660000000 1.0
C      1  0.4656500000000  0.5707830000000  0.4705520000000 1.0
C      1  0.5784750000000  0.4943770000000  0.4706290000000 1.0
C      1  0.4558840000000  0.4348600000000  0.4706050000000 1.0
C      1  0.4637340000000  0.5877930000000  0.5286060000000 1.0
C      1  0.5941390000000  0.4875220000000  0.5286740000000 1.0
C      1  0.4420790000000  0.4247040000000  0.5286220000000 1.0
END
