TITL C-3201376-6384-2100 -2.83435730132927e-07 125000 -611.007260421258 0 0 97 (C1) n - 1
REM
REM in /home/nfs/bkarasulu/CARBON/AIRSS/Generating-Clusters/LCBOP/Higher-Symm/SD-CG/FIRE-CG
REM
REM
REM
REM
REM
REM ./C.cell (b20cbc046b6831c77cfcea5457e17084)
REM AIRSS Version 0.9.1 bugfix July 2018 build 013d7b7c2542+ Fri, 06 Jul 2018 19:26:36 +0100
REM compiler GCC version 9.2.1 20190827 (Red Hat 9.2.1-1)
REM options -cpp -mtune=generic -march=x86-64 -g -O0 -fpre-include=/usr/include/finclude/math-vector-fortran.h
REM seed -165298485 324653363 1788669767 -1374588277 1887709672 -438894256 -209352321 -870678958 -277917559 689030185 1995792091 2075116444 -442209618 -448196039 -695600489 1227163170 -1213748257 1954512523 -1302620363 1815168639 -1877651598 669302345 468997957 -1772212607 1743544134 -1495949098 873714305 -22196784 -837083111 -146434102 294310457 -1597627381 2102396683
REM
CELL 1.54180   50.00000   50.00000   50.00000   90.00000   90.00000   90.00000
LATT -1
SFAC C  
C      1  0.4718570000000  0.4570420000000  0.4442110000000 1.0
C      1  0.5270700000000  0.4564510000000  0.5589210000000 1.0
C      1  0.4783800000000  0.5324780000000  0.4238130000000 1.0
C      1  0.5333120000000  0.5399250000000  0.5794960000000 1.0
C      1  0.4804360000000  0.5216230000000  0.5495270000000 1.0
C      1  0.5153000000000  0.5193890000000  0.4533830000000 1.0
C      1  0.4255100000000  0.4760610000000  0.4838330000000 1.0
C      1  0.5718950000000  0.4709380000000  0.5184670000000 1.0
C      1  0.5452960000000  0.5765900000000  0.4600370000000 1.0
C      1  0.4540110000000  0.5743740000000  0.5417980000000 1.0
C      1  0.5337220000000  0.5888990000000  0.5182630000000 1.0
C      1  0.4771090000000  0.5674820000000  0.4832250000000 1.0
C      1  0.4458790000000  0.5354490000000  0.5756280000000 1.0
C      1  0.5563160000000  0.5411440000000  0.4261410000000 1.0
C      1  0.5456420000000  0.5553310000000  0.5581820000000 1.0
C      1  0.4626050000000  0.5517770000000  0.4383570000000 1.0
C      1  0.5692920000000  0.5406420000000  0.5511660000000 1.0
C      1  0.4363220000000  0.5409720000000  0.4435500000000 1.0
C      1  0.5710550000000  0.4557870000000  0.5430250000000 1.0
C      1  0.4287970000000  0.4563420000000  0.4625560000000 1.0
C      1  0.5170770000000  0.4653840000000  0.4588010000000 1.0
C      1  0.4819230000000  0.4638070000000  0.5415440000000 1.0
C      1  0.4272260000000  0.5338870000000  0.5304170000000 1.0
C      1  0.5703710000000  0.5345930000000  0.4719700000000 1.0
C      1  0.4296010000000  0.5130250000000  0.4469460000000 1.0
C      1  0.5712220000000  0.5119120000000  0.5516020000000 1.0
C      1  0.5570710000000  0.4630740000000  0.4930950000000 1.0
C      1  0.4417680000000  0.4664050000000  0.5082250000000 1.0
C      1  0.4989960000000  0.5883890000000  0.4495330000000 1.0
C      1  0.5012730000000  0.5664760000000  0.5428710000000 1.0
C      1  0.4465940000000  0.4213950000000  0.5274960000000 1.0
C      1  0.5536960000000  0.4204810000000  0.4639820000000 1.0
C      1  0.5506540000000  0.5207990000000  0.4879840000000 1.0
C      1  0.4472210000000  0.5204850000000  0.5141420000000 1.0
C      1  0.5354280000000  0.5059250000000  0.4690010000000 1.0
C      1  0.4635030000000  0.5057180000000  0.5322410000000 1.0
C      1  0.5274670000000  0.4280640000000  0.5613950000000 1.0
C      1  0.4735140000000  0.4286900000000  0.4456550000000 1.0
C      1  0.4528930000000  0.4254440000000  0.5545730000000 1.0
C      1  0.5434490000000  0.4267720000000  0.4387090000000 1.0
C      1  0.5565800000000  0.4470310000000  0.3990160000000 1.0
C      1  0.4378830000000  0.4414700000000  0.5957530000000 1.0
C      1  0.5404890000000  0.4952400000000  0.4098170000000 1.0
C      1  0.4547640000000  0.4899720000000  0.5918470000000 1.0
C      1  0.5150490000000  0.5930510000000  0.4964360000000 1.0
C      1  0.4864430000000  0.5868650000000  0.5027460000000 1.0
C      1  0.5106030000000  0.4701940000000  0.5401970000000 1.0
C      1  0.4887570000000  0.4737120000000  0.4605750000000 1.0
C      1  0.4797090000000  0.5817080000000  0.5308490000000 1.0
C      1  0.5214710000000  0.5895030000000  0.4680230000000 1.0
C      1  0.4415620000000  0.4369710000000  0.5046830000000 1.0
C      1  0.5607910000000  0.4359620000000  0.4847620000000 1.0
C      1  0.4686300000000  0.4495440000000  0.5622800000000 1.0
C      1  0.5292480000000  0.4527780000000  0.4361930000000 1.0
C      1  0.4737050000000  0.5273020000000  0.5760310000000 1.0
C      1  0.5070910000000  0.5255050000000  0.4264750000000 1.0
C      1  0.5327790000000  0.5113680000000  0.5840390000000 1.0
C      1  0.4657300000000  0.5064650000000  0.4138420000000 1.0
C      1  0.5369510000000  0.4777060000000  0.4754210000000 1.0
C      1  0.4626450000000  0.4780480000000  0.5260280000000 1.0
C      1  0.5498050000000  0.4140290000000  0.5542940000000 1.0
C      1  0.4557080000000  0.4155690000000  0.4615860000000 1.0
C      1  0.4374460000000  0.4313100000000  0.4765160000000 1.0
C      1  0.5718010000000  0.4274590000000  0.5452330000000 1.0
C      1  0.5228110000000  0.4909820000000  0.5224750000000 1.0
C      1  0.4762610000000  0.4989970000000  0.4730590000000 1.0
C      1  0.5612850000000  0.5131120000000  0.4197820000000 1.0
C      1  0.4330330000000  0.5089840000000  0.5824430000000 1.0
C      1  0.5709910000000  0.4991270000000  0.5258460000000 1.0
C      1  0.4283180000000  0.5029500000000  0.4739170000000 1.0
C      1  0.5528690000000  0.4687850000000  0.5628570000000 1.0
C      1  0.4452530000000  0.4672490000000  0.4403050000000 1.0
C      1  0.4520410000000  0.5106950000000  0.4875260000000 1.0
C      1  0.5469500000000  0.5073460000000  0.5134130000000 1.0
C      1  0.5413990000000  0.4672050000000  0.4129800000000 1.0
C      1  0.4557790000000  0.4622090000000  0.5862680000000 1.0
C      1  0.4104710000000  0.5040220000000  0.5657260000000 1.0
C      1  0.5836240000000  0.5042690000000  0.4356290000000 1.0
C      1  0.4391470000000  0.5513680000000  0.5510850000000 1.0
C      1  0.5589850000000  0.5532870000000  0.4523810000000 1.0
C      1  0.4070260000000  0.5167650000000  0.5416750000000 1.0
C      1  0.5894170000000  0.5167050000000  0.4595140000000 1.0
C      1  0.5571470000000  0.4234880000000  0.4135030000000 1.0
C      1  0.4364530000000  0.4204480000000  0.5778050000000 1.0
C      1  0.4882670000000  0.4944240000000  0.3992580000000 1.0
C      1  0.5084000000000  0.5007940000000  0.5952230000000 1.0
C      1  0.4917900000000  0.5226470000000  0.4682080000000 1.0
C      1  0.4968550000000  0.5396050000000  0.5366630000000 1.0
C      1  0.4998120000000  0.5320150000000  0.5104590000000 1.0
C      1  0.4892480000000  0.5426340000000  0.4874550000000 1.0
C      1  0.4752380000000  0.5726450000000  0.4545550000000 1.0
C      1  0.5292420000000  0.5732000000000  0.5420230000000 1.0
C      1  0.5543850000000  0.4966170000000  0.5704410000000 1.0
C      1  0.4439360000000  0.4944540000000  0.4293160000000 1.0
C      1  0.5142610000000  0.5056200000000  0.4067130000000 1.0
C      1  0.4802770000000  0.5050800000000  0.5932360000000 1.0
C      1  0.5028360000000  0.5043310000000  0.5084020000000 1.0
END
