TITL C-3201379-3821-843 -2.13136484954468e-07 125000 -238.442425455825 0 0 40 (C3) n - 1
REM
REM in /home/nfs/bkarasulu/CARBON/AIRSS/Generating-Clusters/LCBOP/Higher-Symm/SD-CG/FIRE-CG
REM
REM
REM
REM
REM
REM ./C.cell (b20cbc046b6831c77cfcea5457e17084)
REM AIRSS Version 0.9.1 bugfix July 2018 build 013d7b7c2542+ Fri, 06 Jul 2018 19:26:36 +0100
REM compiler GCC version 9.2.1 20190827 (Red Hat 9.2.1-1)
REM options -cpp -mtune=generic -march=x86-64 -g -O0 -fpre-include=/usr/include/finclude/math-vector-fortran.h
REM seed -1186977848 -666543929 -645761236 -1262949917 186511308 37571471 727430222 -479951859 647729319 161651321 -1275849509 1832528754 -1423635054 840022299 -167939813 1324043542 448640481 403059333 932628328 152437319 1422459150 695521849 655048387 670444760 1462796657 -1967405415 -1028867636 408026143 -1837922081 -1866275981 -1593917027 -294970570 -1091434315
REM
CELL 1.54180   50.00000   50.00000   50.00000   90.00000   90.00000   90.00000
LATT -1
SFAC C  
C      1  0.4689200000000  0.4413520000000  0.4875940000000 1.0
C      1  0.4645340000000  0.5561670000000  0.4876550000000 1.0
C      1  0.5661600000000  0.5025570000000  0.4876340000000 1.0
C      1  0.4682530000000  0.4432470000000  0.5148550000000 1.0
C      1  0.4665180000000  0.5557740000000  0.5149140000000 1.0
C      1  0.5648370000000  0.5010130000000  0.5148930000000 1.0
C      1  0.5140920000000  0.5677910000000  0.5387190000000 1.0
C      1  0.5514640000000  0.4537830000000  0.5386610000000 1.0
C      1  0.4340450000000  0.4784220000000  0.5386650000000 1.0
C      1  0.5154140000000  0.5706570000000  0.4684970000000 1.0
C      1  0.5532630000000  0.4512660000000  0.4684370000000 1.0
C      1  0.4309420000000  0.4781830000000  0.4684410000000 1.0
C      1  0.5627570000000  0.4408170000000  0.5177810000000 1.0
C      1  0.4171620000000  0.4751430000000  0.5177870000000 1.0
C      1  0.5196870000000  0.5840680000000  0.5178530000000 1.0
C      1  0.5630620000000  0.4400010000000  0.4908850000000 1.0
C      1  0.4162940000000  0.4753100000000  0.4908920000000 1.0
C      1  0.5202570000000  0.5847600000000  0.4909580000000 1.0
C      1  0.5058170000000  0.5404360000000  0.5393050000000 1.0
C      1  0.5319120000000  0.4746260000000  0.5392720000000 1.0
C      1  0.4618720000000  0.4849320000000  0.5392720000000 1.0
C      1  0.5051510000000  0.5450140000000  0.4617450000000 1.0
C      1  0.5361840000000  0.4729810000000  0.4617100000000 1.0
C      1  0.4582850000000  0.4821230000000  0.4617080000000 1.0
C      1  0.5458460000000  0.5006700000000  0.4672120000000 1.0
C      1  0.4774350000000  0.4599050000000  0.4671850000000 1.0
C      1  0.4763370000000  0.5395330000000  0.4672270000000 1.0
C      1  0.5418880000000  0.5009060000000  0.5326800000000 1.0
C      1  0.4796410000000  0.4631590000000  0.5326550000000 1.0
C      1  0.4780740000000  0.5359400000000  0.5326930000000 1.0
C      1  0.5217910000000  0.5203760000000  0.4712710000000 1.0
C      1  0.5065300000000  0.4708810000000  0.4712430000000 1.0
C      1  0.4712960000000  0.5088450000000  0.4712600000000 1.0
C      1  0.5245980000000  0.5228690000000  0.5267610000000 1.0
C      1  0.5073040000000  0.4671560000000  0.5267300000000 1.0
C      1  0.4677030000000  0.5099890000000  0.5267490000000 1.0
C      1  0.5269670000000  0.5292730000000  0.4993610000000 1.0
C      1  0.4609880000000  0.5088590000000  0.4993450000000 1.0
C      1  0.5116560000000  0.4619260000000  0.4993250000000 1.0
C      1  0.4998730000000  0.5000350000000  0.4702450000000 1.0
END
