TITL C-3201377-4638-901 -1.57533080437583e-07 125000 -376.531916465551 0 0 60 (D2h) n - 1
REM
REM in /home/nfs/bkarasulu/CARBON/AIRSS/Generating-Clusters/LCBOP/Higher-Symm/SD-CG/FIRE-CG
REM
REM
REM
REM
REM
REM ./C.cell (b20cbc046b6831c77cfcea5457e17084)
REM AIRSS Version 0.9.1 bugfix July 2018 build 013d7b7c2542+ Fri, 06 Jul 2018 19:26:36 +0100
REM compiler GCC version 9.2.1 20190827 (Red Hat 9.2.1-1)
REM options -cpp -mtune=generic -march=x86-64 -g -O0 -fpre-include=/usr/include/finclude/math-vector-fortran.h
REM seed -353140422 -1451442228 -305731820 -2045688880 798214367 -1921823458 -2032401786 -412325841 -1012337976 641740369 1350229647 -1366012179 1865366642 -392650544 672623887 856645494 26271 2080223527 -1095685729 17977035 1077625347 58027496 -373832251 -1238341284 236468720 1182258447 -1165615886 951162348 -902729210 347676186 -327037493 -138291745 1810897059
REM
CELL 1.54180   50.00000   50.00000   50.00000   90.00000   90.00000   90.00000
LATT -1
SFAC C  
C      1  0.5143950000000  0.4684030000000  0.4475910000000 1.0
C      1  0.5143950000000  0.5315970000000  0.5524090000000 1.0
C      1  0.4856050000000  0.4684030000000  0.4475910000000 1.0
C      1  0.4856050000000  0.5315970000000  0.5524090000000 1.0
C      1  0.5143950000000  0.5315970000000  0.4475920000000 1.0
C      1  0.5143950000000  0.4684030000000  0.5524080000000 1.0
C      1  0.4856050000000  0.5315970000000  0.4475920000000 1.0
C      1  0.4856050000000  0.4684030000000  0.5524080000000 1.0
C      1  0.5237500000000  0.5711410000000  0.5264720000000 1.0
C      1  0.5237500000000  0.4288590000000  0.4735280000000 1.0
C      1  0.4762500000000  0.5711410000000  0.5264720000000 1.0
C      1  0.4762500000000  0.4288590000000  0.4735280000000 1.0
C      1  0.5237500000000  0.4288590000000  0.5264710000000 1.0
C      1  0.5237500000000  0.5711410000000  0.4735290000000 1.0
C      1  0.4762500000000  0.4288590000000  0.5264710000000 1.0
C      1  0.4762500000000  0.5711410000000  0.4735290000000 1.0
C      1  0.5463310000000  0.4713560000000  0.4852590000000 1.0
C      1  0.5463310000000  0.5286450000000  0.5147410000000 1.0
C      1  0.4536690000000  0.4713550000000  0.4852590000000 1.0
C      1  0.4536690000000  0.5286440000000  0.5147410000000 1.0
C      1  0.5463310000000  0.5286450000000  0.4852590000000 1.0
C      1  0.5463310000000  0.4713550000000  0.5147410000000 1.0
C      1  0.4536690000000  0.5286450000000  0.4852590000000 1.0
C      1  0.4536690000000  0.4713550000000  0.5147410000000 1.0
C      1  0.5698440000000  0.4853890000000  0.4746980000000 1.0
C      1  0.5698440000000  0.5146110000000  0.5253020000000 1.0
C      1  0.4301560000000  0.4853890000000  0.4746980000000 1.0
C      1  0.4301560000000  0.5146110000000  0.5253020000000 1.0
C      1  0.5698440000000  0.5146110000000  0.4746980000000 1.0
C      1  0.5698440000000  0.4853890000000  0.5253020000000 1.0
C      1  0.4301560000000  0.5146110000000  0.4746980000000 1.0
C      1  0.4301560000000  0.4853890000000  0.5253020000000 1.0
C      1  0.5273880000000  0.5134190000000  0.4304410000000 1.0
C      1  0.5273890000000  0.4865810000000  0.5695590000000 1.0
C      1  0.4726110000000  0.5134190000000  0.4304410000000 1.0
C      1  0.4726120000000  0.4865810000000  0.5695590000000 1.0
C      1  0.5273890000000  0.4865810000000  0.4304410000000 1.0
C      1  0.5273890000000  0.5134190000000  0.5695590000000 1.0
C      1  0.4726110000000  0.4865810000000  0.4304410000000 1.0
C      1  0.4726110000000  0.5134190000000  0.5695590000000 1.0
C      1  0.4703940000000  0.4559770000000  0.4682220000000 1.0
C      1  0.4703940000000  0.5440230000000  0.5317780000000 1.0
C      1  0.5296060000000  0.4559770000000  0.4682220000000 1.0
C      1  0.5296060000000  0.5440230000000  0.5317780000000 1.0
C      1  0.4703940000000  0.5440230000000  0.4682220000000 1.0
C      1  0.4703940000000  0.4559770000000  0.5317780000000 1.0
C      1  0.5296060000000  0.5440230000000  0.4682220000000 1.0
C      1  0.5296060000000  0.4559770000000  0.5317780000000 1.0
C      1  0.4061290000000  0.4737900000000  0.4861720000000 1.0
C      1  0.4061290000000  0.5262100000000  0.5138280000000 1.0
C      1  0.5938710000000  0.4737900000000  0.4861720000000 1.0
C      1  0.5938710000000  0.5262100000000  0.5138280000000 1.0
C      1  0.4061290000000  0.5262100000000  0.4861720000000 1.0
C      1  0.4061290000000  0.4737900000000  0.5138280000000 1.0
C      1  0.5938710000000  0.5262100000000  0.4861720000000 1.0
C      1  0.5938710000000  0.4737900000000  0.5138280000000 1.0
C      1  0.5000000000000  0.5804930000000  0.5142240000000 1.0
C      1  0.5000000000000  0.5804930000000  0.4857770000000 1.0
C      1  0.5000000000000  0.4195070000000  0.5142230000000 1.0
C      1  0.5000000000000  0.4195070000000  0.4857760000000 1.0
END
