TITL C-3201372-1405-796 -140101.671132175 125000 -1132.06185225393 0 0 184 (C1) n - 1
REM
REM in /home/nfs/bkarasulu/CARBON/AIRSS/Generating-Clusters/LCBOP/Higher-Symm/SD-CG/FIRE-CG
REM
REM
REM
REM
REM
REM ./C.cell (b20cbc046b6831c77cfcea5457e17084)
REM AIRSS Version 0.9.1 bugfix July 2018 build 013d7b7c2542+ Fri, 06 Jul 2018 19:26:36 +0100
REM compiler GCC version 9.2.1 20190827 (Red Hat 9.2.1-1)
REM options -cpp -mtune=generic -march=x86-64 -g -O0 -fpre-include=/usr/include/finclude/math-vector-fortran.h
REM seed -2098693206 -381186857 1764900524 1741882180 -1437189716 -827152949 372115776 1691961827 -766179330 -933574908 22822212 1696988054 856053385 32121097 -1095922116 -765671089 -298162760 -986580918 2052215514 -1631773260 674093680 -341727935 1018602148 -176561220 -572692495 -1092654117 -357228162 -1521512958 1561463883 -154770776 -1217387694 -1129741085 672756873
REM
CELL 1.54180   50.00000   50.00000   50.00000   90.00000   90.00000   90.00000
LATT -1
SFAC C  
C      1  0.4365600000000  0.4123670000000  0.4379930000000 1.0
C      1  0.5560850000000  0.5922730000000  0.5708860000000 1.0
C      1  0.5989910000000  0.4794030000000  0.5424460000000 1.0
C      1  0.3876910000000  0.5163650000000  0.4597530000000 1.0
C      1  0.5687370000000  0.4834910000000  0.4691010000000 1.0
C      1  0.4337200000000  0.5153750000000  0.5268510000000 1.0
C      1  0.4740690000000  0.4398700000000  0.5476670000000 1.0
C      1  0.5214610000000  0.5524110000000  0.4544790000000 1.0
C      1  0.5244510000000  0.4301830000000  0.5021860000000 1.0
C      1  0.4595430000000  0.5780660000000  0.4728450000000 1.0
C      1  0.5363510000000  0.5042710000000  0.4397420000000 1.0
C      1  0.4545500000000  0.4926890000000  0.5628430000000 1.0
C      1  0.4738520000000  0.5534150000000  0.4633360000000 1.0
C      1  0.5110530000000  0.4234280000000  0.5250940000000 1.0
C      1  0.6206250000000  0.4820110000000  0.4908690000000 1.0
C      1  0.3810810000000  0.5330490000000  0.5113490000000 1.0
C      1  0.5473140000000  0.6026440000000  0.5462000000000 1.0
C      1  0.4354760000000  0.3975490000000  0.4624800000000 1.0
C      1  0.5013660000000  0.5866830000000  0.4035010000000 1.0
C      1  0.5158850000000  0.4226650000000  0.6172450000000 1.0
C      1  0.5486100000000  0.4589740000000  0.4172540000000 1.0
C      1  0.4578320000000  0.5168070000000  0.5788010000000 1.0
C      1  0.4426670000000  0.4902090000000  0.4780650000000 1.0
C      1  0.5713060000000  0.5066890000000  0.5183150000000 1.0
C      1  0.5035710000000  0.5038000000000  0.5658000000000 1.0
C      1  0.5104720000000  0.4923040000000  0.4307650000000 1.0
C      1  0.5681810000000  0.5898750000000  0.4253700000000 1.0
C      1  0.4269170000000  0.3973030000000  0.5679740000000 1.0
C      1  0.5112580000000  0.5043260000000  0.6192740000000 1.0
C      1  0.4875200000000  0.4887220000000  0.3834740000000 1.0
C      1  0.5328630000000  0.4684360000000  0.5498960000000 1.0
C      1  0.4323700000000  0.5317820000000  0.4556320000000 1.0
C      1  0.4761420000000  0.3852740000000  0.4941350000000 1.0
C      1  0.5433150000000  0.6300560000000  0.5075610000000 1.0
C      1  0.3859980000000  0.5053880000000  0.5166480000000 1.0
C      1  0.6115520000000  0.5087340000000  0.4826640000000 1.0
C      1  0.5035030000000  0.5396460000000  0.4031260000000 1.0
C      1  0.5044650000000  0.4577970000000  0.5882300000000 1.0
C      1  0.4405210000000  0.5650430000000  0.5126220000000 1.0
C      1  0.5668320000000  0.4356400000000  0.4828340000000 1.0
C      1  0.4890540000000  0.6270780000000  0.5171250000000 1.0
C      1  0.5286000000000  0.3839690000000  0.4776050000000 1.0
C      1  0.5726250000000  0.5136670000000  0.5712360000000 1.0
C      1  0.4166860000000  0.4901480000000  0.4295710000000 1.0
C      1  0.5754340000000  0.5900620000000  0.4526880000000 1.0
C      1  0.4263410000000  0.3786440000000  0.5487630000000 1.0
C      1  0.4538470000000  0.5438640000000  0.4437150000000 1.0
C      1  0.5564690000000  0.4577600000000  0.5641150000000 1.0
C      1  0.5689970000000  0.5543050000000  0.4898260000000 1.0
C      1  0.4283020000000  0.4512170000000  0.5076280000000 1.0
C      1  0.4394690000000  0.4196380000000  0.5755410000000 1.0
C      1  0.5465510000000  0.5746560000000  0.4167010000000 1.0
C      1  0.4711370000000  0.4564690000000  0.5242790000000 1.0
C      1  0.5221330000000  0.5398770000000  0.4798100000000 1.0
C      1  0.5668450000000  0.6125500000000  0.4670750000000 1.0
C      1  0.4422700000000  0.3712010000000  0.5284280000000 1.0
C      1  0.5645350000000  0.5259550000000  0.4977640000000 1.0
C      1  0.4220110000000  0.4714960000000  0.4883360000000 1.0
C      1  0.5438220000000  0.5480610000000  0.5972550000000 1.0
C      1  0.4517930000000  0.4537780000000  0.4134020000000 1.0
C      1  0.5135470000000  0.4856160000000  0.5037670000000 1.0
C      1  0.4890630000000  0.5008670000000  0.5036170000000 1.0
C      1  0.5436070000000  0.6175240000000  0.4817210000000 1.0
C      1  0.4681220000000  0.3797470000000  0.5212060000000 1.0
C      1  0.6004140000000  0.4749240000000  0.4307530000000 1.0
C      1  0.4069770000000  0.5292170000000  0.5707100000000 1.0
C      1  0.4839320000000  0.5504390000000  0.5470740000000 1.0
C      1  0.5050820000000  0.4309180000000  0.4555980000000 1.0
C      1  0.4004360000000  0.5034320000000  0.5603440000000 1.0
C      1  0.6005430000000  0.5017520000000  0.4376370000000 1.0
C      1  0.5217620000000  0.5515560000000  0.3841860000000 1.0
C      1  0.4878650000000  0.4589960000000  0.6125200000000 1.0
C      1  0.5567550000000  0.5715930000000  0.5881410000000 1.0
C      1  0.4457660000000  0.4390470000000  0.4366930000000 1.0
C      1  0.4877140000000  0.5627630000000  0.4173040000000 1.0
C      1  0.5262380000000  0.4381530000000  0.5953940000000 1.0
C      1  0.4620710000000  0.4308140000000  0.4821510000000 1.0
C      1  0.5263840000000  0.5796720000000  0.5061250000000 1.0
C      1  0.4108460000000  0.4448650000000  0.5287620000000 1.0
C      1  0.5800170000000  0.5644770000000  0.4647770000000 1.0
C      1  0.4933190000000  0.4349810000000  0.6274490000000 1.0
C      1  0.5282640000000  0.5778720000000  0.3951580000000 1.0
C      1  0.4837570000000  0.3898680000000  0.5431180000000 1.0
C      1  0.5232550000000  0.5970500000000  0.4811360000000 1.0
C      1  0.4280070000000  0.4962120000000  0.6063600000000 1.0
C      1  0.5654650000000  0.4996620000000  0.3951290000000 1.0
C      1  0.5905250000000  0.5007100000000  0.4645010000000 1.0
C      1  0.4082140000000  0.5064850000000  0.5334080000000 1.0
C      1  0.4541730000000  0.4422550000000  0.5677400000000 1.0
C      1  0.5402790000000  0.5522640000000  0.4339580000000 1.0
C      1  0.3837170000000  0.4417680000000  0.4763510000000 1.0
C      1  0.6056450000000  0.5832910000000  0.5097430000000 1.0
C      1  0.5399610000000  0.4999160000000  0.6107440000000 1.0
C      1  0.4601440000000  0.4993040000000  0.3948680000000 1.0
C      1  0.4413170000000  0.4814340000000  0.4113490000000 1.0
C      1  0.5540570000000  0.5207260000000  0.5940070000000 1.0
C      1  0.4966450000000  0.5667050000000  0.4481860000000 1.0
C      1  0.4904150000000  0.4173680000000  0.5424600000000 1.0
C      1  0.4819650000000  0.4845660000000  0.6223080000000 1.0
C      1  0.5136400000000  0.4995060000000  0.3727780000000 1.0
C      1  0.5999370000000  0.5464450000000  0.4529290000000 1.0
C      1  0.3922310000000  0.4617640000000  0.5407520000000 1.0
C      1  0.3798670000000  0.5336280000000  0.4820220000000 1.0
C      1  0.6158280000000  0.4756900000000  0.5187110000000 1.0
C      1  0.4304540000000  0.5220240000000  0.5894480000000 1.0
C      1  0.5718000000000  0.4746900000000  0.4093810000000 1.0
C      1  0.5154070000000  0.5507540000000  0.6025100000000 1.0
C      1  0.4770050000000  0.4446370000000  0.4022880000000 1.0
C      1  0.5401260000000  0.5382530000000  0.5470330000000 1.0
C      1  0.4657520000000  0.4766510000000  0.4633960000000 1.0
C      1  0.4378740000000  0.5352230000000  0.5067810000000 1.0
C      1  0.5698000000000  0.4637830000000  0.4892390000000 1.0
C      1  0.5413110000000  0.4941240000000  0.4666180000000 1.0
C      1  0.4540060000000  0.4987650000000  0.5358740000000 1.0
C      1  0.5156790000000  0.4444430000000  0.4782710000000 1.0
C      1  0.4928600000000  0.5467740000000  0.5219360000000 1.0
C      1  0.5839710000000  0.5052120000000  0.5449510000000 1.0
C      1  0.3902670000000  0.4877650000000  0.4570460000000 1.0
C      1  0.5528000000000  0.4744100000000  0.6099910000000 1.0
C      1  0.4556500000000  0.5278580000000  0.3980030000000 1.0
C      1  0.4820530000000  0.5248730000000  0.4840410000000 1.0
C      1  0.5336860000000  0.4767590000000  0.5226300000000 1.0
C      1  0.5832990000000  0.4586990000000  0.5545770000000 1.0
C      1  0.4098890000000  0.5235570000000  0.4422640000000 1.0
C      1  0.4877440000000  0.4199390000000  0.4111560000000 1.0
C      1  0.5008840000000  0.5711140000000  0.5895650000000 1.0
C      1  0.4718920000000  0.4849790000000  0.5202780000000 1.0
C      1  0.5405690000000  0.5190630000000  0.4835310000000 1.0
C      1  0.4547560000000  0.4429200000000  0.5060460000000 1.0
C      1  0.5547050000000  0.5683200000000  0.5099830000000 1.0
C      1  0.4965520000000  0.4639140000000  0.3963140000000 1.0
C      1  0.5003350000000  0.5271700000000  0.6063760000000 1.0
C      1  0.5518280000000  0.4234520000000  0.5032200000000 1.0
C      1  0.4380430000000  0.5798270000000  0.4883830000000 1.0
C      1  0.4586660000000  0.4024590000000  0.4790420000000 1.0
C      1  0.5227220000000  0.5928370000000  0.5341400000000 1.0
C      1  0.5561780000000  0.4379630000000  0.4344950000000 1.0
C      1  0.4342110000000  0.5921900000000  0.5530110000000 1.0
C      1  0.4909620000000  0.5723490000000  0.5635600000000 1.0
C      1  0.5052130000000  0.4144380000000  0.4323560000000 1.0
C      1  0.5152690000000  0.6367890000000  0.5150980000000 1.0
C      1  0.5030860000000  0.3798540000000  0.4861150000000 1.0
C      1  0.5410920000000  0.5004680000000  0.3780790000000 1.0
C      1  0.4533650000000  0.4917620000000  0.6223750000000 1.0
C      1  0.5628700000000  0.6165580000000  0.5260320000000 1.0
C      1  0.4095650000000  0.3971390000000  0.4738190000000 1.0
C      1  0.4972810000000  0.5934500000000  0.5462510000000 1.0
C      1  0.5271340000000  0.3965570000000  0.4325010000000 1.0
C      1  0.5078430000000  0.3581150000000  0.5790860000000 1.0
C      1  0.4915120000000  0.6172590000000  0.4497530000000 1.0
C      1  0.4997160000000  0.5149850000000  0.4154820000000 1.0
C      1  0.5105390000000  0.4760140000000  0.5670710000000 1.0
C      1  0.5112750000000  0.5542100000000  0.5021480000000 1.0
C      1  0.5176900000000  0.4749890000000  0.4758060000000 1.0
C      1  0.6151680000000  0.5378240000000  0.4784820000000 1.0
C      1  0.3803720000000  0.4794530000000  0.5100420000000 1.0
C      1  0.3983360000000  0.4757590000000  0.5668220000000 1.0
C      1  0.5954220000000  0.5283530000000  0.4288610000000 1.0
C      1  0.3903160000000  0.4157820000000  0.4764630000000 1.0
C      1  0.5883470000000  0.6035120000000  0.5179710000000 1.0
C      1  0.4606130000000  0.5490190000000  0.4168300000000 1.0
C      1  0.5506140000000  0.4524790000000  0.5918300000000 1.0
C      1  0.5217090000000  0.5198510000000  0.5516320000000 1.0
C      1  0.4940340000000  0.4832110000000  0.4557380000000 1.0
C      1  0.5718800000000  0.5234680000000  0.4117510000000 1.0
C      1  0.4196570000000  0.4732070000000  0.5875820000000 1.0
C      1  0.5596260000000  0.4220940000000  0.4577120000000 1.0
C      1  0.4508370000000  0.5864940000000  0.5314110000000 1.0
C      1  0.3922730000000  0.5472150000000  0.5429070000000 1.0
C      1  0.6162540000000  0.4633540000000  0.4607000000000 1.0
C      1  0.5486590000000  0.5266580000000  0.4277200000000 1.0
C      1  0.4448790000000  0.4681100000000  0.5737460000000 1.0
C      1  0.4377050000000  0.5194840000000  0.4808910000000 1.0
C      1  0.5603060000000  0.4794630000000  0.5123980000000 1.0
C      1  0.5565860000000  0.5557100000000  0.5354260000000 1.0
C      1  0.4594040000000  0.4484150000000  0.4598150000000 1.0
C      1  0.5430660000000  0.3973120000000  0.4566770000000 1.0
C      1  0.4758120000000  0.6036830000000  0.5296190000000 1.0
C      1  0.6162450000000  0.5601640000000  0.4982340000000 1.0
C      1  0.3919850000000  0.4700700000000  0.4816380000000 1.0
C      1  0.5200480000000  0.4679640000000  0.4137500000000 1.0
C      1  0.4856690000000  0.5185300000000  0.5835870000000 1.0
C      1  0.5035440000000  0.5947930000000  0.4598450000000 1.0
C      1  0.4940050000000  0.3729810000000  0.5627540000000 1.0
END
