TITL C-3201375-1262-118 0.0160346144212796 125000 -595.376451897917 0 0 98 (C1) n - 1
REM
REM in /home/nfs/bkarasulu/CARBON/AIRSS/Generating-Clusters/LCBOP/Higher-Symm/SD-CG/FIRE-CG
REM
REM
REM
REM
REM
REM ./C.cell (b20cbc046b6831c77cfcea5457e17084)
REM AIRSS Version 0.9.1 bugfix July 2018 build 013d7b7c2542+ Fri, 06 Jul 2018 19:26:36 +0100
REM compiler GCC version 9.2.1 20190827 (Red Hat 9.2.1-1)
REM options -cpp -mtune=generic -march=x86-64 -g -O0 -fpre-include=/usr/include/finclude/math-vector-fortran.h
REM seed 709727635 1930862491 -1966815852 -638188924 -288323383 -226538359 2100225620 152563794 195080364 1632549030 1080850667 -1291411245 2037166146 -781440653 -1630363514 951825237 1221571582 -268365491 -986321878 389541106 -1425067415 -366928686 -2000357528 203412460 -1341563833 -1289631616 196843014 331084091 -1905989662 -1793160838 1693434354 -1308508110 1949102303
REM
CELL 1.54180   50.00000   50.00000   50.00000   90.00000   90.00000   90.00000
LATT -1
SFAC C  
C      1  0.5381100000000  0.4992780000000  0.5342400000000 1.0
C      1  0.4468840000000  0.4995660000000  0.5399970000000 1.0
C      1  0.6005330000000  0.4759690000000  0.4736040000000 1.0
C      1  0.4083610000000  0.4731250000000  0.4755270000000 1.0
C      1  0.4320520000000  0.5514010000000  0.5244910000000 1.0
C      1  0.5735960000000  0.5456620000000  0.5172200000000 1.0
C      1  0.4698420000000  0.6364540000000  0.4917890000000 1.0
C      1  0.4964520000000  0.6412310000000  0.4924210000000 1.0
C      1  0.4725420000000  0.5249120000000  0.4085000000000 1.0
C      1  0.5227500000000  0.5312330000000  0.4105800000000 1.0
C      1  0.5435500000000  0.4886950000000  0.6168950000000 1.0
C      1  0.4977970000000  0.4954000000000  0.6456820000000 1.0
C      1  0.5808040000000  0.5221150000000  0.5007970000000 1.0
C      1  0.4387390000000  0.5490150000000  0.4972240000000 1.0
C      1  0.4581200000000  0.5355180000000  0.4822330000000 1.0
C      1  0.5308830000000  0.5417190000000  0.4930730000000 1.0
C      1  0.6001500000000  0.4791700000000  0.5024160000000 1.0
C      1  0.3935560000000  0.4705520000000  0.4999900000000 1.0
C      1  0.5631870000000  0.5174850000000  0.4553980000000 1.0
C      1  0.4349820000000  0.5043340000000  0.4522270000000 1.0
C      1  0.6021210000000  0.5057660000000  0.5125720000000 1.0
C      1  0.3841660000000  0.4948940000000  0.5117780000000 1.0
C      1  0.4471250000000  0.4256010000000  0.4868970000000 1.0
C      1  0.5564430000000  0.4325780000000  0.4687930000000 1.0
C      1  0.5274130000000  0.5141750000000  0.5085010000000 1.0
C      1  0.4835750000000  0.5313720000000  0.4958340000000 1.0
C      1  0.5201970000000  0.5322130000000  0.4394200000000 1.0
C      1  0.4733890000000  0.5277860000000  0.4368380000000 1.0
C      1  0.4796550000000  0.4656780000000  0.4106440000000 1.0
C      1  0.5316970000000  0.4725100000000  0.4104520000000 1.0
C      1  0.5523760000000  0.4923590000000  0.4146900000000 1.0
C      1  0.4542560000000  0.4792490000000  0.4140810000000 1.0
C      1  0.5402960000000  0.4962250000000  0.4879470000000 1.0
C      1  0.4503590000000  0.4876650000000  0.4934460000000 1.0
C      1  0.5194400000000  0.5028490000000  0.5564050000000 1.0
C      1  0.4682570000000  0.5045090000000  0.5572800000000 1.0
C      1  0.4362890000000  0.4784940000000  0.4365290000000 1.0
C      1  0.5689560000000  0.4947790000000  0.4379620000000 1.0
C      1  0.5699090000000  0.4471180000000  0.4505980000000 1.0
C      1  0.4357300000000  0.4344220000000  0.4638850000000 1.0
C      1  0.5162910000000  0.4802410000000  0.5746380000000 1.0
C      1  0.4704990000000  0.4846920000000  0.5773330000000 1.0
C      1  0.4521820000000  0.5268050000000  0.4549630000000 1.0
C      1  0.5408530000000  0.5357350000000  0.4579260000000 1.0
C      1  0.4527600000000  0.5624810000000  0.5406080000000 1.0
C      1  0.5474320000000  0.5566340000000  0.5136870000000 1.0
C      1  0.4223690000000  0.4576380000000  0.4539860000000 1.0
C      1  0.5825970000000  0.4724930000000  0.4511700000000 1.0
C      1  0.4718260000000  0.5893210000000  0.4808440000000 1.0
C      1  0.5193880000000  0.5977160000000  0.4765750000000 1.0
C      1  0.4710860000000  0.4771280000000  0.6059270000000 1.0
C      1  0.5192900000000  0.4843030000000  0.6028640000000 1.0
C      1  0.5163180000000  0.6240030000000  0.4865990000000 1.0
C      1  0.4589440000000  0.6124190000000  0.4858970000000 1.0
C      1  0.4785630000000  0.5695760000000  0.5445750000000 1.0
C      1  0.5306220000000  0.5697470000000  0.5328310000000 1.0
C      1  0.5223010000000  0.4832500000000  0.4707500000000 1.0
C      1  0.4744700000000  0.4844460000000  0.4785290000000 1.0
C      1  0.5937990000000  0.5443700000000  0.5380150000000 1.0
C      1  0.4083990000000  0.5374250000000  0.5314690000000 1.0
C      1  0.5341400000000  0.4711010000000  0.5243810000000 1.0
C      1  0.4443840000000  0.4803960000000  0.5200000000000 1.0
C      1  0.5652510000000  0.5087520000000  0.4821490000000 1.0
C      1  0.4273570000000  0.4946750000000  0.4779730000000 1.0
C      1  0.4336010000000  0.4540350000000  0.5230120000000 1.0
C      1  0.5549460000000  0.4542390000000  0.5148880000000 1.0
C      1  0.3914390000000  0.5177200000000  0.5242130000000 1.0
C      1  0.6098870000000  0.5217400000000  0.5353350000000 1.0
C      1  0.5497280000000  0.4350950000000  0.4947130000000 1.0
C      1  0.4510760000000  0.4331920000000  0.5141520000000 1.0
C      1  0.4056160000000  0.4523480000000  0.5184070000000 1.0
C      1  0.5822840000000  0.4621280000000  0.5167180000000 1.0
C      1  0.5464570000000  0.5176300000000  0.4023300000000 1.0
C      1  0.4538640000000  0.5047620000000  0.4003720000000 1.0
C      1  0.5219890000000  0.4999280000000  0.6573390000000 1.0
C      1  0.5448810000000  0.4964230000000  0.6429750000000 1.0
C      1  0.5053380000000  0.5724470000000  0.5422180000000 1.0
C      1  0.4798350000000  0.4381190000000  0.5797110000000 1.0
C      1  0.4686820000000  0.4480480000000  0.6044450000000 1.0
C      1  0.4762420000000  0.4289740000000  0.5304020000000 1.0
C      1  0.4946630000000  0.4101920000000  0.5168190000000 1.0
C      1  0.4980930000000  0.5788720000000  0.4815320000000 1.0
C      1  0.4970010000000  0.4933950000000  0.4635200000000 1.0
C      1  0.5051930000000  0.4715370000000  0.5193230000000 1.0
C      1  0.5409000000000  0.5917100000000  0.4608080000000 1.0
C      1  0.4932590000000  0.5127330000000  0.5450950000000 1.0
C      1  0.5030880000000  0.5521410000000  0.4896340000000 1.0
C      1  0.4973310000000  0.5178540000000  0.4481940000000 1.0
C      1  0.4916360000000  0.4636200000000  0.5663770000000 1.0
C      1  0.4945580000000  0.4865800000000  0.6189750000000 1.0
C      1  0.4713370000000  0.4201140000000  0.5592670000000 1.0
C      1  0.4986860000000  0.5231590000000  0.3959870000000 1.0
C      1  0.5049950000000  0.4745690000000  0.3998620000000 1.0
C      1  0.5021800000000  0.4978020000000  0.3829510000000 1.0
C      1  0.5074880000000  0.3900090000000  0.5054300000000 1.0
C      1  0.4974330000000  0.5083910000000  0.5144640000000 1.0
C      1  0.4901920000000  0.4565760000000  0.5360750000000 1.0
C      1  0.5199110000000  0.3701510000000  0.4939880000000 1.0
END
