TITL C-3201375-1262-230 110.576157410415 125000 -694.687912206498 0 0 114 (C1) n - 1
REM
REM in /home/nfs/bkarasulu/CARBON/AIRSS/Generating-Clusters/LCBOP/Higher-Symm/SD-CG/FIRE-CG
REM
REM
REM
REM
REM
REM ./C.cell (b20cbc046b6831c77cfcea5457e17084)
REM AIRSS Version 0.9.1 bugfix July 2018 build 013d7b7c2542+ Fri, 06 Jul 2018 19:26:36 +0100
REM compiler GCC version 9.2.1 20190827 (Red Hat 9.2.1-1)
REM options -cpp -mtune=generic -march=x86-64 -g -O0 -fpre-include=/usr/include/finclude/math-vector-fortran.h
REM seed 1738694641 1788664896 -2131239744 1151500462 -1035027226 268068390 232772800 26469150 -348559131 366248710 -1393021783 864222644 246333709 -717644234 1651969652 2096573128 -671708875 -1414053753 -273939760 -885673368 1380254030 -879430945 1263681900 -1979005533 -1235277895 -355152276 -1881484431 -777231823 1437032989 2062573560 1422945444 1277637115 898809537
REM
CELL 1.54180   50.00000   50.00000   50.00000   90.00000   90.00000   90.00000
LATT -1
SFAC C  
C      1  0.5216460000000  0.4309950000000  0.4870560000000 1.0
C      1  0.4783520000000  0.5690050000000  0.4870570000000 1.0
C      1  0.5265860000000  0.5663920000000  0.5119240000000 1.0
C      1  0.4734160000000  0.4336080000000  0.5119300000000 1.0
C      1  0.4789510000000  0.4557120000000  0.4092330000000 1.0
C      1  0.5210360000000  0.5442850000000  0.4092280000000 1.0
C      1  0.4776560000000  0.5402700000000  0.5899570000000 1.0
C      1  0.5223580000000  0.4597330000000  0.5899550000000 1.0
C      1  0.4480710000000  0.4393560000000  0.5221620000000 1.0
C      1  0.5519330000000  0.5606440000000  0.5221520000000 1.0
C      1  0.4530310000000  0.5647880000000  0.4766960000000 1.0
C      1  0.5469660000000  0.4352120000000  0.4766910000000 1.0
C      1  0.5827460000000  0.4448810000000  0.5124040000000 1.0
C      1  0.4172560000000  0.5551190000000  0.5124150000000 1.0
C      1  0.5841140000000  0.5577140000000  0.4837230000000 1.0
C      1  0.4158830000000  0.4422860000000  0.4837380000000 1.0
C      1  0.5701070000000  0.4297810000000  0.4917150000000 1.0
C      1  0.4298920000000  0.5702190000000  0.4917240000000 1.0
C      1  0.5742540000000  0.5696010000000  0.5077610000000 1.0
C      1  0.4257480000000  0.4303990000000  0.5077750000000 1.0
C      1  0.5164390000000  0.4428840000000  0.5129180000000 1.0
C      1  0.4835630000000  0.5571170000000  0.5129180000000 1.0
C      1  0.5209080000000  0.5559240000000  0.4843650000000 1.0
C      1  0.4790900000000  0.4440760000000  0.4843700000000 1.0
C      1  0.5207760000000  0.5304750000000  0.4696560000000 1.0
C      1  0.4792190000000  0.4695240000000  0.4696600000000 1.0
C      1  0.5161510000000  0.4685240000000  0.5256940000000 1.0
C      1  0.4838530000000  0.5314770000000  0.5256950000000 1.0
C      1  0.5407150000000  0.5036460000000  0.5944620000000 1.0
C      1  0.4593000000000  0.4963570000000  0.5944680000000 1.0
C      1  0.5408690000000  0.5004920000000  0.4056130000000 1.0
C      1  0.4591160000000  0.4995050000000  0.4056190000000 1.0
C      1  0.5757570000000  0.4340320000000  0.5387900000000 1.0
C      1  0.4242500000000  0.5659700000000  0.5387990000000 1.0
C      1  0.5747690000000  0.5723700000000  0.4596050000000 1.0
C      1  0.4252250000000  0.4276280000000  0.4596190000000 1.0
C      1  0.5956460000000  0.5306040000000  0.4890040000000 1.0
C      1  0.4043520000000  0.4693960000000  0.4890190000000 1.0
C      1  0.5958840000000  0.4704710000000  0.5036100000000 1.0
C      1  0.4041170000000  0.5295290000000  0.5036230000000 1.0
C      1  0.4206660000000  0.4752620000000  0.5386630000000 1.0
C      1  0.5793410000000  0.5247390000000  0.5386500000000 1.0
C      1  0.4235340000000  0.5339510000000  0.4577220000000 1.0
C      1  0.5764600000000  0.4660470000000  0.4577110000000 1.0
C      1  0.5092110000000  0.4250420000000  0.5555320000000 1.0
C      1  0.4907970000000  0.5749600000000  0.5555310000000 1.0
C      1  0.5103470000000  0.5795980000000  0.4438600000000 1.0
C      1  0.4896440000000  0.4204000000000  0.4438640000000 1.0
C      1  0.5973120000000  0.5201530000000  0.5157100000000 1.0
C      1  0.4026910000000  0.4798480000000  0.5157260000000 1.0
C      1  0.5925630000000  0.4811480000000  0.4757940000000 1.0
C      1  0.4074330000000  0.5188510000000  0.4758070000000 1.0
C      1  0.4524680000000  0.5007520000000  0.4893920000000 1.0
C      1  0.5475310000000  0.4992480000000  0.4893850000000 1.0
C      1  0.4451770000000  0.5082600000000  0.5131040000000 1.0
C      1  0.5548260000000  0.4917410000000  0.5130950000000 1.0
C      1  0.5354040000000  0.4802300000000  0.4220860000000 1.0
C      1  0.4645840000000  0.5197680000000  0.4220910000000 1.0
C      1  0.5343890000000  0.5215990000000  0.5757920000000 1.0
C      1  0.4656220000000  0.4784040000000  0.5757980000000 1.0
C      1  0.4407960000000  0.5520410000000  0.5581720000000 1.0
C      1  0.5592130000000  0.4479610000000  0.5581640000000 1.0
C      1  0.4417590000000  0.4393910000000  0.4385820000000 1.0
C      1  0.5582320000000  0.5606070000000  0.4385710000000 1.0
C      1  0.4462240000000  0.4634230000000  0.5367770000000 1.0
C      1  0.5537820000000  0.5365780000000  0.5367680000000 1.0
C      1  0.4505490000000  0.5428440000000  0.4593850000000 1.0
C      1  0.5494450000000  0.4571550000000  0.4593790000000 1.0
C      1  0.4955790000000  0.4854740000000  0.5365640000000 1.0
C      1  0.5044270000000  0.5145270000000  0.5365630000000 1.0
C      1  0.4976800000000  0.5153540000000  0.4591690000000 1.0
C      1  0.5023140000000  0.4846450000000  0.4591690000000 1.0
C      1  0.5858600000000  0.4093750000000  0.5457480000000 1.0
C      1  0.4141470000000  0.5906270000000  0.5457580000000 1.0
C      1  0.5825940000000  0.5986510000000  0.4566550000000 1.0
C      1  0.4174000000000  0.4013480000000  0.4566710000000 1.0
C      1  0.4310220000000  0.4831230000000  0.4526330000000 1.0
C      1  0.5689710000000  0.5168750000000  0.4526220000000 1.0
C      1  0.4138820000000  0.5072890000000  0.5528930000000 1.0
C      1  0.5861260000000  0.4927130000000  0.5528800000000 1.0
C      1  0.5275150000000  0.4723820000000  0.4480090000000 1.0
C      1  0.4724770000000  0.5276160000000  0.4480130000000 1.0
C      1  0.5298630000000  0.5248640000000  0.5482810000000 1.0
C      1  0.4701440000000  0.4751380000000  0.5482870000000 1.0
C      1  0.4698500000000  0.4367530000000  0.4297800000000 1.0
C      1  0.5301390000000  0.5632450000000  0.4297730000000 1.0
C      1  0.4692240000000  0.5571030000000  0.5674790000000 1.0
C      1  0.5307860000000  0.4428990000000  0.5674760000000 1.0
C      1  0.4981050000000  0.4272860000000  0.4704300000000 1.0
C      1  0.5018900000000  0.5727130000000  0.4704280000000 1.0
C      1  0.5027470000000  0.5714230000000  0.5287420000000 1.0
C      1  0.4972580000000  0.4285780000000  0.5287450000000 1.0
C      1  0.3973770000000  0.5090870000000  0.5225730000000 1.0
C      1  0.6026260000000  0.4909140000000  0.5225580000000 1.0
C      1  0.4085490000000  0.4901020000000  0.4693290000000 1.0
C      1  0.5914470000000  0.5098970000000  0.4693140000000 1.0
C      1  0.5003880000000  0.4038750000000  0.5708860000000 1.0
C      1  0.4996230000000  0.5961280000000  0.5708830000000 1.0
C      1  0.4999850000000  0.6017730000000  0.4314820000000 1.0
C      1  0.5000050000000  0.3982250000000  0.4314850000000 1.0
C      1  0.4586760000000  0.5217360000000  0.5309030000000 1.0
C      1  0.5413290000000  0.4782650000000  0.5308970000000 1.0
C      1  0.4550090000000  0.4838150000000  0.4681100000000 1.0
C      1  0.5449860000000  0.5161840000000  0.4681030000000 1.0
C      1  0.4276380000000  0.5275070000000  0.5656800000000 1.0
C      1  0.5723720000000  0.4724960000000  0.5656690000000 1.0
C      1  0.4304340000000  0.4646320000000  0.4318690000000 1.0
C      1  0.5695560000000  0.5353660000000  0.4318570000000 1.0
C      1  0.5202730000000  0.5180920000000  0.3972970000000 1.0
C      1  0.4797110000000  0.4819040000000  0.3973010000000 1.0
C      1  0.5215550000000  0.4850450000000  0.6033800000000 1.0
C      1  0.4784610000000  0.5149580000000  0.6033830000000 1.0
C      1  0.4999910000000  0.4999980000000  0.3870510000000 1.0
C      1  0.5000090000000  0.5000020000000  0.6148230000000 1.0
END
