TITL C-3201376-6384-563 0.0574603027404503 125000 -728.181049316428 0 0 120 (C1) n - 1
REM
REM in /home/nfs/bkarasulu/CARBON/AIRSS/Generating-Clusters/LCBOP/Higher-Symm/SD-CG/FIRE-CG
REM
REM
REM
REM
REM
REM ./C.cell (b20cbc046b6831c77cfcea5457e17084)
REM AIRSS Version 0.9.1 bugfix July 2018 build 013d7b7c2542+ Fri, 06 Jul 2018 19:26:36 +0100
REM compiler GCC version 9.2.1 20190827 (Red Hat 9.2.1-1)
REM options -cpp -mtune=generic -march=x86-64 -g -O0 -fpre-include=/usr/include/finclude/math-vector-fortran.h
REM seed -183690005 2139298779 -6582552 1635981646 -462322574 -1027940004 1249534542 -1228493251 -1699386750 81069173 -867232183 -442945528 -218557145 -532863612 1048314035 -1434010456 78047107 1286362941 -1279796138 -1698843077 -1164917685 506344401 -934688210 526487342 854428086 581624638 -1389228874 573423499 -10663398 -803367289 -850990794 1708922590 -767877270
REM
CELL 1.54180   50.00000   50.00000   50.00000   90.00000   90.00000   90.00000
LATT -1
SFAC C  
C      1  0.4078440000000  0.4679690000000  0.5387440000000 1.0
C      1  0.5936880000000  0.4705110000000  0.5463310000000 1.0
C      1  0.4205200000000  0.4635160000000  0.4788850000000 1.0
C      1  0.5924320000000  0.4661410000000  0.4793750000000 1.0
C      1  0.5263830000000  0.5728830000000  0.4241590000000 1.0
C      1  0.4769570000000  0.5776890000000  0.4242530000000 1.0
C      1  0.5114600000000  0.3876660000000  0.5624110000000 1.0
C      1  0.5051030000000  0.3399130000000  0.5364650000000 1.0
C      1  0.5259510000000  0.5853210000000  0.5812300000000 1.0
C      1  0.4692670000000  0.5894260000000  0.5819580000000 1.0
C      1  0.5547310000000  0.5078350000000  0.5145350000000 1.0
C      1  0.4413820000000  0.5153240000000  0.5125140000000 1.0
C      1  0.4310920000000  0.4476920000000  0.5007670000000 1.0
C      1  0.5869030000000  0.4456360000000  0.4986230000000 1.0
C      1  0.5583010000000  0.5268500000000  0.4540230000000 1.0
C      1  0.4405500000000  0.5303910000000  0.4543890000000 1.0
C      1  0.5387310000000  0.5191410000000  0.4337680000000 1.0
C      1  0.4584210000000  0.5243670000000  0.4319750000000 1.0
C      1  0.4129830000000  0.5635760000000  0.5364980000000 1.0
C      1  0.5804440000000  0.5620850000000  0.5377510000000 1.0
C      1  0.5119180000000  0.4981240000000  0.5931200000000 1.0
C      1  0.4831290000000  0.4977420000000  0.5918580000000 1.0
C      1  0.4134830000000  0.4924890000000  0.4814170000000 1.0
C      1  0.5943520000000  0.4949840000000  0.4779550000000 1.0
C      1  0.4691620000000  0.5944990000000  0.4884530000000 1.0
C      1  0.5356970000000  0.5920820000000  0.4880280000000 1.0
C      1  0.4677690000000  0.5717040000000  0.4716120000000 1.0
C      1  0.5347620000000  0.5688620000000  0.4718030000000 1.0
C      1  0.5138320000000  0.4276510000000  0.5071330000000 1.0
C      1  0.4951040000000  0.4128760000000  0.5226510000000 1.0
C      1  0.5149560000000  0.5875090000000  0.5554400000000 1.0
C      1  0.4796580000000  0.5920810000000  0.5558470000000 1.0
C      1  0.4385160000000  0.5222030000000  0.3617390000000 1.0
C      1  0.5439560000000  0.5035690000000  0.3628130000000 1.0
C      1  0.4035700000000  0.4966310000000  0.5378680000000 1.0
C      1  0.5951860000000  0.4988610000000  0.5426660000000 1.0
C      1  0.4439570000000  0.4952060000000  0.5610260000000 1.0
C      1  0.5530350000000  0.4995300000000  0.5642670000000 1.0
C      1  0.5408370000000  0.4330650000000  0.5135540000000 1.0
C      1  0.4691560000000  0.4246550000000  0.5237600000000 1.0
C      1  0.5287990000000  0.5714800000000  0.5347080000000 1.0
C      1  0.4644000000000  0.5772810000000  0.5352950000000 1.0
C      1  0.4833170000000  0.4619020000000  0.5539930000000 1.0
C      1  0.5149310000000  0.4648100000000  0.5518860000000 1.0
C      1  0.5267390000000  0.4949220000000  0.4412250000000 1.0
C      1  0.4735420000000  0.5013240000000  0.4368390000000 1.0
C      1  0.5511810000000  0.3949640000000  0.4396420000000 1.0
C      1  0.4579260000000  0.4027490000000  0.4540640000000 1.0
C      1  0.4689440000000  0.5181220000000  0.6055670000000 1.0
C      1  0.5248960000000  0.5171570000000  0.6094630000000 1.0
C      1  0.5615840000000  0.4318460000000  0.4935820000000 1.0
C      1  0.4563040000000  0.4305490000000  0.4966010000000 1.0
C      1  0.5085150000000  0.5537840000000  0.5254520000000 1.0
C      1  0.4817420000000  0.5549600000000  0.5328080000000 1.0
C      1  0.4210350000000  0.5087720000000  0.4581290000000 1.0
C      1  0.5785740000000  0.5063700000000  0.4562440000000 1.0
C      1  0.5673380000000  0.5058280000000  0.5407850000000 1.0
C      1  0.4307740000000  0.5059940000000  0.5380120000000 1.0
C      1  0.3862820000000  0.5189210000000  0.5392610000000 1.0
C      1  0.6112500000000  0.5218420000000  0.5437260000000 1.0
C      1  0.5315230000000  0.5430590000000  0.6107510000000 1.0
C      1  0.4631740000000  0.5442490000000  0.6072970000000 1.0
C      1  0.5049400000000  0.5132570000000  0.5026760000000 1.0
C      1  0.4832690000000  0.4999760000000  0.5156410000000 1.0
C      1  0.4422130000000  0.5435360000000  0.5035640000000 1.0
C      1  0.5546340000000  0.5366260000000  0.5041150000000 1.0
C      1  0.5317550000000  0.5677480000000  0.6005540000000 1.0
C      1  0.4635540000000  0.5698640000000  0.5994860000000 1.0
C      1  0.5695430000000  0.4574320000000  0.5448720000000 1.0
C      1  0.4318960000000  0.4540270000000  0.5300240000000 1.0
C      1  0.4387540000000  0.5654670000000  0.5241330000000 1.0
C      1  0.5548920000000  0.5591840000000  0.5253550000000 1.0
C      1  0.4674570000000  0.4781070000000  0.4794490000000 1.0
C      1  0.5206050000000  0.4723400000000  0.4861070000000 1.0
C      1  0.5140310000000  0.5524590000000  0.4081460000000 1.0
C      1  0.4851000000000  0.5557670000000  0.4075150000000 1.0
C      1  0.5601310000000  0.3713260000000  0.4332970000000 1.0
C      1  0.4529810000000  0.4065370000000  0.4802420000000 1.0
C      1  0.4493170000000  0.5492830000000  0.4757200000000 1.0
C      1  0.5503020000000  0.5444650000000  0.4761340000000 1.0
C      1  0.5128660000000  0.5125490000000  0.5478650000000 1.0
C      1  0.4835640000000  0.5071590000000  0.5448420000000 1.0
C      1  0.5165500000000  0.6092900000000  0.4961040000000 1.0
C      1  0.4896670000000  0.6101380000000  0.4963600000000 1.0
C      1  0.4259730000000  0.4612250000000  0.4492270000000 1.0
C      1  0.5752880000000  0.4576440000000  0.4557440000000 1.0
C      1  0.5248770000000  0.4921860000000  0.5665890000000 1.0
C      1  0.4724000000000  0.4886340000000  0.5650940000000 1.0
C      1  0.4210060000000  0.4875680000000  0.4376660000000 1.0
C      1  0.5734940000000  0.4817890000000  0.4401440000000 1.0
C      1  0.5158850000000  0.5716640000000  0.4507780000000 1.0
C      1  0.4870140000000  0.5734910000000  0.4507510000000 1.0
C      1  0.4634660000000  0.4241150000000  0.4363950000000 1.0
C      1  0.5416820000000  0.4202930000000  0.4469920000000 1.0
C      1  0.5373760000000  0.5163370000000  0.3845560000000 1.0
C      1  0.4512200000000  0.5293380000000  0.3833440000000 1.0
C      1  0.4600560000000  0.4964010000000  0.5004360000000 1.0
C      1  0.5396580000000  0.4816900000000  0.5078480000000 1.0
C      1  0.5417510000000  0.4584870000000  0.5312180000000 1.0
C      1  0.4604960000000  0.4466520000000  0.5411970000000 1.0
C      1  0.5145980000000  0.3402420000000  0.5620960000000 1.0
C      1  0.5177130000000  0.3641860000000  0.5749110000000 1.0
C      1  0.4428940000000  0.4434080000000  0.4356200000000 1.0
C      1  0.5578330000000  0.4359910000000  0.4641960000000 1.0
C      1  0.3930660000000  0.5453660000000  0.5397840000000 1.0
C      1  0.6027460000000  0.5476150000000  0.5426750000000 1.0
C      1  0.4836930000000  0.4881640000000  0.4586740000000 1.0
C      1  0.5117840000000  0.4852880000000  0.4621820000000 1.0
C      1  0.4645120000000  0.5362790000000  0.4067300000000 1.0
C      1  0.5300760000000  0.5290700000000  0.4082160000000 1.0
C      1  0.5014490000000  0.3889730000000  0.5356390000000 1.0
C      1  0.4987350000000  0.3631640000000  0.5235990000000 1.0
C      1  0.5035390000000  0.4490070000000  0.4915780000000 1.0
C      1  0.4756710000000  0.4515670000000  0.4863240000000 1.0
C      1  0.5172720000000  0.5274790000000  0.5237650000000 1.0
C      1  0.4723740000000  0.5337450000000  0.5482420000000 1.0
C      1  0.5447210000000  0.5908050000000  0.4151630000000 1.0
C      1  0.4624580000000  0.5991370000000  0.4160100000000 1.0
C      1  0.4906140000000  0.4288690000000  0.4305620000000 1.0
C      1  0.5166410000000  0.4284590000000  0.4368580000000 1.0
END
