TITL C-3201373-1215-438 198703.319069114 125000 -1213.29704528811 0 0 198 (C1) n - 1
REM
REM in /home/nfs/bkarasulu/CARBON/AIRSS/Generating-Clusters/LCBOP/Higher-Symm/SD-CG/FIRE-CG
REM
REM
REM
REM
REM
REM ./C.cell (b20cbc046b6831c77cfcea5457e17084)
REM AIRSS Version 0.9.1 bugfix July 2018 build 013d7b7c2542+ Fri, 06 Jul 2018 19:26:36 +0100
REM compiler GCC version 9.2.1 20190827 (Red Hat 9.2.1-1)
REM options -cpp -mtune=generic -march=x86-64 -g -O0 -fpre-include=/usr/include/finclude/math-vector-fortran.h
REM seed 1831266636 2009131636 -1365907895 940047912 -716479494 1484289901 998666873 -276730522 -1296062204 2113090291 488847167 304171043 -801870948 1906849540 1366591252 -1917744443 -690605621 684740233 -1370895204 -366621964 -1539780958 -846277147 -2096582014 -1486702205 1032656046 -191126056 2046129141 -1041370838 222062675 -1512935421 467084927 836253164 1295306271
REM
CELL 1.54180   50.00000   50.00000   50.00000   90.00000   90.00000   90.00000
LATT -1
SFAC C  
C      1  0.4450300000000  0.4420520000000  0.5391190000000 1.0
C      1  0.5433220000000  0.5567280000000  0.5049540000000 1.0
C      1  0.4664140000000  0.4568550000000  0.5002880000000 1.0
C      1  0.5339150000000  0.5600430000000  0.4594710000000 1.0
C      1  0.4541440000000  0.5480520000000  0.5122450000000 1.0
C      1  0.5499520000000  0.4452050000000  0.5284820000000 1.0
C      1  0.4408900000000  0.5613300000000  0.4691690000000 1.0
C      1  0.5510410000000  0.4455360000000  0.4803640000000 1.0
C      1  0.4796780000000  0.6206200000000  0.4905490000000 1.0
C      1  0.5176840000000  0.3824690000000  0.4884220000000 1.0
C      1  0.4794760000000  0.6151080000000  0.5208320000000 1.0
C      1  0.5099360000000  0.3829800000000  0.5228110000000 1.0
C      1  0.4810980000000  0.3872940000000  0.4895960000000 1.0
C      1  0.5095080000000  0.6200660000000  0.4860580000000 1.0
C      1  0.4798260000000  0.3831610000000  0.5187320000000 1.0
C      1  0.5079490000000  0.6129150000000  0.5254270000000 1.0
C      1  0.5158610000000  0.4261740000000  0.4463560000000 1.0
C      1  0.4805200000000  0.5576600000000  0.4296210000000 1.0
C      1  0.5123880000000  0.4131320000000  0.5634550000000 1.0
C      1  0.4894050000000  0.5636960000000  0.5668460000000 1.0
C      1  0.5022390000000  0.5757910000000  0.4324760000000 1.0
C      1  0.4892410000000  0.4351350000000  0.4431190000000 1.0
C      1  0.5148180000000  0.5765260000000  0.5623860000000 1.0
C      1  0.4861010000000  0.4285950000000  0.5608680000000 1.0
C      1  0.5174380000000  0.4661620000000  0.4097020000000 1.0
C      1  0.4945630000000  0.5186600000000  0.4007850000000 1.0
C      1  0.5163510000000  0.4652160000000  0.5918010000000 1.0
C      1  0.4949160000000  0.5235000000000  0.5994730000000 1.0
C      1  0.5221280000000  0.5235150000000  0.4083940000000 1.0
C      1  0.4880450000000  0.4660620000000  0.4048820000000 1.0
C      1  0.5232800000000  0.5232700000000  0.5921810000000 1.0
C      1  0.4873030000000  0.4699100000000  0.5954900000000 1.0
C      1  0.4718520000000  0.5326360000000  0.3883760000000 1.0
C      1  0.5395250000000  0.4475300000000  0.4083560000000 1.0
C      1  0.4840150000000  0.5472760000000  0.6112960000000 1.0
C      1  0.5368930000000  0.4453000000000  0.5940300000000 1.0
C      1  0.4664270000000  0.4460910000000  0.4025760000000 1.0
C      1  0.5377280000000  0.5474650000000  0.4058690000000 1.0
C      1  0.4625100000000  0.4536310000000  0.5961980000000 1.0
C      1  0.5423540000000  0.5448650000000  0.5939890000000 1.0
C      1  0.4823490000000  0.4347120000000  0.4930000000000 1.0
C      1  0.5120860000000  0.5794240000000  0.4604300000000 1.0
C      1  0.4648760000000  0.4215640000000  0.5422090000000 1.0
C      1  0.5203310000000  0.5693380000000  0.5116780000000 1.0
C      1  0.4632140000000  0.5793690000000  0.4721830000000 1.0
C      1  0.5281280000000  0.4267660000000  0.4737170000000 1.0
C      1  0.4686600000000  0.5711080000000  0.5146420000000 1.0
C      1  0.5265840000000  0.4297720000000  0.5226030000000 1.0
C      1  0.5789370000000  0.4915990000000  0.4636300000000 1.0
C      1  0.4335270000000  0.5193240000000  0.4127120000000 1.0
C      1  0.5745320000000  0.4946190000000  0.5279910000000 1.0
C      1  0.4475760000000  0.5136200000000  0.5720990000000 1.0
C      1  0.5651810000000  0.5152700000000  0.4666490000000 1.0
C      1  0.4345660000000  0.5114270000000  0.4381760000000 1.0
C      1  0.5608870000000  0.5183210000000  0.5326980000000 1.0
C      1  0.4395000000000  0.4901070000000  0.5587400000000 1.0
C      1  0.5233240000000  0.5714480000000  0.4126620000000 1.0
C      1  0.4743690000000  0.4255880000000  0.4207920000000 1.0
C      1  0.5332620000000  0.5698240000000  0.5835140000000 1.0
C      1  0.4713990000000  0.4281590000000  0.5872950000000 1.0
C      1  0.5317430000000  0.4241240000000  0.4227140000000 1.0
C      1  0.4692790000000  0.5572310000000  0.4032220000000 1.0
C      1  0.5280680000000  0.4193980000000  0.5866180000000 1.0
C      1  0.4788870000000  0.5674520000000  0.5934110000000 1.0
C      1  0.4135580000000  0.4008840000000  0.5130610000000 1.0
C      1  0.5743290000000  0.5958760000000  0.5166530000000 1.0
C      1  0.4203310000000  0.4086810000000  0.4822330000000 1.0
C      1  0.5774240000000  0.5986180000000  0.4840700000000 1.0
C      1  0.4127280000000  0.5965230000000  0.5248360000000 1.0
C      1  0.5765100000000  0.3961050000000  0.5173090000000 1.0
C      1  0.4118700000000  0.6081050000000  0.4926620000000 1.0
C      1  0.5846360000000  0.3976890000000  0.4830400000000 1.0
C      1  0.3947470000000  0.5503380000000  0.4535000000000 1.0
C      1  0.6065310000000  0.4559880000000  0.4460600000000 1.0
C      1  0.3921340000000  0.5375670000000  0.5535670000000 1.0
C      1  0.5996870000000  0.4562520000000  0.5495080000000 1.0
C      1  0.4018250000000  0.4673820000000  0.4436290000000 1.0
C      1  0.6033540000000  0.5426790000000  0.4443500000000 1.0
C      1  0.3957150000000  0.4566590000000  0.5494190000000 1.0
C      1  0.6043820000000  0.5382310000000  0.5516020000000 1.0
C      1  0.4771840000000  0.5144810000000  0.5756810000000 1.0
C      1  0.5257180000000  0.4797490000000  0.5671140000000 1.0
C      1  0.4819910000000  0.5092060000000  0.4260540000000 1.0
C      1  0.5239500000000  0.4811720000000  0.4343820000000 1.0
C      1  0.4823120000000  0.4846070000000  0.5705790000000 1.0
C      1  0.5309230000000  0.5069710000000  0.5699930000000 1.0
C      1  0.4784560000000  0.4814820000000  0.4290350000000 1.0
C      1  0.5316620000000  0.5079380000000  0.4310750000000 1.0
C      1  0.5391960000000  0.5183030000000  0.4563380000000 1.0
C      1  0.4861210000000  0.4631440000000  0.4510090000000 1.0
C      1  0.5362050000000  0.5183500000000  0.5450580000000 1.0
C      1  0.4886090000000  0.4634120000000  0.5508990000000 1.0
C      1  0.5114100000000  0.4734440000000  0.4607660000000 1.0
C      1  0.4822320000000  0.5317630000000  0.4438660000000 1.0
C      1  0.5137190000000  0.4715940000000  0.5409620000000 1.0
C      1  0.4849640000000  0.5370070000000  0.5563890000000 1.0
C      1  0.3851600000000  0.5098620000000  0.5565200000000 1.0
C      1  0.6087360000000  0.4830750000000  0.5565690000000 1.0
C      1  0.3894590000000  0.5228920000000  0.4434080000000 1.0
C      1  0.6145300000000  0.4852940000000  0.4396960000000 1.0
C      1  0.3877240000000  0.4830110000000  0.5575760000000 1.0
C      1  0.6113450000000  0.5103060000000  0.5557790000000 1.0
C      1  0.3918330000000  0.4952830000000  0.4394830000000 1.0
C      1  0.6122080000000  0.5136690000000  0.4393560000000 1.0
C      1  0.4471460000000  0.5179290000000  0.3878060000000 1.0
C      1  0.5664970000000  0.4586720000000  0.4131380000000 1.0
C      1  0.4265870000000  0.5269260000000  0.5855120000000 1.0
C      1  0.5622940000000  0.4560630000000  0.5839620000000 1.0
C      1  0.4386430000000  0.4556650000000  0.4042090000000 1.0
C      1  0.5660250000000  0.5411360000000  0.4104310000000 1.0
C      1  0.4344870000000  0.4642980000000  0.5813790000000 1.0
C      1  0.5696440000000  0.5357020000000  0.5886430000000 1.0
C      1  0.4350150000000  0.5909270000000  0.5412980000000 1.0
C      1  0.5590330000000  0.3984860000000  0.5391770000000 1.0
C      1  0.4291820000000  0.6107200000000  0.4708130000000 1.0
C      1  0.5646110000000  0.3997130000000  0.4637870000000 1.0
C      1  0.4284550000000  0.3958280000000  0.5365660000000 1.0
C      1  0.5572280000000  0.5900890000000  0.5381370000000 1.0
C      1  0.4436520000000  0.4156600000000  0.4684500000000 1.0
C      1  0.5585060000000  0.6006690000000  0.4619350000000 1.0
C      1  0.3912160000000  0.4248710000000  0.5109260000000 1.0
C      1  0.6004300000000  0.5745310000000  0.5145750000000 1.0
C      1  0.3982850000000  0.4297720000000  0.4811170000000 1.0
C      1  0.6010470000000  0.5778090000000  0.4831560000000 1.0
C      1  0.3911820000000  0.5762290000000  0.5208440000000 1.0
C      1  0.6031430000000  0.4206070000000  0.5151160000000 1.0
C      1  0.3878130000000  0.5815660000000  0.4918800000000 1.0
C      1  0.6046340000000  0.4190060000000  0.4855830000000 1.0
C      1  0.6137090000000  0.5563290000000  0.4681920000000 1.0
C      1  0.3904540000000  0.4539510000000  0.4674770000000 1.0
C      1  0.6133950000000  0.5524440000000  0.5277860000000 1.0
C      1  0.3826220000000  0.4470700000000  0.5257480000000 1.0
C      1  0.6168240000000  0.4411880000000  0.4703030000000 1.0
C      1  0.3782600000000  0.5603350000000  0.4751630000000 1.0
C      1  0.6144900000000  0.4422390000000  0.5290250000000 1.0
C      1  0.3805670000000  0.5525150000000  0.5322610000000 1.0
C      1  0.5834680000000  0.5504530000000  0.5677860000000 1.0
C      1  0.4218930000000  0.4422490000000  0.5598900000000 1.0
C      1  0.5810030000000  0.5567670000000  0.4301070000000 1.0
C      1  0.4248540000000  0.4531780000000  0.4303500000000 1.0
C      1  0.5720140000000  0.4439620000000  0.5574530000000 1.0
C      1  0.4144580000000  0.5474260000000  0.5693150000000 1.0
C      1  0.5830890000000  0.4436560000000  0.4324750000000 1.0
C      1  0.4189550000000  0.5668260000000  0.4507510000000 1.0
C      1  0.6353130000000  0.4548880000000  0.5139930000000 1.0
C      1  0.3610660000000  0.5399220000000  0.5155850000000 1.0
C      1  0.6365840000000  0.4543200000000  0.4866800000000 1.0
C      1  0.3599500000000  0.5432960000000  0.4886390000000 1.0
C      1  0.6329430000000  0.5403110000000  0.5109090000000 1.0
C      1  0.3677800000000  0.4655590000000  0.5098160000000 1.0
C      1  0.6332720000000  0.5425690000000  0.4838440000000 1.0
C      1  0.3717000000000  0.4688950000000  0.4831410000000 1.0
C      1  0.4309010000000  0.4718380000000  0.3824130000000 1.0
C      1  0.5735070000000  0.5134150000000  0.4038640000000 1.0
C      1  0.4174710000000  0.4805430000000  0.6020620000000 1.0
C      1  0.5754990000000  0.5082800000000  0.5953740000000 1.0
C      1  0.4391840000000  0.4956590000000  0.3726490000000 1.0
C      1  0.5725190000000  0.4859830000000  0.4049600000000 1.0
C      1  0.4144200000000  0.5079960000000  0.6036080000000 1.0
C      1  0.5723030000000  0.4813180000000  0.5936540000000 1.0
C      1  0.5715280000000  0.4138670000000  0.5601810000000 1.0
C      1  0.4286800000000  0.5713290000000  0.5616990000000 1.0
C      1  0.5729760000000  0.4178070000000  0.4422490000000 1.0
C      1  0.4193270000000  0.5957310000000  0.4477030000000 1.0
C      1  0.5706620000000  0.5744190000000  0.5583060000000 1.0
C      1  0.4181260000000  0.4111610000000  0.5603390000000 1.0
C      1  0.5696670000000  0.5831090000000  0.4394420000000 1.0
C      1  0.4378120000000  0.4338210000000  0.4473790000000 1.0
C      1  0.4301810000000  0.5071050000000  0.4641090000000 1.0
C      1  0.5741820000000  0.5295150000000  0.4883800000000 1.0
C      1  0.4371400000000  0.4868880000000  0.5305970000000 1.0
C      1  0.5627920000000  0.5366830000000  0.5124880000000 1.0
C      1  0.4251750000000  0.5185000000000  0.4891760000000 1.0
C      1  0.5926200000000  0.4820270000000  0.4846410000000 1.0
C      1  0.4230510000000  0.5029010000000  0.5124110000000 1.0
C      1  0.5791120000000  0.4759960000000  0.5079330000000 1.0
C      1  0.4581480000000  0.3953280000000  0.5334360000000 1.0
C      1  0.5242740000000  0.5891830000000  0.5356950000000 1.0
C      1  0.4692660000000  0.4115810000000  0.4809260000000 1.0
C      1  0.5278200000000  0.6053590000000  0.4682720000000 1.0
C      1  0.4612260000000  0.5940890000000  0.5288310000000 1.0
C      1  0.5264910000000  0.4032000000000  0.5378840000000 1.0
C      1  0.4580570000000  0.6075820000000  0.4755100000000 1.0
C      1  0.5374150000000  0.3977260000000  0.4751120000000 1.0
C      1  0.4917090000000  0.5245490000000  0.4693960000000 1.0
C      1  0.5164960000000  0.4878470000000  0.4858810000000 1.0
C      1  0.4910580000000  0.5269360000000  0.5312590000000 1.0
C      1  0.5153400000000  0.4873980000000  0.5155640000000 1.0
C      1  0.4740320000000  0.5141490000000  0.4882990000000 1.0
C      1  0.5179680000000  0.5152140000000  0.4748970000000 1.0
C      1  0.4704640000000  0.5254440000000  0.5132660000000 1.0
C      1  0.5150970000000  0.5142640000000  0.5267090000000 1.0
C      1  0.5611950000000  0.4550500000000  0.5052500000000 1.0
C      1  0.4350430000000  0.5451200000000  0.4917850000000 1.0
C      1  0.5510590000000  0.5615880000000  0.4790100000000 1.0
C      1  0.4484710000000  0.4628860000000  0.5208710000000 1.0
C      1  0.4942160000000  0.5730830000000  0.4885400000000 1.0
C      1  0.5104610000000  0.4319430000000  0.4982730000000 1.0
END
