TITL C-3201375-1262-1680 0.207917885162163 125000 -230.104300380158 0 0 40 (C1) n - 1
REM
REM in /home/nfs/bkarasulu/CARBON/AIRSS/Generating-Clusters/LCBOP/Higher-Symm/SD-CG/FIRE-CG
REM
REM
REM
REM
REM
REM ./C.cell (b20cbc046b6831c77cfcea5457e17084)
REM AIRSS Version 0.9.1 bugfix July 2018 build 013d7b7c2542+ Fri, 06 Jul 2018 19:26:36 +0100
REM compiler GCC version 9.2.1 20190827 (Red Hat 9.2.1-1)
REM options -cpp -mtune=generic -march=x86-64 -g -O0 -fpre-include=/usr/include/finclude/math-vector-fortran.h
REM seed -1887632180 1698914479 -1375649273 -1801503518 2111582243 -1770319272 952149853 -16662410 768253021 -1751872946 758094107 1412506342 961510070 -434511057 -676217990 632026004 371635461 -862760264 334560586 1938303825 1259040902 -753508361 999588476 496651509 -1589056481 142858364 -715570603 -694937803 -119111979 -678498157 1484957977 -1301065287 1509794693
REM
CELL 1.54180   50.00000   50.00000   50.00000   90.00000   90.00000   90.00000
LATT -1
SFAC C  
C      1  0.4236080000000  0.5181030000000  0.5592330000000 1.0
C      1  0.5622030000000  0.4617230000000  0.4941870000000 1.0
C      1  0.4608210000000  0.5043460000000  0.4953720000000 1.0
C      1  0.5122980000000  0.4632290000000  0.5253940000000 1.0
C      1  0.5235450000000  0.5561570000000  0.4569390000000 1.0
C      1  0.4332750000000  0.4673160000000  0.4866360000000 1.0
C      1  0.4602960000000  0.4588640000000  0.5272440000000 1.0
C      1  0.4035430000000  0.5307470000000  0.5700130000000 1.0
C      1  0.4399120000000  0.4744670000000  0.5403380000000 1.0
C      1  0.5306170000000  0.5120990000000  0.5039450000000 1.0
C      1  0.5342930000000  0.5803530000000  0.4561850000000 1.0
C      1  0.4419680000000  0.5043420000000  0.4522780000000 1.0
C      1  0.5557490000000  0.5238680000000  0.5135400000000 1.0
C      1  0.4757170000000  0.4458760000000  0.4827400000000 1.0
C      1  0.4890150000000  0.5241970000000  0.4452250000000 1.0
C      1  0.4872130000000  0.4780780000000  0.5639120000000 1.0
C      1  0.4852260000000  0.4921920000000  0.4877070000000 1.0
C      1  0.5187330000000  0.4139420000000  0.5221210000000 1.0
C      1  0.4396330000000  0.4940290000000  0.4785010000000 1.0
C      1  0.5269000000000  0.5111000000000  0.4748870000000 1.0
C      1  0.5451610000000  0.6045130000000  0.4555980000000 1.0
C      1  0.4546670000000  0.5152070000000  0.5205120000000 1.0
C      1  0.4537590000000  0.4515050000000  0.4998900000000 1.0
C      1  0.5130130000000  0.5303340000000  0.4590040000000 1.0
C      1  0.5598460000000  0.4778290000000  0.5183390000000 1.0
C      1  0.5299560000000  0.4857470000000  0.5199620000000 1.0
C      1  0.5729750000000  0.5035950000000  0.5216120000000 1.0
C      1  0.4936710000000  0.4669790000000  0.4767250000000 1.0
C      1  0.4636660000000  0.5162260000000  0.4412390000000 1.0
C      1  0.5367470000000  0.4463560000000  0.4892530000000 1.0
C      1  0.4697160000000  0.5003740000000  0.5651850000000 1.0
C      1  0.5025500000000  0.4700870000000  0.5849970000000 1.0
C      1  0.5639360000000  0.4783040000000  0.4700560000000 1.0
C      1  0.5368820000000  0.4866980000000  0.4630920000000 1.0
C      1  0.5209000000000  0.4628990000000  0.4702710000000 1.0
C      1  0.4459810000000  0.5038120000000  0.5470290000000 1.0
C      1  0.5560340000000  0.6286800000000  0.4550140000000 1.0
C      1  0.4871090000000  0.4641440000000  0.5385600000000 1.0
C      1  0.5667290000000  0.6524490000000  0.4544400000000 1.0
C      1  0.5221360000000  0.4392340000000  0.5128210000000 1.0
END
