TITL C-3201378-2706-1910 480.323018618446 125000 -932.314641913976 0 0 154 (C1) n - 1
REM
REM in /home/nfs/bkarasulu/CARBON/AIRSS/Generating-Clusters/LCBOP/Higher-Symm/SD-CG/FIRE-CG
REM
REM
REM
REM
REM
REM ./C.cell (b20cbc046b6831c77cfcea5457e17084)
REM AIRSS Version 0.9.1 bugfix July 2018 build 013d7b7c2542+ Fri, 06 Jul 2018 19:26:36 +0100
REM compiler GCC version 9.2.1 20190827 (Red Hat 9.2.1-1)
REM options -cpp -mtune=generic -march=x86-64 -g -O0 -fpre-include=/usr/include/finclude/math-vector-fortran.h
REM seed -432067679 440170045 1381439818 1879067745 126327637 -227557955 1897478383 1932650680 -1749697136 -358833524 92904970 -741966354 1156313051 1653535429 1496233075 -546764346 -180864022 -16593844 311036239 -86245133 1777457395 1390690150 1616751391 1988807865 -1319015383 953876366 270012383 270899716 1466010612 -642193926 1290268102 -665035865 -545891742
REM
CELL 1.54180   50.00000   50.00000   50.00000   90.00000   90.00000   90.00000
LATT -1
SFAC C  
C      1  0.5017410000000  0.3996970000000  0.4331880000000 1.0
C      1  0.4087820000000  0.4375680000000  0.5032450000000 1.0
C      1  0.4365840000000  0.4982360000000  0.4034710000000 1.0
C      1  0.4986410000000  0.5873320000000  0.4366160000000 1.0
C      1  0.4978830000000  0.5941720000000  0.5721080000000 1.0
C      1  0.4973850000000  0.4030290000000  0.5643100000000 1.0
C      1  0.5893820000000  0.5659230000000  0.5033960000000 1.0
C      1  0.4064310000000  0.5672570000000  0.5004720000000 1.0
C      1  0.5905140000000  0.4352960000000  0.4950460000000 1.0
C      1  0.5664960000000  0.4993070000000  0.4036210000000 1.0
C      1  0.4359210000000  0.5037030000000  0.5934230000000 1.0
C      1  0.5636090000000  0.5046820000000  0.5894040000000 1.0
C      1  0.4324760000000  0.5415560000000  0.5311130000000 1.0
C      1  0.5402880000000  0.5267290000000  0.4316550000000 1.0
C      1  0.5319250000000  0.4266760000000  0.5408080000000 1.0
C      1  0.5684190000000  0.4588590000000  0.5299650000000 1.0
C      1  0.4305210000000  0.4573750000000  0.4655780000000 1.0
C      1  0.5726080000000  0.5410480000000  0.4662740000000 1.0
C      1  0.4586770000000  0.4614900000000  0.4262770000000 1.0
C      1  0.5413690000000  0.4660960000000  0.5697750000000 1.0
C      1  0.4623150000000  0.5330580000000  0.5678570000000 1.0
C      1  0.4609140000000  0.5793890000000  0.5478730000000 1.0
C      1  0.5316420000000  0.5637570000000  0.4607350000000 1.0
C      1  0.4656520000000  0.4220610000000  0.4559510000000 1.0
C      1  0.5237940000000  0.4021080000000  0.5530070000000 1.0
C      1  0.4069180000000  0.5530940000000  0.5252330000000 1.0
C      1  0.5508110000000  0.5231120000000  0.4052590000000 1.0
C      1  0.4704290000000  0.5993450000000  0.5659830000000 1.0
C      1  0.5231790000000  0.5887840000000  0.4509500000000 1.0
C      1  0.4741330000000  0.3984480000000  0.4419720000000 1.0
C      1  0.5927960000000  0.4473120000000  0.5207910000000 1.0
C      1  0.4060200000000  0.4478080000000  0.4766840000000 1.0
C      1  0.5933730000000  0.5579710000000  0.4760510000000 1.0
C      1  0.4451700000000  0.4705560000000  0.4026160000000 1.0
C      1  0.5533100000000  0.4777830000000  0.5932480000000 1.0
C      1  0.4510170000000  0.5279130000000  0.5936310000000 1.0
C      1  0.4766620000000  0.6002890000000  0.4850810000000 1.0
C      1  0.5939540000000  0.4829600000000  0.4760950000000 1.0
C      1  0.4837090000000  0.4766560000000  0.5900780000000 1.0
C      1  0.5228110000000  0.4010550000000  0.4827380000000 1.0
C      1  0.4751140000000  0.4058500000000  0.5158810000000 1.0
C      1  0.5209770000000  0.5951730000000  0.5260010000000 1.0
C      1  0.4075680000000  0.5215800000000  0.4735690000000 1.0
C      1  0.5938260000000  0.5192450000000  0.5221500000000 1.0
C      1  0.4084330000000  0.4852900000000  0.5210630000000 1.0
C      1  0.5190470000000  0.5243570000000  0.5818670000000 1.0
C      1  0.4869690000000  0.5171160000000  0.4065690000000 1.0
C      1  0.5196350000000  0.4715630000000  0.4060690000000 1.0
C      1  0.5870520000000  0.4935530000000  0.4494460000000 1.0
C      1  0.4907290000000  0.4490990000000  0.5825980000000 1.0
C      1  0.4503850000000  0.5906260000000  0.4942240000000 1.0
C      1  0.4147030000000  0.5134560000000  0.4466790000000 1.0
C      1  0.5782590000000  0.5133730000000  0.5453590000000 1.0
C      1  0.4153530000000  0.4975140000000  0.5467760000000 1.0
C      1  0.5079560000000  0.5463060000000  0.5678280000000 1.0
C      1  0.4944780000000  0.5410560000000  0.4216600000000 1.0
C      1  0.5126590000000  0.4447470000000  0.4143610000000 1.0
C      1  0.5457830000000  0.4176900000000  0.4912840000000 1.0
C      1  0.4536180000000  0.4231530000000  0.5062260000000 1.0
C      1  0.5418050000000  0.5755670000000  0.5192990000000 1.0
C      1  0.4353180000000  0.5596880000000  0.4649090000000 1.0
C      1  0.5617880000000  0.4606920000000  0.4286270000000 1.0
C      1  0.4592050000000  0.4288750000000  0.5515620000000 1.0
C      1  0.5678250000000  0.4385410000000  0.4463170000000 1.0
C      1  0.4342790000000  0.4440910000000  0.5510940000000 1.0
C      1  0.5846410000000  0.5569910000000  0.5525430000000 1.0
C      1  0.4504450000000  0.5390820000000  0.4267620000000 1.0
C      1  0.5611500000000  0.5578250000000  0.5708790000000 1.0
C      1  0.4414450000000  0.4665780000000  0.5674270000000 1.0
C      1  0.5452470000000  0.5822340000000  0.5682440000000 1.0
C      1  0.4502750000000  0.5651610000000  0.4411010000000 1.0
C      1  0.5420560000000  0.4243770000000  0.4471310000000 1.0
C      1  0.5209450000000  0.4442230000000  0.4422850000000 1.0
C      1  0.4592640000000  0.4521800000000  0.5051220000000 1.0
C      1  0.4437880000000  0.5189950000000  0.4469430000000 1.0
C      1  0.4885800000000  0.5362190000000  0.4492830000000 1.0
C      1  0.5090450000000  0.5446980000000  0.5387090000000 1.0
C      1  0.4822930000000  0.4473270000000  0.5550640000000 1.0
C      1  0.5365700000000  0.5446930000000  0.5256720000000 1.0
C      1  0.4534030000000  0.5623500000000  0.4869620000000 1.0
C      1  0.5348930000000  0.4445650000000  0.4967730000000 1.0
C      1  0.5609720000000  0.4819950000000  0.4477940000000 1.0
C      1  0.4423910000000  0.4880420000000  0.5480040000000 1.0
C      1  0.5506520000000  0.5211980000000  0.5394460000000 1.0
C      1  0.4222220000000  0.5922290000000  0.5003000000000 1.0
C      1  0.5907920000000  0.5005570000000  0.4213020000000 1.0
C      1  0.4959780000000  0.4211010000000  0.5879450000000 1.0
C      1  0.5731600000000  0.4130090000000  0.4938880000000 1.0
C      1  0.4266190000000  0.4156780000000  0.5044420000000 1.0
C      1  0.5668920000000  0.5824450000000  0.5084730000000 1.0
C      1  0.4120890000000  0.5033020000000  0.4197000000000 1.0
C      1  0.5851900000000  0.5054620000000  0.5711240000000 1.0
C      1  0.4117970000000  0.5045400000000  0.5751720000000 1.0
C      1  0.5004200000000  0.5682450000000  0.5836360000000 1.0
C      1  0.4986510000000  0.5681730000000  0.4153850000000 1.0
C      1  0.5052650000000  0.4173990000000  0.4098530000000 1.0
C      1  0.4703640000000  0.5394550000000  0.4984780000000 1.0
C      1  0.5374290000000  0.4869650000000  0.4630230000000 1.0
C      1  0.4950070000000  0.4558930000000  0.5310400000000 1.0
C      1  0.5390400000000  0.4723060000000  0.4892010000000 1.0
C      1  0.4757890000000  0.4726090000000  0.5179290000000 1.0
C      1  0.5370990000000  0.5342000000000  0.4975380000000 1.0
C      1  0.4587200000000  0.4969350000000  0.4571390000000 1.0
C      1  0.5371940000000  0.4962420000000  0.5337610000000 1.0
C      1  0.4663170000000  0.4947170000000  0.5347570000000 1.0
C      1  0.4869320000000  0.5505860000000  0.5216920000000 1.0
C      1  0.4926120000000  0.5378000000000  0.4766520000000 1.0
C      1  0.5029770000000  0.4499500000000  0.4628320000000 1.0
C      1  0.4571730000000  0.5200230000000  0.4041390000000 1.0
C      1  0.5242750000000  0.4005000000000  0.4530480000000 1.0
C      1  0.4123710000000  0.4555080000000  0.5251580000000 1.0
C      1  0.5498190000000  0.4744340000000  0.4054630000000 1.0
C      1  0.4534000000000  0.4796130000000  0.5906830000000 1.0
C      1  0.5472020000000  0.5285040000000  0.5865650000000 1.0
C      1  0.4749990000000  0.5886660000000  0.4517400000000 1.0
C      1  0.5222290000000  0.5969910000000  0.5560530000000 1.0
C      1  0.4744820000000  0.4043900000000  0.5450720000000 1.0
C      1  0.5956800000000  0.5486600000000  0.5255100000000 1.0
C      1  0.4104640000000  0.5501560000000  0.4768900000000 1.0
C      1  0.5886100000000  0.4522580000000  0.4723770000000 1.0
C      1  0.5617720000000  0.5238040000000  0.4866760000000 1.0
C      1  0.5237850000000  0.4846320000000  0.5563480000000 1.0
C      1  0.4785850000000  0.5775630000000  0.5258470000000 1.0
C      1  0.4405330000000  0.4828550000000  0.4755190000000 1.0
C      1  0.5559610000000  0.4824070000000  0.5130670000000 1.0
C      1  0.4458730000000  0.5228980000000  0.5109820000000 1.0
C      1  0.4792090000000  0.5116650000000  0.5552850000000 1.0
C      1  0.5229630000000  0.5046630000000  0.4433740000000 1.0
C      1  0.4755180000000  0.4822640000000  0.4380600000000 1.0
C      1  0.5137140000000  0.4367180000000  0.5173780000000 1.0
C      1  0.4860020000000  0.4308450000000  0.4743940000000 1.0
C      1  0.5188260000000  0.5477130000000  0.4810060000000 1.0
C      1  0.5395060000000  0.3798650000000  0.5536880000000 1.0
C      1  0.3852880000000  0.5514290000000  0.5416980000000 1.0
C      1  0.5470260000000  0.5402100000000  0.3844550000000 1.0
C      1  0.4557390000000  0.6199740000000  0.5757470000000 1.0
C      1  0.5370870000000  0.6119120000000  0.4544770000000 1.0
C      1  0.4580310000000  0.3769070000000  0.4376170000000 1.0
C      1  0.6159270000000  0.4478170000000  0.5351390000000 1.0
C      1  0.3823090000000  0.4484410000000  0.4633000000000 1.0
C      1  0.6148370000000  0.5656730000000  0.4611820000000 1.0
C      1  0.4409950000000  0.4545660000000  0.3809190000000 1.0
C      1  0.5546960000000  0.4647840000000  0.6171900000000 1.0
C      1  0.4539750000000  0.5438320000000  0.6154650000000 1.0
C      1  0.4948390000000  0.5965180000000  0.5101390000000 1.0
C      1  0.5793300000000  0.5013700000000  0.4995300000000 1.0
C      1  0.5019960000000  0.4986380000000  0.5731480000000 1.0
C      1  0.4986290000000  0.4145590000000  0.4985450000000 1.0
C      1  0.4246850000000  0.5020200000000  0.4959940000000 1.0
C      1  0.5008630000000  0.4933700000000  0.4224320000000 1.0
C      1  0.4481920000000  0.4435120000000  0.4467480000000 1.0
C      1  0.5515030000000  0.5475940000000  0.4479960000000 1.0
C      1  0.4490430000000  0.5529830000000  0.5519110000000 1.0
C      1  0.5508140000000  0.4469570000000  0.5502170000000 1.0
END
