TITL C-3201377-4638-1120 0.000353312367057592 125000 -310.334376284511 0 0 52 (C1) n - 1
REM
REM in /home/nfs/bkarasulu/CARBON/AIRSS/Generating-Clusters/LCBOP/Higher-Symm/SD-CG/FIRE-CG
REM
REM
REM
REM
REM
REM ./C.cell (b20cbc046b6831c77cfcea5457e17084)
REM AIRSS Version 0.9.1 bugfix July 2018 build 013d7b7c2542+ Fri, 06 Jul 2018 19:26:36 +0100
REM compiler GCC version 9.2.1 20190827 (Red Hat 9.2.1-1)
REM options -cpp -mtune=generic -march=x86-64 -g -O0 -fpre-include=/usr/include/finclude/math-vector-fortran.h
REM seed 118772955 -427302053 -1945605357 955233075 -767492100 -2119293952 1493295566 -921156326 -871882939 -1539718932 -1701638683 1510889007 -2046421078 -232799398 -674915491 -1386722883 1579232937 1558073672 1127587468 1159988183 -800999467 59428828 10676269 -1080769168 966539749 -1083373710 2135369085 1532101201 802146394 -1707003871 382568916 -155084011 -1147872233
REM
CELL 1.54180   50.00000   50.00000   50.00000   90.00000   90.00000   90.00000
LATT -1
SFAC C  
C      1  0.5049700000000  0.4465620000000  0.4488390000000 1.0
C      1  0.4555310000000  0.4831200000000  0.4418220000000 1.0
C      1  0.5270900000000  0.4764700000000  0.5187810000000 1.0
C      1  0.4619930000000  0.5253920000000  0.4662910000000 1.0
C      1  0.4998200000000  0.4570740000000  0.5632700000000 1.0
C      1  0.4135270000000  0.5410770000000  0.5204090000000 1.0
C      1  0.5266020000000  0.4349570000000  0.4622750000000 1.0
C      1  0.4734060000000  0.5905820000000  0.4356130000000 1.0
C      1  0.5471430000000  0.4574550000000  0.5240930000000 1.0
C      1  0.4334160000000  0.5173920000000  0.5591650000000 1.0
C      1  0.4776960000000  0.4359260000000  0.5213980000000 1.0
C      1  0.4645300000000  0.4590400000000  0.4283330000000 1.0
C      1  0.4225290000000  0.5340760000000  0.4962290000000 1.0
C      1  0.5525710000000  0.5885000000000  0.5214390000000 1.0
C      1  0.4841070000000  0.5333380000000  0.5152190000000 1.0
C      1  0.4737290000000  0.5045160000000  0.4501940000000 1.0
C      1  0.5984050000000  0.5778630000000  0.4949050000000 1.0
C      1  0.4174310000000  0.5345140000000  0.5460960000000 1.0
C      1  0.4742810000000  0.5710940000000  0.4528920000000 1.0
C      1  0.4522100000000  0.4754390000000  0.5100610000000 1.0
C      1  0.5529270000000  0.4383640000000  0.5036880000000 1.0
C      1  0.5628580000000  0.4130040000000  0.5093990000000 1.0
C      1  0.4768270000000  0.4415580000000  0.4492270000000 1.0
C      1  0.5101030000000  0.4942020000000  0.5050100000000 1.0
C      1  0.5762770000000  0.5830670000000  0.5076510000000 1.0
C      1  0.4398030000000  0.5166960000000  0.4827790000000 1.0
C      1  0.5273390000000  0.5285460000000  0.5587150000000 1.0
C      1  0.5097100000000  0.4805180000000  0.5716090000000 1.0
C      1  0.5010150000000  0.4962800000000  0.4548070000000 1.0
C      1  0.5560570000000  0.4729140000000  0.4700810000000 1.0
C      1  0.5476120000000  0.4467370000000  0.4770990000000 1.0
C      1  0.5097920000000  0.4734920000000  0.4400070000000 1.0
C      1  0.5193600000000  0.5053700000000  0.5693780000000 1.0
C      1  0.4754240000000  0.5502570000000  0.4713350000000 1.0
C      1  0.5490010000000  0.6124630000000  0.5341500000000 1.0
C      1  0.4877700000000  0.5058700000000  0.5182730000000 1.0
C      1  0.5120330000000  0.5685700000000  0.5022790000000 1.0
C      1  0.5459200000000  0.4992700000000  0.4724040000000 1.0
C      1  0.4630370000000  0.4495380000000  0.5018090000000 1.0
C      1  0.4897440000000  0.4402770000000  0.5449930000000 1.0
C      1  0.4389640000000  0.4885330000000  0.4879290000000 1.0
C      1  0.5321660000000  0.5687860000000  0.5221190000000 1.0
C      1  0.4897150000000  0.5528360000000  0.4959210000000 1.0
C      1  0.5718660000000  0.3891630000000  0.5148380000000 1.0
C      1  0.4525710000000  0.4999780000000  0.5522340000000 1.0
C      1  0.5617030000000  0.4580840000000  0.5472150000000 1.0
C      1  0.4429440000000  0.4712290000000  0.4654830000000 1.0
C      1  0.5614270000000  0.5215430000000  0.4698860000000 1.0
C      1  0.4656100000000  0.4915380000000  0.5288820000000 1.0
C      1  0.5319660000000  0.5493160000000  0.5425710000000 1.0
C      1  0.4598870000000  0.4469020000000  0.4730160000000 1.0
C      1  0.5175860000000  0.5007080000000  0.4778920000000 1.0
END
