TITL C-3201377-4638-2195 -3.50015616066519e-07 125000 -386.89610442655 0 0 66 (C1) n - 1
REM
REM in /home/nfs/bkarasulu/CARBON/AIRSS/Generating-Clusters/LCBOP/Higher-Symm/SD-CG/FIRE-CG
REM
REM
REM
REM
REM
REM ./C.cell (b20cbc046b6831c77cfcea5457e17084)
REM AIRSS Version 0.9.1 bugfix July 2018 build 013d7b7c2542+ Fri, 06 Jul 2018 19:26:36 +0100
REM compiler GCC version 9.2.1 20190827 (Red Hat 9.2.1-1)
REM options -cpp -mtune=generic -march=x86-64 -g -O0 -fpre-include=/usr/include/finclude/math-vector-fortran.h
REM seed 1977298092 -1630394999 -474544083 733878558 1294410129 -1037419047 -492232877 -679515956 -1197230812 -966846338 1323302848 1816359394 1250492634 -1005202731 -86309319 -619201367 -215015965 1272898523 -1315900824 2086531660 651309481 2128413598 1839139887 -1242478210 985895097 1347760843 -993333774 -265687008 -822802443 431913582 1660786879 1704174564 626492725
REM
CELL 1.54180   50.00000   50.00000   50.00000   90.00000   90.00000   90.00000
LATT -1
SFAC C  
C      1  0.5412360000000  0.4950340000000  0.4578310000000 1.0
C      1  0.4674720000000  0.5014530000000  0.5389620000000 1.0
C      1  0.4763990000000  0.4532630000000  0.5492940000000 1.0
C      1  0.5487640000000  0.5412640000000  0.4399790000000 1.0
C      1  0.4588970000000  0.4756850000000  0.5468300000000 1.0
C      1  0.5582050000000  0.5159340000000  0.4489880000000 1.0
C      1  0.4783570000000  0.5650340000000  0.5480180000000 1.0
C      1  0.5118740000000  0.4315710000000  0.4493420000000 1.0
C      1  0.4281610000000  0.5217050000000  0.5059470000000 1.0
C      1  0.5665960000000  0.4746220000000  0.5004710000000 1.0
C      1  0.5834410000000  0.5205930000000  0.5126930000000 1.0
C      1  0.4048080000000  0.4852730000000  0.4790650000000 1.0
C      1  0.5432550000000  0.4693060000000  0.4455600000000 1.0
C      1  0.4575330000000  0.5232050000000  0.5543110000000 1.0
C      1  0.4904980000000  0.4958370000000  0.4270450000000 1.0
C      1  0.5277270000000  0.5171450000000  0.6028810000000 1.0
C      1  0.5251510000000  0.4589410000000  0.5316760000000 1.0
C      1  0.4566650000000  0.5446010000000  0.4675830000000 1.0
C      1  0.5127090000000  0.4990710000000  0.4117450000000 1.0
C      1  0.5254490000000  0.5127120000000  0.6297080000000 1.0
C      1  0.4664170000000  0.4557470000000  0.4386540000000 1.0
C      1  0.5276720000000  0.5490440000000  0.5639680000000 1.0
C      1  0.4867890000000  0.5349770000000  0.5043060000000 1.0
C      1  0.5092370000000  0.4737170000000  0.4892470000000 1.0
C      1  0.4641160000000  0.5517340000000  0.4943990000000 1.0
C      1  0.5221790000000  0.4518640000000  0.5042810000000 1.0
C      1  0.4472670000000  0.5013010000000  0.4410790000000 1.0
C      1  0.5366890000000  0.5027410000000  0.5566000000000 1.0
C      1  0.4858540000000  0.4765370000000  0.4475000000000 1.0
C      1  0.5265130000000  0.5431870000000  0.5918580000000 1.0
C      1  0.5048870000000  0.5627340000000  0.5535890000000 1.0
C      1  0.4850450000000  0.4324850000000  0.4399200000000 1.0
C      1  0.5693950000000  0.5308070000000  0.5356790000000 1.0
C      1  0.4177250000000  0.4696360000000  0.4606520000000 1.0
C      1  0.4656620000000  0.5082950000000  0.4202610000000 1.0
C      1  0.5315860000000  0.4959090000000  0.5838890000000 1.0
C      1  0.5529520000000  0.5621290000000  0.4572600000000 1.0
C      1  0.4743710000000  0.4336630000000  0.5301530000000 1.0
C      1  0.4310900000000  0.4486750000000  0.5184790000000 1.0
C      1  0.5793640000000  0.5352540000000  0.4882200000000 1.0
C      1  0.4549790000000  0.5388410000000  0.3774370000000 1.0
C      1  0.5294120000000  0.4444570000000  0.6000040000000 1.0
C      1  0.5443050000000  0.4928350000000  0.5080150000000 1.0
C      1  0.4512880000000  0.5069450000000  0.4928940000000 1.0
C      1  0.4860170000000  0.4706700000000  0.4754630000000 1.0
C      1  0.5126180000000  0.5450010000000  0.5053500000000 1.0
C      1  0.4428490000000  0.5472050000000  0.5154780000000 1.0
C      1  0.5464010000000  0.4475040000000  0.4878290000000 1.0
C      1  0.5590320000000  0.5560480000000  0.4847530000000 1.0
C      1  0.4562030000000  0.4390430000000  0.5085110000000 1.0
C      1  0.4508890000000  0.5163770000000  0.4649260000000 1.0
C      1  0.5343170000000  0.4858690000000  0.5345460000000 1.0
C      1  0.4741280000000  0.5090110000000  0.5114300000000 1.0
C      1  0.5281240000000  0.4947280000000  0.4840700000000 1.0
C      1  0.4056070000000  0.5064590000000  0.4965570000000 1.0
C      1  0.5888150000000  0.4916100000000  0.5081790000000 1.0
C      1  0.5368540000000  0.4448920000000  0.4593090000000 1.0
C      1  0.4552940000000  0.5488770000000  0.5422190000000 1.0
C      1  0.4600790000000  0.5238940000000  0.3981650000000 1.0
C      1  0.5306600000000  0.4692580000000  0.5920960000000 1.0
C      1  0.5364670000000  0.5562280000000  0.5014640000000 1.0
C      1  0.4671860000000  0.4525750000000  0.4865430000000 1.0
C      1  0.4325620000000  0.4675580000000  0.5383440000000 1.0
C      1  0.5821640000000  0.5194780000000  0.4643650000000 1.0
C      1  0.4406400000000  0.4721150000000  0.4434220000000 1.0
C      1  0.5451030000000  0.5298360000000  0.5507100000000 1.0
END
