TITL C-3201377-4638-233 0.000657045756765856 125000 -72.4487698340831 0 0 14 (C2) n - 1
REM
REM in /home/nfs/bkarasulu/CARBON/AIRSS/Generating-Clusters/LCBOP/Higher-Symm/SD-CG/FIRE-CG
REM
REM
REM
REM
REM
REM ./C.cell (b20cbc046b6831c77cfcea5457e17084)
REM AIRSS Version 0.9.1 bugfix July 2018 build 013d7b7c2542+ Fri, 06 Jul 2018 19:26:36 +0100
REM compiler GCC version 9.2.1 20190827 (Red Hat 9.2.1-1)
REM options -cpp -mtune=generic -march=x86-64 -g -O0 -fpre-include=/usr/include/finclude/math-vector-fortran.h
REM seed 331370633 -1757795534 514511339 445584407 2093240423 1652419164 -1587374773 -1806740072 1592198004 -840323775 259040491 843780064 449672585 1148264023 3766254 1494809414 305487913 2005774335 -944077351 -1910540766 327777707 2116734957 1954549498 -1924492865 -586494946 -606676983 -2068011201 1056542863 5374860 850384678 -2109482457 286569401 1378943686
REM
CELL 1.54180   50.00000   50.00000   50.00000   90.00000   90.00000   90.00000
LATT -1
SFAC C  
C      1  0.5278730000000  0.5061280000000  0.5098440000000 1.0
C      1  0.5102590000000  0.4978680000000  0.5306130000000 1.0
C      1  0.4823590000000  0.5021710000000  0.5270380000000 1.0
C      1  0.4705440000000  0.4938810000000  0.5025110000000 1.0
C      1  0.4789080000000  0.5067610000000  0.4785510000000 1.0
C      1  0.5041880000000  0.4999780000000  0.4672960000000 1.0
C      1  0.5258150000000  0.4932140000000  0.4845660000000 1.0
C      1  0.5198650000000  0.4854640000000  0.5530200000000 1.0
C      1  0.4674190000000  0.5146030000000  0.5462850000000 1.0
C      1  0.4520720000000  0.4737210000000  0.5018910000000 1.0
C      1  0.4630820000000  0.5258830000000  0.4669950000000 1.0
C      1  0.5076670000000  0.4999590000000  0.4401230000000 1.0
C      1  0.5440390000000  0.4740790000000  0.4773960000000 1.0
C      1  0.5459100000000  0.5262900000000  0.5138710000000 1.0
END
