TITL C-3201372-1405-1429 14237.8936359613 125000 -681.669374284158 0 0 116 (C1) n - 1
REM
REM in /home/nfs/bkarasulu/CARBON/AIRSS/Generating-Clusters/LCBOP/Higher-Symm/SD-CG/FIRE-CG
REM
REM
REM
REM
REM
REM ./C.cell (b20cbc046b6831c77cfcea5457e17084)
REM AIRSS Version 0.9.1 bugfix July 2018 build 013d7b7c2542+ Fri, 06 Jul 2018 19:26:36 +0100
REM compiler GCC version 9.2.1 20190827 (Red Hat 9.2.1-1)
REM options -cpp -mtune=generic -march=x86-64 -g -O0 -fpre-include=/usr/include/finclude/math-vector-fortran.h
REM seed 290073856 1489539366 230569360 1775599741 1625602227 1825935899 360709990 815966459 1154490800 412175155 -2131709543 1970682614 -840287687 1479340547 1295405880 -1770054892 1356233388 -1623110544 1818515010 -1360017579 1636257558 -1830254883 -1451676834 1191320767 1291004704 310546073 17001490 1944651058 743168145 -1220291556 -1049566685 -1071668407 -2048105154
REM
CELL 1.54180   50.00000   50.00000   50.00000   90.00000   90.00000   90.00000
LATT -1
SFAC C  
C      1  0.5883750000000  0.5627180000000  0.5195800000000 1.0
C      1  0.3898310000000  0.5491810000000  0.5579480000000 1.0
C      1  0.5124690000000  0.3949290000000  0.5156930000000 1.0
C      1  0.5695990000000  0.5562690000000  0.4714760000000 1.0
C      1  0.4068800000000  0.5478560000000  0.4626710000000 1.0
C      1  0.5095560000000  0.4106480000000  0.4702130000000 1.0
C      1  0.4374750000000  0.4987280000000  0.5776870000000 1.0
C      1  0.5318860000000  0.4437370000000  0.5677830000000 1.0
C      1  0.5348490000000  0.5580700000000  0.5716620000000 1.0
C      1  0.4376950000000  0.5587730000000  0.5598240000000 1.0
C      1  0.4782650000000  0.4147750000000  0.5498590000000 1.0
C      1  0.5884300000000  0.5254340000000  0.5565940000000 1.0
C      1  0.4612090000000  0.5138320000000  0.5756370000000 1.0
C      1  0.5072400000000  0.4596610000000  0.5677390000000 1.0
C      1  0.5339360000000  0.5297780000000  0.5735360000000 1.0
C      1  0.5762250000000  0.4752810000000  0.5731550000000 1.0
C      1  0.4846100000000  0.5756750000000  0.5727430000000 1.0
C      1  0.4463520000000  0.4465070000000  0.5751730000000 1.0
C      1  0.4912780000000  0.4596670000000  0.5432900000000 1.0
C      1  0.5440000000000  0.5158950000000  0.5507900000000 1.0
C      1  0.4655080000000  0.5265920000000  0.5501890000000 1.0
C      1  0.4929170000000  0.4446960000000  0.5178240000000 1.0
C      1  0.5532270000000  0.5228190000000  0.5238000000000 1.0
C      1  0.4454410000000  0.5350350000000  0.5206850000000 1.0
C      1  0.4516960000000  0.4429770000000  0.4335290000000 1.0
C      1  0.5690630000000  0.4746190000000  0.4378560000000 1.0
C      1  0.4781730000000  0.5692250000000  0.4306740000000 1.0
C      1  0.5177910000000  0.5150870000000  0.5906770000000 1.0
C      1  0.4828550000000  0.5088360000000  0.5918920000000 1.0
C      1  0.5039050000000  0.4801520000000  0.5864120000000 1.0
C      1  0.4105270000000  0.5044960000000  0.4068480000000 1.0
C      1  0.5360060000000  0.4174230000000  0.4013950000000 1.0
C      1  0.5573850000000  0.5685160000000  0.4486000000000 1.0
C      1  0.4764780000000  0.5122600000000  0.4348570000000 1.0
C      1  0.5047390000000  0.4738000000000  0.4336470000000 1.0
C      1  0.5217290000000  0.5156290000000  0.4383480000000 1.0
C      1  0.4972630000000  0.5280040000000  0.4461140000000 1.0
C      1  0.4797640000000  0.4851730000000  0.4394910000000 1.0
C      1  0.5250120000000  0.4883030000000  0.4466470000000 1.0
C      1  0.3970110000000  0.4998280000000  0.4702850000000 1.0
C      1  0.5499220000000  0.4217620000000  0.4966520000000 1.0
C      1  0.5471690000000  0.5832660000000  0.5044440000000 1.0
C      1  0.5609860000000  0.4431760000000  0.4783470000000 1.0
C      1  0.5249910000000  0.5813950000000  0.4861870000000 1.0
C      1  0.4173680000000  0.4828010000000  0.4726620000000 1.0
C      1  0.5317220000000  0.4226220000000  0.5480720000000 1.0
C      1  0.5549390000000  0.5678670000000  0.5536450000000 1.0
C      1  0.4174720000000  0.5089000000000  0.5596000000000 1.0
C      1  0.4534010000000  0.4885660000000  0.5193190000000 1.0
C      1  0.5446420000000  0.4702590000000  0.5339510000000 1.0
C      1  0.5070910000000  0.5374670000000  0.5227600000000 1.0
C      1  0.4342450000000  0.5547870000000  0.4666460000000 1.0
C      1  0.4865740000000  0.4298060000000  0.4700350000000 1.0
C      1  0.5673890000000  0.5260580000000  0.4747740000000 1.0
C      1  0.5651310000000  0.4724520000000  0.5153880000000 1.0
C      1  0.4953700000000  0.5617060000000  0.5137010000000 1.0
C      1  0.4306290000000  0.4716380000000  0.5261410000000 1.0
C      1  0.5306810000000  0.4407650000000  0.4145720000000 1.0
C      1  0.5380280000000  0.5570940000000  0.4309000000000 1.0
C      1  0.4340710000000  0.4988910000000  0.4200920000000 1.0
C      1  0.5718500000000  0.5703390000000  0.4966180000000 1.0
C      1  0.3921410000000  0.5256830000000  0.4655660000000 1.0
C      1  0.5261980000000  0.4050580000000  0.4920610000000 1.0
C      1  0.5516130000000  0.4227370000000  0.5262980000000 1.0
C      1  0.5453840000000  0.5856000000000  0.5328240000000 1.0
C      1  0.4110500000000  0.4883470000000  0.5398290000000 1.0
C      1  0.4637300000000  0.5721450000000  0.5536760000000 1.0
C      1  0.4532490000000  0.4319840000000  0.5514300000000 1.0
C      1  0.5875960000000  0.4947120000000  0.5546250000000 1.0
C      1  0.5693850000000  0.5100180000000  0.4431400000000 1.0
C      1  0.4513500000000  0.5494820000000  0.4422610000000 1.0
C      1  0.4803490000000  0.4334660000000  0.4384750000000 1.0
C      1  0.4388020000000  0.4424840000000  0.5272370000000 1.0
C      1  0.5891250000000  0.4847890000000  0.5266040000000 1.0
C      1  0.4727700000000  0.5756690000000  0.5259100000000 1.0
C      1  0.4423800000000  0.4695280000000  0.4219520000000 1.0
C      1  0.5512200000000  0.4612870000000  0.4182020000000 1.0
C      1  0.5087950000000  0.5656730000000  0.4281570000000 1.0
C      1  0.4914200000000  0.4591170000000  0.4751400000000 1.0
C      1  0.5403610000000  0.5151690000000  0.4807340000000 1.0
C      1  0.4727850000000  0.5230490000000  0.4858220000000 1.0
C      1  0.4403160000000  0.5599680000000  0.4949600000000 1.0
C      1  0.4749120000000  0.4260250000000  0.4999000000000 1.0
C      1  0.5777770000000  0.5226120000000  0.5033630000000 1.0
C      1  0.5359750000000  0.4892010000000  0.5503230000000 1.0
C      1  0.4923050000000  0.5267070000000  0.5433110000000 1.0
C      1  0.4748660000000  0.4819340000000  0.5367440000000 1.0
C      1  0.4524880000000  0.5819360000000  0.5069520000000 1.0
C      1  0.4462270000000  0.4289100000000  0.5027560000000 1.0
C      1  0.5986370000000  0.5049000000000  0.5092950000000 1.0
C      1  0.4893520000000  0.5430320000000  0.4704780000000 1.0
C      1  0.4701510000000  0.4744780000000  0.4637900000000 1.0
C      1  0.5394630000000  0.4872350000000  0.4716180000000 1.0
C      1  0.4433440000000  0.4768210000000  0.4717990000000 1.0
C      1  0.5551190000000  0.4693240000000  0.4886670000000 1.0
C      1  0.5014970000000  0.5648640000000  0.4856840000000 1.0
C      1  0.5568660000000  0.4559870000000  0.5770090000000 1.0
C      1  0.5109160000000  0.5721590000000  0.5775340000000 1.0
C      1  0.4391300000000  0.4710460000000  0.5839360000000 1.0
C      1  0.5799460000000  0.5529160000000  0.5462350000000 1.0
C      1  0.4154850000000  0.5387310000000  0.5591330000000 1.0
C      1  0.5064120000000  0.4080510000000  0.5411250000000 1.0
C      1  0.4597550000000  0.6177850000000  0.4154790000000 1.0
C      1  0.4314140000000  0.4256210000000  0.4787970000000 1.0
C      1  0.6010600000000  0.4371950000000  0.4494150000000 1.0
C      1  0.5444990000000  0.5284680000000  0.4285340000000 1.0
C      1  0.4502280000000  0.5216930000000  0.4303810000000 1.0
C      1  0.5046680000000  0.4465010000000  0.4258130000000 1.0
C      1  0.5779610000000  0.4506860000000  0.4552190000000 1.0
C      1  0.4688620000000  0.5942640000000  0.4220280000000 1.0
C      1  0.4334360000000  0.4302710000000  0.4521240000000 1.0
C      1  0.4528440000000  0.5140330000000  0.5049690000000 1.0
C      1  0.5058050000000  0.4636680000000  0.4998240000000 1.0
C      1  0.5276110000000  0.5178210000000  0.5077750000000 1.0
C      1  0.4908340000000  0.5024020000000  0.4873810000000 1.0
C      1  0.5097490000000  0.4918850000000  0.5049060000000 1.0
END
