TITL C-3201376-6384-805 0.0965718373083202 125000 -560.5233255921 0 0 92 (C1) n - 1
REM
REM in /home/nfs/bkarasulu/CARBON/AIRSS/Generating-Clusters/LCBOP/Higher-Symm/SD-CG/FIRE-CG
REM
REM
REM
REM
REM
REM ./C.cell (b20cbc046b6831c77cfcea5457e17084)
REM AIRSS Version 0.9.1 bugfix July 2018 build 013d7b7c2542+ Fri, 06 Jul 2018 19:26:36 +0100
REM compiler GCC version 9.2.1 20190827 (Red Hat 9.2.1-1)
REM options -cpp -mtune=generic -march=x86-64 -g -O0 -fpre-include=/usr/include/finclude/math-vector-fortran.h
REM seed -1324895080 515846086 245422100 -1700830503 755598354 -93255665 1878893981 1798875589 1248156541 478371371 -1084345756 -1883630411 1125497902 230310947 129587321 -423048125 -1620116044 -2030131747 -1690575108 2138892259 1445228893 -1371557821 -463198530 -1600443198 1536431785 491296651 967400261 1643897788 595065097 -1126505761 1667988685 24396864 1757993341
REM
CELL 1.54180   50.00000   50.00000   50.00000   90.00000   90.00000   90.00000
LATT -1
SFAC C  
C      1  0.5260960000000  0.4834040000000  0.6492290000000 1.0
C      1  0.5406790000000  0.6255740000000  0.4292060000000 1.0
C      1  0.5160820000000  0.3847030000000  0.4102210000000 1.0
C      1  0.4854570000000  0.5046410000000  0.5730860000000 1.0
C      1  0.4640090000000  0.5701220000000  0.4471140000000 1.0
C      1  0.4541800000000  0.4360210000000  0.4589010000000 1.0
C      1  0.5873890000000  0.4836260000000  0.6067730000000 1.0
C      1  0.5530730000000  0.5905120000000  0.4933560000000 1.0
C      1  0.5495440000000  0.4410010000000  0.4423720000000 1.0
C      1  0.5180430000000  0.5366950000000  0.4900690000000 1.0
C      1  0.5034530000000  0.4893410000000  0.4430010000000 1.0
C      1  0.5223910000000  0.4718400000000  0.5160190000000 1.0
C      1  0.4390980000000  0.4597820000000  0.4665150000000 1.0
C      1  0.4568650000000  0.5027950000000  0.5764700000000 1.0
C      1  0.4496420000000  0.5555860000000  0.4678770000000 1.0
C      1  0.4635700000000  0.5090780000000  0.3995420000000 1.0
C      1  0.4876910000000  0.4209140000000  0.5277400000000 1.0
C      1  0.4847170000000  0.5739230000000  0.5371850000000 1.0
C      1  0.5218720000000  0.3613330000000  0.3991630000000 1.0
C      1  0.5163550000000  0.4837450000000  0.6738660000000 1.0
C      1  0.5524110000000  0.6393360000000  0.4098430000000 1.0
C      1  0.6080760000000  0.4939340000000  0.5360750000000 1.0
C      1  0.5769150000000  0.5268740000000  0.5203890000000 1.0
C      1  0.5880380000000  0.4892200000000  0.4917930000000 1.0
C      1  0.5106440000000  0.5137960000000  0.4347410000000 1.0
C      1  0.5158850000000  0.4580440000000  0.4926310000000 1.0
C      1  0.5290860000000  0.5329710000000  0.5157710000000 1.0
C      1  0.4582010000000  0.4575330000000  0.4128660000000 1.0
C      1  0.4976040000000  0.4551100000000  0.5671620000000 1.0
C      1  0.4774360000000  0.5945150000000  0.4883760000000 1.0
C      1  0.4673510000000  0.5346250000000  0.4081800000000 1.0
C      1  0.4685890000000  0.4272690000000  0.5071120000000 1.0
C      1  0.4895980000000  0.5533840000000  0.5541180000000 1.0
C      1  0.4331940000000  0.5012930000000  0.5604670000000 1.0
C      1  0.4230290000000  0.5495530000000  0.4770310000000 1.0
C      1  0.4180900000000  0.4631460000000  0.4857950000000 1.0
C      1  0.5046050000000  0.4922140000000  0.5244420000000 1.0
C      1  0.4976780000000  0.5407500000000  0.4716320000000 1.0
C      1  0.4851700000000  0.4759040000000  0.4594520000000 1.0
C      1  0.5639560000000  0.6528770000000  0.3907900000000 1.0
C      1  0.5275800000000  0.3383400000000  0.3882830000000 1.0
C      1  0.5067570000000  0.4840810000000  0.6981020000000 1.0
C      1  0.5429860000000  0.6031750000000  0.4722340000000 1.0
C      1  0.5307210000000  0.4256940000000  0.4314910000000 1.0
C      1  0.5637400000000  0.4832380000000  0.6187750000000 1.0
C      1  0.5100310000000  0.4093360000000  0.4219040000000 1.0
C      1  0.5361350000000  0.4830450000000  0.6231780000000 1.0
C      1  0.5283410000000  0.6110500000000  0.4495830000000 1.0
C      1  0.4997080000000  0.5381510000000  0.4434180000000 1.0
C      1  0.4942970000000  0.4540000000000  0.4756630000000 1.0
C      1  0.5142410000000  0.5171250000000  0.5344150000000 1.0
C      1  0.4778940000000  0.5509870000000  0.4291510000000 1.0
C      1  0.4750140000000  0.4327100000000  0.4794920000000 1.0
C      1  0.4982200000000  0.5263370000000  0.5569550000000 1.0
C      1  0.4606310000000  0.4821540000000  0.4016980000000 1.0
C      1  0.4957500000000  0.4337780000000  0.5504750000000 1.0
C      1  0.4808260000000  0.5877200000000  0.5143010000000 1.0
C      1  0.5605460000000  0.4388240000000  0.5689570000000 1.0
C      1  0.5442750000000  0.4634180000000  0.5311420000000 1.0
C      1  0.5816030000000  0.4337210000000  0.5266750000000 1.0
C      1  0.4353770000000  0.5177620000000  0.5374750000000 1.0
C      1  0.4092900000000  0.5288110000000  0.4627550000000 1.0
C      1  0.4226980000000  0.4531040000000  0.5123680000000 1.0
C      1  0.5655670000000  0.4573490000000  0.4559270000000 1.0
C      1  0.6048870000000  0.4848290000000  0.5868460000000 1.0
C      1  0.5581230000000  0.5709140000000  0.5107100000000 1.0
C      1  0.5785100000000  0.4738460000000  0.4722960000000 1.0
C      1  0.6124470000000  0.4879640000000  0.5615830000000 1.0
C      1  0.5550620000000  0.5441060000000  0.5186620000000 1.0
C      1  0.4093030000000  0.4630140000000  0.5356060000000 1.0
C      1  0.4186960000000  0.5379450000000  0.5272110000000 1.0
C      1  0.3939260000000  0.5089560000000  0.4758500000000 1.0
C      1  0.4760470000000  0.4900610000000  0.5251110000000 1.0
C      1  0.4713000000000  0.5427430000000  0.4818550000000 1.0
C      1  0.4567840000000  0.4816720000000  0.4588910000000 1.0
C      1  0.5011960000000  0.6041480000000  0.4476110000000 1.0
C      1  0.4833220000000  0.4175850000000  0.4240150000000 1.0
C      1  0.5185980000000  0.4824890000000  0.6014160000000 1.0
C      1  0.4592390000000  0.5126910000000  0.5229640000000 1.0
C      1  0.4240620000000  0.5185890000000  0.4411410000000 1.0
C      1  0.4496040000000  0.4458630000000  0.5176800000000 1.0
C      1  0.5004880000000  0.4805870000000  0.5800880000000 1.0
C      1  0.4790230000000  0.5919880000000  0.4596540000000 1.0
C      1  0.4627350000000  0.4354830000000  0.4308760000000 1.0
C      1  0.4450710000000  0.5024830000000  0.4447700000000 1.0
C      1  0.4632490000000  0.4663910000000  0.5308980000000 1.0
C      1  0.4671920000000  0.5329150000000  0.5067210000000 1.0
C      1  0.4161370000000  0.5521280000000  0.5044100000000 1.0
C      1  0.3985090000000  0.4831270000000  0.4819240000000 1.0
C      1  0.4156900000000  0.4792460000000  0.5564890000000 1.0
C      1  0.5917700000000  0.5036340000000  0.5155310000000 1.0
C      1  0.5624790000000  0.4453620000000  0.5424510000000 1.0
END
