TITL C-3201379-3821-1630 0.169593141302187 125000 -120.055129831814 0 0 22 (C2) n - 1
REM
REM in /home/nfs/bkarasulu/CARBON/AIRSS/Generating-Clusters/LCBOP/Higher-Symm/SD-CG/FIRE-CG
REM
REM
REM
REM
REM
REM ./C.cell (b20cbc046b6831c77cfcea5457e17084)
REM AIRSS Version 0.9.1 bugfix July 2018 build 013d7b7c2542+ Fri, 06 Jul 2018 19:26:36 +0100
REM compiler GCC version 9.2.1 20190827 (Red Hat 9.2.1-1)
REM options -cpp -mtune=generic -march=x86-64 -g -O0 -fpre-include=/usr/include/finclude/math-vector-fortran.h
REM seed -2087394157 761907111 1116337371 -453680574 -1511320114 -46672316 152735496 584837566 -1704314730 -1051636100 -1111516272 -1423675247 -27721604 -1547379345 -1964177871 -388665800 243102224 -1454716951 -928413733 -1787320793 -1200433800 -1199882908 -1144035078 998752733 1951358291 1602780739 -686656309 -1249226146 -1121627503 -1322306924 961284063 1060852580 -580968523
REM
CELL 1.54180   50.00000   50.00000   50.00000   90.00000   90.00000   90.00000
LATT -1
SFAC C  
C      1  0.5033280000000  0.5106930000000  0.4346330000000 1.0
C      1  0.5033120000000  0.4893260000000  0.5653710000000 1.0
C      1  0.5033750000000  0.5063850000000  0.4607680000000 1.0
C      1  0.5033650000000  0.4936340000000  0.5392360000000 1.0
C      1  0.4829300000000  0.5499060000000  0.3456240000000 1.0
C      1  0.4830350000000  0.4499960000000  0.6543560000000 1.0
C      1  0.5221400000000  0.4966200000000  0.6628250000000 1.0
C      1  0.5223130000000  0.5035080000000  0.3372010000000 1.0
C      1  0.5119300000000  0.4879080000000  0.6392910000000 1.0
C      1  0.5120260000000  0.5121610000000  0.3607240000000 1.0
C      1  0.5033730000000  0.5021350000000  0.4869240000000 1.0
C      1  0.5033690000000  0.4978850000000  0.5130800000000 1.0
C      1  0.4934010000000  0.5340440000000  0.3650700000000 1.0
C      1  0.4934370000000  0.4659180000000  0.6349220000000 1.0
C      1  0.4712920000000  0.5543550000000  0.4050790000000 1.0
C      1  0.4714930000000  0.4454810000000  0.5948870000000 1.0
C      1  0.5171510000000  0.4985740000000  0.6130540000000 1.0
C      1  0.5172760000000  0.5015260000000  0.3869670000000 1.0
C      1  0.5028440000000  0.4843480000000  0.5925100000000 1.0
C      1  0.5028640000000  0.5156680000000  0.4074940000000 1.0
C      1  0.4878320000000  0.5361850000000  0.3934430000000 1.0
C      1  0.4879150000000  0.4637450000000  0.6065420000000 1.0
END
