TITL C-3201379-3821-609 -205.286318406541 125000 -1152.04743284097 0 0 185 (C1) n - 1
REM
REM in /home/nfs/bkarasulu/CARBON/AIRSS/Generating-Clusters/LCBOP/Higher-Symm/SD-CG/FIRE-CG
REM
REM
REM
REM
REM
REM ./C.cell (b20cbc046b6831c77cfcea5457e17084)
REM AIRSS Version 0.9.1 bugfix July 2018 build 013d7b7c2542+ Fri, 06 Jul 2018 19:26:36 +0100
REM compiler GCC version 9.2.1 20190827 (Red Hat 9.2.1-1)
REM options -cpp -mtune=generic -march=x86-64 -g -O0 -fpre-include=/usr/include/finclude/math-vector-fortran.h
REM seed 1601288814 833982560 -767655655 964629803 -561816175 1027048744 1976610191 -1089088415 -1466214163 2002242755 -1855533365 787708634 -1024561264 -589862049 133711092 -1339563490 1633641961 -239711504 148908446 1978191809 -1451235361 -16588689 -1120246953 -857626428 -108235279 1903001037 -1460276967 87646557 -1180587910 1222011381 -378229751 668459799 226008165
REM
CELL 1.54180   50.00000   50.00000   50.00000   90.00000   90.00000   90.00000
LATT -1
SFAC C  
C      1  0.4695390000000  0.5868690000000  0.5010620000000 1.0
C      1  0.5380740000000  0.5790450000000  0.4993680000000 1.0
C      1  0.5725290000000  0.4930190000000  0.4926350000000 1.0
C      1  0.4157720000000  0.4745810000000  0.4855570000000 1.0
C      1  0.4915870000000  0.5061500000000  0.4292970000000 1.0
C      1  0.5200280000000  0.5052890000000  0.4283210000000 1.0
C      1  0.6145480000000  0.4418720000000  0.4875130000000 1.0
C      1  0.3969560000000  0.4536240000000  0.4810480000000 1.0
C      1  0.5385760000000  0.4369380000000  0.5776640000000 1.0
C      1  0.4532060000000  0.4348350000000  0.5782860000000 1.0
C      1  0.6046610000000  0.4789130000000  0.5572420000000 1.0
C      1  0.3922330000000  0.4807840000000  0.5507070000000 1.0
C      1  0.5647460000000  0.5291380000000  0.4638590000000 1.0
C      1  0.4479420000000  0.5307980000000  0.4660750000000 1.0
C      1  0.4725370000000  0.5622880000000  0.5162150000000 1.0
C      1  0.5344930000000  0.5547800000000  0.5133020000000 1.0
C      1  0.6023370000000  0.5229080000000  0.4415250000000 1.0
C      1  0.4101650000000  0.5245720000000  0.4434190000000 1.0
C      1  0.5188190000000  0.5366920000000  0.4671460000000 1.0
C      1  0.4920300000000  0.5431280000000  0.4764670000000 1.0
C      1  0.5846450000000  0.5898320000000  0.5060390000000 1.0
C      1  0.4220520000000  0.5937310000000  0.5069200000000 1.0
C      1  0.5259720000000  0.3779820000000  0.4919170000000 1.0
C      1  0.4762160000000  0.3774440000000  0.4891730000000 1.0
C      1  0.4757350000000  0.5948720000000  0.4726990000000 1.0
C      1  0.5309000000000  0.5839570000000  0.4730130000000 1.0
C      1  0.6156750000000  0.5270110000000  0.4687980000000 1.0
C      1  0.3948200000000  0.5295400000000  0.4693510000000 1.0
C      1  0.5563670000000  0.5980540000000  0.5092320000000 1.0
C      1  0.4494980000000  0.6040510000000  0.5112700000000 1.0
C      1  0.5496920000000  0.4818870000000  0.5288230000000 1.0
C      1  0.4412150000000  0.4888460000000  0.5216230000000 1.0
C      1  0.5761540000000  0.4856260000000  0.5194650000000 1.0
C      1  0.4157740000000  0.4882390000000  0.5101300000000 1.0
C      1  0.4298990000000  0.5530140000000  0.5581110000000 1.0
C      1  0.5743770000000  0.5485630000000  0.5566480000000 1.0
C      1  0.4701870000000  0.4200810000000  0.4238040000000 1.0
C      1  0.5372250000000  0.4170590000000  0.4234230000000 1.0
C      1  0.6003840000000  0.5707750000000  0.4344920000000 1.0
C      1  0.4113000000000  0.5716530000000  0.4348150000000 1.0
C      1  0.4135000000000  0.5892280000000  0.5346980000000 1.0
C      1  0.5919810000000  0.5850000000000  0.5340580000000 1.0
C      1  0.4405270000000  0.4730170000000  0.4721020000000 1.0
C      1  0.5601460000000  0.4740290000000  0.4760770000000 1.0
C      1  0.6100690000000  0.5411360000000  0.5190240000000 1.0
C      1  0.3946700000000  0.5461200000000  0.5193890000000 1.0
C      1  0.4626370000000  0.4897480000000  0.5812340000000 1.0
C      1  0.5349380000000  0.4893490000000  0.5848510000000 1.0
C      1  0.4443620000000  0.5275020000000  0.4934810000000 1.0
C      1  0.5658140000000  0.5205370000000  0.4904070000000 1.0
C      1  0.4130780000000  0.4372020000000  0.5520460000000 1.0
C      1  0.5826340000000  0.4363510000000  0.5589150000000 1.0
C      1  0.4138620000000  0.5757910000000  0.4848730000000 1.0
C      1  0.5950590000000  0.5732590000000  0.4842230000000 1.0
C      1  0.3712510000000  0.5149620000000  0.4716590000000 1.0
C      1  0.6375540000000  0.5107190000000  0.4737120000000 1.0
C      1  0.5544660000000  0.4712770000000  0.4160510000000 1.0
C      1  0.4556640000000  0.4741420000000  0.4148390000000 1.0
C      1  0.5145510000000  0.5733340000000  0.3808390000000 1.0
C      1  0.4874730000000  0.5754880000000  0.3832110000000 1.0
C      1  0.4503840000000  0.5422920000000  0.5162870000000 1.0
C      1  0.5561010000000  0.5345590000000  0.5136510000000 1.0
C      1  0.4347630000000  0.5990560000000  0.5536230000000 1.0
C      1  0.5699520000000  0.5947470000000  0.5520500000000 1.0
C      1  0.4757880000000  0.5735230000000  0.4077460000000 1.0
C      1  0.5297860000000  0.5691860000000  0.4030440000000 1.0
C      1  0.5597060000000  0.5722350000000  0.5686740000000 1.0
C      1  0.4443240000000  0.5764940000000  0.5704910000000 1.0
C      1  0.4366300000000  0.4814700000000  0.5699000000000 1.0
C      1  0.5612080000000  0.4805350000000  0.5766210000000 1.0
C      1  0.5189770000000  0.5667340000000  0.4290510000000 1.0
C      1  0.4903020000000  0.5692070000000  0.4317800000000 1.0
C      1  0.4387190000000  0.5145540000000  0.4442400000000 1.0
C      1  0.5737980000000  0.5128870000000  0.4418500000000 1.0
C      1  0.4608870000000  0.4299330000000  0.4681530000000 1.0
C      1  0.5469560000000  0.4286660000000  0.4652140000000 1.0
C      1  0.4344500000000  0.4555180000000  0.4200210000000 1.0
C      1  0.5737300000000  0.4518840000000  0.4242050000000 1.0
C      1  0.5327200000000  0.4600440000000  0.4007870000000 1.0
C      1  0.4777050000000  0.4621360000000  0.4005080000000 1.0
C      1  0.4718100000000  0.4379440000000  0.5569330000000 1.0
C      1  0.5216250000000  0.4411990000000  0.5548790000000 1.0
C      1  0.5503770000000  0.4979670000000  0.4278640000000 1.0
C      1  0.4610910000000  0.4997400000000  0.4288460000000 1.0
C      1  0.5162370000000  0.5078820000000  0.5706780000000 1.0
C      1  0.4848180000000  0.5085760000000  0.5701420000000 1.0
C      1  0.4139070000000  0.4653970000000  0.5604900000000 1.0
C      1  0.5834100000000  0.4640040000000  0.5681710000000 1.0
C      1  0.4228020000000  0.6476900000000  0.4369090000000 1.0
C      1  0.4385960000000  0.6297040000000  0.4482830000000 1.0
C      1  0.4321450000000  0.4194450000000  0.5652460000000 1.0
C      1  0.5606810000000  0.4203190000000  0.5692170000000 1.0
C      1  0.5318940000000  0.4251950000000  0.5082240000000 1.0
C      1  0.4587700000000  0.4215520000000  0.4948100000000 1.0
C      1  0.5262550000000  0.5108780000000  0.4788480000000 1.0
C      1  0.4881480000000  0.5212480000000  0.4978790000000 1.0
C      1  0.5609870000000  0.5556310000000  0.4560040000000 1.0
C      1  0.4502340000000  0.5580630000000  0.4587430000000 1.0
C      1  0.4879550000000  0.3902060000000  0.4651820000000 1.0
C      1  0.5170150000000  0.3899190000000  0.4665440000000 1.0
C      1  0.3939840000000  0.4956990000000  0.5269730000000 1.0
C      1  0.6004470000000  0.4920180000000  0.5329010000000 1.0
C      1  0.4804870000000  0.4612130000000  0.5433190000000 1.0
C      1  0.5085790000000  0.4636300000000  0.5414530000000 1.0
C      1  0.5228260000000  0.6094270000000  0.4657690000000 1.0
C      1  0.4972410000000  0.6150830000000  0.4701800000000 1.0
C      1  0.5576280000000  0.5294070000000  0.5434340000000 1.0
C      1  0.4473930000000  0.5350940000000  0.5446460000000 1.0
C      1  0.6121860000000  0.4406160000000  0.5145550000000 1.0
C      1  0.3876560000000  0.4422600000000  0.5056540000000 1.0
C      1  0.4824850000000  0.4846490000000  0.6259900000000 1.0
C      1  0.5093880000000  0.4844590000000  0.6267710000000 1.0
C      1  0.5231010000000  0.6118620000000  0.5460810000000 1.0
C      1  0.4824100000000  0.6145620000000  0.5479780000000 1.0
C      1  0.5515190000000  0.3947920000000  0.5575370000000 1.0
C      1  0.4427520000000  0.3944730000000  0.5528050000000 1.0
C      1  0.4879880000000  0.5609640000000  0.5974250000000 1.0
C      1  0.5156410000000  0.5597100000000  0.5967480000000 1.0
C      1  0.5128210000000  0.4568900000000  0.4788570000000 1.0
C      1  0.4899660000000  0.4674300000000  0.4666210000000 1.0
C      1  0.5088570000000  0.4290130000000  0.6160320000000 1.0
C      1  0.4818780000000  0.4292950000000  0.6168700000000 1.0
C      1  0.4896120000000  0.5506420000000  0.5371370000000 1.0
C      1  0.5169210000000  0.5470350000000  0.5351390000000 1.0
C      1  0.5297560000000  0.5272350000000  0.5527880000000 1.0
C      1  0.4745780000000  0.5309560000000  0.5539250000000 1.0
C      1  0.4922930000000  0.4749390000000  0.3800150000000 1.0
C      1  0.5193440000000  0.4737880000000  0.3800560000000 1.0
C      1  0.4896310000000  0.4372300000000  0.4110370000000 1.0
C      1  0.5190220000000  0.4359230000000  0.4109830000000 1.0
C      1  0.4882780000000  0.5989500000000  0.5703210000000 1.0
C      1  0.5172100000000  0.5972400000000  0.5691190000000 1.0
C      1  0.5791090000000  0.4087970000000  0.5199330000000 1.0
C      1  0.4141170000000  0.4054520000000  0.5158450000000 1.0
C      1  0.5945220000000  0.4283310000000  0.5333050000000 1.0
C      1  0.4013370000000  0.4282790000000  0.5266300000000 1.0
C      1  0.5267580000000  0.3918130000000  0.5421380000000 1.0
C      1  0.4691380000000  0.3909770000000  0.5397420000000 1.0
C      1  0.5553550000000  0.4128040000000  0.5087660000000 1.0
C      1  0.4371930000000  0.4060580000000  0.5025060000000 1.0
C      1  0.4072990000000  0.5615820000000  0.5403970000000 1.0
C      1  0.5974190000000  0.5572180000000  0.5395880000000 1.0
C      1  0.4070470000000  0.6651680000000  0.4256870000000 1.0
C      1  0.4530850000000  0.6106650000000  0.4596870000000 1.0
C      1  0.5324720000000  0.5611100000000  0.4545250000000 1.0
C      1  0.4786090000000  0.5670200000000  0.4594040000000 1.0
C      1  0.4671080000000  0.4739550000000  0.6050620000000 1.0
C      1  0.5259110000000  0.4736380000000  0.6068970000000 1.0
C      1  0.4555440000000  0.6130610000000  0.5381310000000 1.0
C      1  0.5494920000000  0.6082920000000  0.5355300000000 1.0
C      1  0.4629750000000  0.4452300000000  0.6029050000000 1.0
C      1  0.5278520000000  0.4451630000000  0.6027210000000 1.0
C      1  0.5083860000000  0.4375390000000  0.4995280000000 1.0
C      1  0.4828900000000  0.4289680000000  0.5069430000000 1.0
C      1  0.4212070000000  0.4094570000000  0.4286990000000 1.0
C      1  0.5860600000000  0.4052470000000  0.4297260000000 1.0
C      1  0.4841700000000  0.3777730000000  0.5175290000000 1.0
C      1  0.5145640000000  0.3778930000000  0.5190640000000 1.0
C      1  0.4838780000000  0.4134690000000  0.5498060000000 1.0
C      1  0.5112290000000  0.4149390000000  0.5487790000000 1.0
C      1  0.4264030000000  0.5739430000000  0.4589140000000 1.0
C      1  0.5837120000000  0.5727800000000  0.4576020000000 1.0
C      1  0.3994640000000  0.5509200000000  0.4909000000000 1.0
C      1  0.6090120000000  0.5478770000000  0.4904210000000 1.0
C      1  0.5326810000000  0.4082870000000  0.4509030000000 1.0
C      1  0.4740080000000  0.4112090000000  0.4507770000000 1.0
C      1  0.4098080000000  0.4606670000000  0.4337490000000 1.0
C      1  0.5952410000000  0.4560830000000  0.4427520000000 1.0
C      1  0.4633540000000  0.4582150000000  0.4658410000000 1.0
C      1  0.5400510000000  0.4554640000000  0.4706490000000 1.0
C      1  0.6153750000000  0.5144320000000  0.5258100000000 1.0
C      1  0.3833570000000  0.5213450000000  0.5257350000000 1.0
C      1  0.6072110000000  0.5459890000000  0.4248920000000 1.0
C      1  0.4055430000000  0.5465870000000  0.4253630000000 1.0
C      1  0.4016400000000  0.4163490000000  0.4465730000000 1.0
C      1  0.6039380000000  0.4106440000000  0.4497300000000 1.0
C      1  0.4714270000000  0.5786300000000  0.5817720000000 1.0
C      1  0.5329200000000  0.5758510000000  0.5802820000000 1.0
C      1  0.5213670000000  0.4833860000000  0.5239160000000 1.0
C      1  0.4638500000000  0.4774740000000  0.5286390000000 1.0
C      1  0.5660920000000  0.4234790000000  0.4202620000000 1.0
C      1  0.4419150000000  0.4268370000000  0.4191360000000 1.0
C      1  0.6071090000000  0.4369510000000  0.4606100000000 1.0
C      1  0.3978730000000  0.4436100000000  0.4541000000000 1.0
C      1  0.5106790000000  0.5025690000000  0.5022030000000 1.0
END
