TITL C-3201374-830-170 398405.370706432 125000 -818.414159603903 0 0 139 (C1) n - 1
REM
REM in /home/nfs/bkarasulu/CARBON/AIRSS/Generating-Clusters/LCBOP/Higher-Symm/SD-CG/FIRE-CG
REM
REM
REM
REM
REM
REM ./C.cell (b20cbc046b6831c77cfcea5457e17084)
REM AIRSS Version 0.9.1 bugfix July 2018 build 013d7b7c2542+ Fri, 06 Jul 2018 19:26:36 +0100
REM compiler GCC version 9.2.1 20190827 (Red Hat 9.2.1-1)
REM options -cpp -mtune=generic -march=x86-64 -g -O0 -fpre-include=/usr/include/finclude/math-vector-fortran.h
REM seed -1032765617 -418996439 639098581 -718808994 1760188674 783635942 -1045797147 1788261932 -843628451 -1075334288 -1290689191 -2145724775 -1462760870 -1406972507 -1745998667 1989202558 122208835 1303208007 791772870 -1177276311 1616293181 1533666496 1147004081 1536014643 1511931592 1940986297 -313212307 1108927045 470230635 1468700664 1336093774 1551384566 -1915032911
REM
CELL 1.54180   50.00000   50.00000   50.00000   90.00000   90.00000   90.00000
LATT -1
SFAC C  
C      1  0.5002100000000  0.4498300000000  0.5013440000000 1.0
C      1  0.4988840000000  0.5518420000000  0.4986610000000 1.0
C      1  0.3993770000000  0.4617320000000  0.4751530000000 1.0
C      1  0.3901450000000  0.5490440000000  0.4797350000000 1.0
C      1  0.5447370000000  0.4783730000000  0.5825020000000 1.0
C      1  0.5451670000000  0.5242340000000  0.5812020000000 1.0
C      1  0.4654580000000  0.5880070000000  0.5240800000000 1.0
C      1  0.4616890000000  0.4187900000000  0.5284560000000 1.0
C      1  0.4854810000000  0.4061660000000  0.4848280000000 1.0
C      1  0.4832460000000  0.5968550000000  0.4763810000000 1.0
C      1  0.5851990000000  0.5478150000000  0.4570760000000 1.0
C      1  0.5844160000000  0.4510360000000  0.4589920000000 1.0
C      1  0.5683680000000  0.4144590000000  0.5273840000000 1.0
C      1  0.5659160000000  0.5859620000000  0.5237310000000 1.0
C      1  0.4767320000000  0.5382990000000  0.5491310000000 1.0
C      1  0.4804540000000  0.4644000000000  0.5531080000000 1.0
C      1  0.3571590000000  0.5224750000000  0.5076900000000 1.0
C      1  0.3641680000000  0.4716440000000  0.5084690000000 1.0
C      1  0.5282670000000  0.5250860000000  0.4323450000000 1.0
C      1  0.5300300000000  0.4727230000000  0.4304820000000 1.0
C      1  0.4233070000000  0.4503110000000  0.4636840000000 1.0
C      1  0.4170620000000  0.5506610000000  0.4711940000000 1.0
C      1  0.5388280000000  0.5577390000000  0.4667640000000 1.0
C      1  0.5377760000000  0.4427580000000  0.4706160000000 1.0
C      1  0.4567350000000  0.5321960000000  0.5305990000000 1.0
C      1  0.4760900000000  0.4830740000000  0.5319800000000 1.0
C      1  0.6079310000000  0.5295730000000  0.4584790000000 1.0
C      1  0.6074810000000  0.4690510000000  0.4600640000000 1.0
C      1  0.5856550000000  0.4331850000000  0.5099240000000 1.0
C      1  0.5854330000000  0.5683280000000  0.5072980000000 1.0
C      1  0.4757920000000  0.4579390000000  0.4935700000000 1.0
C      1  0.4781470000000  0.5390310000000  0.4842800000000 1.0
C      1  0.5405930000000  0.5719940000000  0.5659080000000 1.0
C      1  0.5690860000000  0.4123010000000  0.5776240000000 1.0
C      1  0.4761670000000  0.4565800000000  0.5994860000000 1.0
C      1  0.4862830000000  0.5499200000000  0.5961490000000 1.0
C      1  0.5219440000000  0.5297630000000  0.5663940000000 1.0
C      1  0.5231780000000  0.4702340000000  0.5684570000000 1.0
C      1  0.4860030000000  0.5854240000000  0.4519980000000 1.0
C      1  0.4855690000000  0.4170690000000  0.4596360000000 1.0
C      1  0.5133860000000  0.4218090000000  0.5523680000000 1.0
C      1  0.5112600000000  0.5928870000000  0.5417780000000 1.0
C      1  0.5439420000000  0.4706640000000  0.4783340000000 1.0
C      1  0.5432400000000  0.5309060000000  0.4767540000000 1.0
C      1  0.4876560000000  0.5972580000000  0.5046900000000 1.0
C      1  0.4874900000000  0.4077820000000  0.5141930000000 1.0
C      1  0.4624870000000  0.4774180000000  0.5085860000000 1.0
C      1  0.4601750000000  0.5259260000000  0.5023860000000 1.0
C      1  0.4281040000000  0.5327860000000  0.4521610000000 1.0
C      1  0.4331050000000  0.4661650000000  0.4409540000000 1.0
C      1  0.5775630000000  0.4585640000000  0.5217610000000 1.0
C      1  0.5790230000000  0.5427480000000  0.5192540000000 1.0
C      1  0.4803080000000  0.4767540000000  0.4379210000000 1.0
C      1  0.4786490000000  0.5281900000000  0.4534120000000 1.0
C      1  0.5633720000000  0.4691780000000  0.4388190000000 1.0
C      1  0.5631130000000  0.5289580000000  0.4382480000000 1.0
C      1  0.5153300000000  0.5488580000000  0.5217760000000 1.0
C      1  0.5164660000000  0.4565870000000  0.5232300000000 1.0
C      1  0.5098360000000  0.5591260000000  0.5519950000000 1.0
C      1  0.5080410000000  0.4511880000000  0.5519130000000 1.0
C      1  0.5017670000000  0.5389480000000  0.4365490000000 1.0
C      1  0.5024770000000  0.4599960000000  0.4318530000000 1.0
C      1  0.4408420000000  0.5337580000000  0.5794230000000 1.0
C      1  0.4393480000000  0.4814010000000  0.5704150000000 1.0
C      1  0.4398700000000  0.5624550000000  0.5693760000000 1.0
C      1  0.4338290000000  0.4544270000000  0.5585810000000 1.0
C      1  0.5574720000000  0.5270830000000  0.5040740000000 1.0
C      1  0.5579150000000  0.4753640000000  0.5055510000000 1.0
C      1  0.5800110000000  0.5690500000000  0.4788770000000 1.0
C      1  0.5788300000000  0.4311370000000  0.4820560000000 1.0
C      1  0.5699110000000  0.4762790000000  0.5683600000000 1.0
C      1  0.5703370000000  0.5250350000000  0.5665410000000 1.0
C      1  0.4321760000000  0.5689140000000  0.4868160000000 1.0
C      1  0.4351740000000  0.4316050000000  0.4816930000000 1.0
C      1  0.5630470000000  0.5722540000000  0.5498750000000 1.0
C      1  0.5698880000000  0.4259440000000  0.5541790000000 1.0
C      1  0.4996100000000  0.5323420000000  0.6163190000000 1.0
C      1  0.4941240000000  0.4725930000000  0.6177410000000 1.0
C      1  0.4423540000000  0.5803450000000  0.5089030000000 1.0
C      1  0.4418080000000  0.4233970000000  0.5068070000000 1.0
C      1  0.5520720000000  0.5787260000000  0.4804650000000 1.0
C      1  0.5505360000000  0.4225920000000  0.4857530000000 1.0
C      1  0.3710380000000  0.5434010000000  0.4976880000000 1.0
C      1  0.3831430000000  0.4550430000000  0.4975920000000 1.0
C      1  0.5154200000000  0.5980220000000  0.5145700000000 1.0
C      1  0.5151380000000  0.4089550000000  0.5260900000000 1.0
C      1  0.5288200000000  0.4290160000000  0.4476960000000 1.0
C      1  0.5301570000000  0.5712650000000  0.4430700000000 1.0
C      1  0.5738320000000  0.4545000000000  0.5506910000000 1.0
C      1  0.5751470000000  0.5458410000000  0.5478930000000 1.0
C      1  0.5333340000000  0.4785170000000  0.5206410000000 1.0
C      1  0.5327400000000  0.5267400000000  0.5199320000000 1.0
C      1  0.4522080000000  0.5289100000000  0.4374080000000 1.0
C      1  0.4539270000000  0.4786450000000  0.4261510000000 1.0
C      1  0.4536950000000  0.4310000000000  0.5568570000000 1.0
C      1  0.4633260000000  0.5786320000000  0.5583100000000 1.0
C      1  0.4678540000000  0.4318390000000  0.5844570000000 1.0
C      1  0.4886040000000  0.5708740000000  0.5752560000000 1.0
C      1  0.4690170000000  0.4780400000000  0.5785740000000 1.0
C      1  0.4709090000000  0.5290060000000  0.5794950000000 1.0
C      1  0.5428940000000  0.5919880000000  0.5050750000000 1.0
C      1  0.5426150000000  0.4109930000000  0.5122300000000 1.0
C      1  0.5016420000000  0.4326500000000  0.4417420000000 1.0
C      1  0.5029020000000  0.5678970000000  0.4374810000000 1.0
C      1  0.4810650000000  0.5285360000000  0.3173650000000 1.0
C      1  0.5983730000000  0.5003520000000  0.4937860000000 1.0
C      1  0.5192370000000  0.5023820000000  0.5189470000000 1.0
C      1  0.4453380000000  0.4989660000000  0.4977050000000 1.0
C      1  0.3938250000000  0.4876990000000  0.4648070000000 1.0
C      1  0.4032480000000  0.5030360000000  0.4224220000000 1.0
C      1  0.4514720000000  0.5071680000000  0.4166330000000 1.0
C      1  0.4848790000000  0.5027340000000  0.5826660000000 1.0
C      1  0.5713520000000  0.5010600000000  0.5011910000000 1.0
C      1  0.4945570000000  0.5328380000000  0.2954740000000 1.0
C      1  0.5265550000000  0.4987360000000  0.4407150000000 1.0
C      1  0.6436870000000  0.4994700000000  0.5120780000000 1.0
C      1  0.5018710000000  0.4966720000000  0.4807710000000 1.0
C      1  0.5843100000000  0.5003620000000  0.5616280000000 1.0
C      1  0.5058390000000  0.5052210000000  0.5620850000000 1.0
C      1  0.5378080000000  0.5014050000000  0.5979530000000 1.0
C      1  0.4684340000000  0.5239410000000  0.3402040000000 1.0
C      1  0.3885710000000  0.5055690000000  0.4010410000000 1.0
C      1  0.6166340000000  0.4998530000000  0.5159610000000 1.0
C      1  0.3680650000000  0.4974810000000  0.4696880000000 1.0
C      1  0.4967800000000  0.5015460000000  0.5349490000000 1.0
C      1  0.4154080000000  0.4996490000000  0.4497190000000 1.0
C      1  0.4583750000000  0.5188800000000  0.3641950000000 1.0
C      1  0.4307590000000  0.5094260000000  0.5656790000000 1.0
C      1  0.5294800000000  0.4976670000000  0.4701920000000 1.0
C      1  0.4522220000000  0.5133210000000  0.3893500000000 1.0
C      1  0.5752440000000  0.4991380000000  0.4429000000000 1.0
C      1  0.4785440000000  0.4973480000000  0.4605440000000 1.0
C      1  0.4315140000000  0.5178720000000  0.5382900000000 1.0
C      1  0.4469340000000  0.4958780000000  0.4691570000000 1.0
C      1  0.6012110000000  0.4994750000000  0.4629520000000 1.0
C      1  0.6055690000000  0.4997910000000  0.5424680000000 1.0
C      1  0.4221480000000  0.5030850000000  0.5158880000000 1.0
C      1  0.3579310000000  0.4967260000000  0.4964340000000 1.0
C      1  0.5032700000000  0.5016840000000  0.6083320000000 1.0
END
