TITL C-3201379-3821-1099 -82.6427179564016 125000 -942.933441646581 0 0 160 (C1) n - 1
REM
REM in /home/nfs/bkarasulu/CARBON/AIRSS/Generating-Clusters/LCBOP/Higher-Symm/SD-CG/FIRE-CG
REM
REM
REM
REM
REM
REM ./C.cell (b20cbc046b6831c77cfcea5457e17084)
REM AIRSS Version 0.9.1 bugfix July 2018 build 013d7b7c2542+ Fri, 06 Jul 2018 19:26:36 +0100
REM compiler GCC version 9.2.1 20190827 (Red Hat 9.2.1-1)
REM options -cpp -mtune=generic -march=x86-64 -g -O0 -fpre-include=/usr/include/finclude/math-vector-fortran.h
REM seed 414731485 1153765609 -753709909 -1654839155 564035855 -369190061 -497527344 929696396 -1714898987 577083425 477619026 -1401679836 1606994224 -2075677422 86704174 -305500098 1447654285 1082442724 -1582783267 -1400003177 -1836426061 517950297 1412160691 -2068158848 -1239695706 -589122344 996614089 1713371586 82255442 -692311703 -1125910991 -2022692842 -1952531605
REM
CELL 1.54180   50.00000   50.00000   50.00000   90.00000   90.00000   90.00000
LATT -1
SFAC C  
C      1  0.3949500000000  0.4950670000000  0.5033970000000 1.0
C      1  0.5453100000000  0.5295610000000  0.5854900000000 1.0
C      1  0.5563100000000  0.5195830000000  0.4190090000000 1.0
C      1  0.3985480000000  0.4666230000000  0.4958570000000 1.0
C      1  0.5524110000000  0.5010950000000  0.5870900000000 1.0
C      1  0.5526390000000  0.4837140000000  0.4204320000000 1.0
C      1  0.4449720000000  0.5971880000000  0.5240730000000 1.0
C      1  0.5537610000000  0.6079690000000  0.5269430000000 1.0
C      1  0.5030220000000  0.6061790000000  0.4346440000000 1.0
C      1  0.4486190000000  0.3891750000000  0.5320510000000 1.0
C      1  0.5517350000000  0.4009940000000  0.5365200000000 1.0
C      1  0.5012530000000  0.3952700000000  0.4381320000000 1.0
C      1  0.4914130000000  0.5807990000000  0.4252730000000 1.0
C      1  0.4419590000000  0.5771740000000  0.5458790000000 1.0
C      1  0.5720500000000  0.5849780000000  0.5223880000000 1.0
C      1  0.4860640000000  0.4174670000000  0.4252390000000 1.0
C      1  0.4459370000000  0.4155120000000  0.5448180000000 1.0
C      1  0.5708690000000  0.4216440000000  0.5272770000000 1.0
C      1  0.5082100000000  0.4894590000000  0.5749900000000 1.0
C      1  0.5708640000000  0.4780010000000  0.4794880000000 1.0
C      1  0.4195780000000  0.4976430000000  0.4658740000000 1.0
C      1  0.4876260000000  0.5125880000000  0.5732930000000 1.0
C      1  0.5652330000000  0.5000410000000  0.4588460000000 1.0
C      1  0.4256650000000  0.5225550000000  0.4706320000000 1.0
C      1  0.5215630000000  0.4772690000000  0.4868220000000 1.0
C      1  0.4572600000000  0.4753490000000  0.4749730000000 1.0
C      1  0.5004800000000  0.4733610000000  0.5327490000000 1.0
C      1  0.5305250000000  0.5228740000000  0.4848640000000 1.0
C      1  0.4769940000000  0.5233090000000  0.4840740000000 1.0
C      1  0.5024720000000  0.5222940000000  0.5271470000000 1.0
C      1  0.4630330000000  0.5324460000000  0.4322770000000 1.0
C      1  0.4298000000000  0.5193730000000  0.5929920000000 1.0
C      1  0.5835480000000  0.5241900000000  0.4989160000000 1.0
C      1  0.4540680000000  0.4813970000000  0.4250520000000 1.0
C      1  0.4629180000000  0.4680480000000  0.5666170000000 1.0
C      1  0.6175270000000  0.4728580000000  0.5201500000000 1.0
C      1  0.3796070000000  0.5065990000000  0.4425870000000 1.0
C      1  0.5131790000000  0.4856660000000  0.6214400000000 1.0
C      1  0.6022310000000  0.4647080000000  0.4432880000000 1.0
C      1  0.3851650000000  0.5348000000000  0.4481740000000 1.0
C      1  0.5028250000000  0.5129740000000  0.6215710000000 1.0
C      1  0.6017770000000  0.4912760000000  0.4307820000000 1.0
C      1  0.4971150000000  0.4457660000000  0.4604820000000 1.0
C      1  0.4578220000000  0.4463400000000  0.5100340000000 1.0
C      1  0.5358500000000  0.4473290000000  0.5237030000000 1.0
C      1  0.5124940000000  0.5505790000000  0.4545150000000 1.0
C      1  0.4660160000000  0.5518920000000  0.5192180000000 1.0
C      1  0.5361250000000  0.5551150000000  0.5227060000000 1.0
C      1  0.5270000000000  0.5131080000000  0.5409180000000 1.0
C      1  0.5342630000000  0.5092850000000  0.4560590000000 1.0
C      1  0.4504020000000  0.5146800000000  0.4982120000000 1.0
C      1  0.5236650000000  0.4856470000000  0.5483140000000 1.0
C      1  0.5177290000000  0.4866750000000  0.4603790000000 1.0
C      1  0.4447810000000  0.4881350000000  0.4965770000000 1.0
C      1  0.4739360000000  0.6076910000000  0.5144750000000 1.0
C      1  0.5288760000000  0.6114880000000  0.5083970000000 1.0
C      1  0.4978640000000  0.6125950000000  0.4653940000000 1.0
C      1  0.4768430000000  0.3843690000000  0.5198210000000 1.0
C      1  0.5294500000000  0.3911530000000  0.5161060000000 1.0
C      1  0.4971510000000  0.3888960000000  0.4693640000000 1.0
C      1  0.4416260000000  0.3929450000000  0.4851580000000 1.0
C      1  0.5133510000000  0.4042470000000  0.5649900000000 1.0
C      1  0.5448030000000  0.4031300000000  0.4555940000000 1.0
C      1  0.4399080000000  0.5952220000000  0.4770950000000 1.0
C      1  0.5162910000000  0.6014770000000  0.5557530000000 1.0
C      1  0.5457630000000  0.6009870000000  0.4547490000000 1.0
C      1  0.5922880000000  0.5344480000000  0.4731910000000 1.0
C      1  0.4415840000000  0.5540210000000  0.4399640000000 1.0
C      1  0.4518980000000  0.5286770000000  0.6059170000000 1.0
C      1  0.6138760000000  0.4567040000000  0.4982050000000 1.0
C      1  0.4266890000000  0.4730990000000  0.4257030000000 1.0
C      1  0.4841710000000  0.4495250000000  0.5812030000000 1.0
C      1  0.4539920000000  0.5247080000000  0.5263510000000 1.0
C      1  0.5494740000000  0.5289050000000  0.5310000000000 1.0
C      1  0.5139680000000  0.5268180000000  0.4390050000000 1.0
C      1  0.4478710000000  0.4722940000000  0.5212800000000 1.0
C      1  0.5476710000000  0.4739320000000  0.5308920000000 1.0
C      1  0.4967040000000  0.4726610000000  0.4455000000000 1.0
C      1  0.5455460000000  0.6031830000000  0.5548980000000 1.0
C      1  0.5319750000000  0.6005010000000  0.4287320000000 1.0
C      1  0.4273390000000  0.5865530000000  0.5017520000000 1.0
C      1  0.5412350000000  0.4119230000000  0.5632340000000 1.0
C      1  0.5290160000000  0.4029520000000  0.4314170000000 1.0
C      1  0.4276960000000  0.3920420000000  0.5111830000000 1.0
C      1  0.6008290000000  0.4679380000000  0.4742250000000 1.0
C      1  0.4070780000000  0.4929420000000  0.4368650000000 1.0
C      1  0.4972950000000  0.4709530000000  0.5990230000000 1.0
C      1  0.5952870000000  0.5110420000000  0.4542860000000 1.0
C      1  0.4158240000000  0.5395200000000  0.4449320000000 1.0
C      1  0.4778370000000  0.5149850000000  0.6033590000000 1.0
C      1  0.5535620000000  0.5158420000000  0.5028240000000 1.0
C      1  0.4757460000000  0.5168470000000  0.4545470000000 1.0
C      1  0.4771010000000  0.5119150000000  0.5425200000000 1.0
C      1  0.5498060000000  0.4853680000000  0.5021450000000 1.0
C      1  0.4697560000000  0.4866060000000  0.4512250000000 1.0
C      1  0.4726710000000  0.4813820000000  0.5394480000000 1.0
C      1  0.4338320000000  0.4773220000000  0.5653500000000 1.0
C      1  0.5972870000000  0.4887750000000  0.5328150000000 1.0
C      1  0.4755180000000  0.4892350000000  0.4060830000000 1.0
C      1  0.4280230000000  0.5071250000000  0.5672050000000 1.0
C      1  0.5940590000000  0.5180350000000  0.5265570000000 1.0
C      1  0.4783000000000  0.5199610000000  0.4083670000000 1.0
C      1  0.5608000000000  0.5753910000000  0.4553270000000 1.0
C      1  0.4471550000000  0.5748410000000  0.4591290000000 1.0
C      1  0.5119520000000  0.5752410000000  0.5698360000000 1.0
C      1  0.5546540000000  0.4312710000000  0.4563190000000 1.0
C      1  0.4293060000000  0.4170380000000  0.4719090000000 1.0
C      1  0.4950720000000  0.4263980000000  0.5669590000000 1.0
C      1  0.5539080000000  0.4716610000000  0.5850870000000 1.0
C      1  0.5488490000000  0.4491800000000  0.4306080000000 1.0
C      1  0.4095360000000  0.4339270000000  0.4906420000000 1.0
C      1  0.5378000000000  0.5597380000000  0.5780850000000 1.0
C      1  0.5548150000000  0.5549810000000  0.4268360000000 1.0
C      1  0.3977130000000  0.5243140000000  0.5065360000000 1.0
C      1  0.5446970000000  0.4384420000000  0.4814280000000 1.0
C      1  0.4518890000000  0.4309780000000  0.4621310000000 1.0
C      1  0.4908570000000  0.4308330000000  0.5391220000000 1.0
C      1  0.5524410000000  0.5642950000000  0.4794640000000 1.0
C      1  0.4726620000000  0.5677750000000  0.4694490000000 1.0
C      1  0.4945220000000  0.5627490000000  0.5518120000000 1.0
C      1  0.5585220000000  0.5780140000000  0.5662560000000 1.0
C      1  0.5354580000000  0.5734700000000  0.4134550000000 1.0
C      1  0.4107820000000  0.5567430000000  0.5131140000000 1.0
C      1  0.5561170000000  0.4393800000000  0.5716150000000 1.0
C      1  0.5300720000000  0.4300060000000  0.4166350000000 1.0
C      1  0.4111940000000  0.4177110000000  0.5156950000000 1.0
C      1  0.5030700000000  0.6084260000000  0.5272540000000 1.0
C      1  0.5264440000000  0.6102480000000  0.4780770000000 1.0
C      1  0.4723570000000  0.6104610000000  0.4838220000000 1.0
C      1  0.5040040000000  0.3882820000000  0.5331830000000 1.0
C      1  0.5265360000000  0.3921310000000  0.4829860000000 1.0
C      1  0.4726640000000  0.3871140000000  0.4882750000000 1.0
C      1  0.4912990000000  0.5666910000000  0.4499960000000 1.0
C      1  0.4679340000000  0.5655310000000  0.5450520000000 1.0
C      1  0.5554640000000  0.5687600000000  0.5062310000000 1.0
C      1  0.4757800000000  0.4299550000000  0.4481800000000 1.0
C      1  0.4656900000000  0.4295980000000  0.5300840000000 1.0
C      1  0.5548360000000  0.4339150000000  0.5068530000000 1.0
C      1  0.5774550000000  0.5669430000000  0.5465380000000 1.0
C      1  0.5083570000000  0.5627600000000  0.4076070000000 1.0
C      1  0.4217270000000  0.5552490000000  0.5405110000000 1.0
C      1  0.5764800000000  0.4421710000000  0.5488010000000 1.0
C      1  0.5026040000000  0.4385680000000  0.4104600000000 1.0
C      1  0.4214040000000  0.4319760000000  0.5395100000000 1.0
C      1  0.4306710000000  0.5272550000000  0.5458560000000 1.0
C      1  0.5773350000000  0.5373560000000  0.5419330000000 1.0
C      1  0.5042050000000  0.5332790000000  0.4119370000000 1.0
C      1  0.4256430000000  0.4618080000000  0.5413170000000 1.0
C      1  0.5759110000000  0.4709340000000  0.5411750000000 1.0
C      1  0.4961090000000  0.4677930000000  0.4141210000000 1.0
C      1  0.5085440000000  0.4472440000000  0.5267270000000 1.0
C      1  0.5175510000000  0.4484250000000  0.4811180000000 1.0
C      1  0.4578990000000  0.4489780000000  0.4827620000000 1.0
C      1  0.5086310000000  0.5516750000000  0.5297600000000 1.0
C      1  0.5290540000000  0.5501690000000  0.4760300000000 1.0
C      1  0.4752250000000  0.5524460000000  0.4921690000000 1.0
C      1  0.6146940000000  0.4957840000000  0.4741250000000 1.0
C      1  0.4695270000000  0.4849520000000  0.6071650000000 1.0
C      1  0.4189390000000  0.5181850000000  0.4221240000000 1.0
C      1  0.5037790000000  0.5140350000000  0.4974310000000 1.0
END
