TITL C-3201377-4638-1509 -6.07474472271401e-07 125000 -518.202275926146 0 0 87 (C2) n - 1
REM
REM in /home/nfs/bkarasulu/CARBON/AIRSS/Generating-Clusters/LCBOP/Higher-Symm/SD-CG/FIRE-CG
REM
REM
REM
REM
REM
REM ./C.cell (b20cbc046b6831c77cfcea5457e17084)
REM AIRSS Version 0.9.1 bugfix July 2018 build 013d7b7c2542+ Fri, 06 Jul 2018 19:26:36 +0100
REM compiler GCC version 9.2.1 20190827 (Red Hat 9.2.1-1)
REM options -cpp -mtune=generic -march=x86-64 -g -O0 -fpre-include=/usr/include/finclude/math-vector-fortran.h
REM seed 1271570497 1887566318 -1097005935 -1135072732 1841296467 -292824419 628911250 174775806 -321194755 -944752291 -555272840 -471275963 689465470 -979750773 1833345309 609020016 -1681991430 673627385 -1570937574 -2098439075 -1584350617 2024946658 -219524103 1120106783 -1620123847 -1336080787 1154317461 -519602470 -1486405947 1889720836 -1172725266 -1512750888 1078110855
REM
CELL 1.54180   50.00000   50.00000   50.00000   90.00000   90.00000   90.00000
LATT -1
SFAC C  
C      1  0.4159890000000  0.4693990000000  0.5125300000000 1.0
C      1  0.4049820000000  0.5406160000000  0.4757000000000 1.0
C      1  0.4127180000000  0.4874830000000  0.5343660000000 1.0
C      1  0.5949130000000  0.5413550000000  0.4769430000000 1.0
C      1  0.5871910000000  0.4639910000000  0.4936680000000 1.0
C      1  0.5839220000000  0.4738740000000  0.5202420000000 1.0
C      1  0.4845660000000  0.4465630000000  0.3803210000000 1.0
C      1  0.4934400000000  0.6209530000000  0.5320300000000 1.0
C      1  0.4673910000000  0.4175770000000  0.5577150000000 1.0
C      1  0.5064480000000  0.5326720000000  0.3792170000000 1.0
C      1  0.5325330000000  0.4088350000000  0.5425710000000 1.0
C      1  0.5153350000000  0.5769880000000  0.6060730000000 1.0
C      1  0.5564280000000  0.5820830000000  0.4773360000000 1.0
C      1  0.5442790000000  0.4657760000000  0.5619480000000 1.0
C      1  0.5634150000000  0.4356690000000  0.4492270000000 1.0
C      1  0.4556380000000  0.4292310000000  0.4987090000000 1.0
C      1  0.4364950000000  0.5118400000000  0.5810990000000 1.0
C      1  0.4434600000000  0.5606260000000  0.4402180000000 1.0
C      1  0.5034670000000  0.4693040000000  0.5884280000000 1.0
C      1  0.5146400000000  0.4175820000000  0.4407420000000 1.0
C      1  0.5125520000000  0.6024810000000  0.4633250000000 1.0
C      1  0.4852730000000  0.5101640000000  0.6010010000000 1.0
C      1  0.4873320000000  0.5829610000000  0.4295410000000 1.0
C      1  0.4964510000000  0.4080610000000  0.4824210000000 1.0
C      1  0.5505910000000  0.4917740000000  0.4753620000000 1.0
C      1  0.5504400000000  0.5196410000000  0.4723080000000 1.0
C      1  0.5630990000000  0.5159910000000  0.5411510000000 1.0
C      1  0.4494580000000  0.5337920000000  0.4968230000000 1.0
C      1  0.4368070000000  0.4723280000000  0.4655980000000 1.0
C      1  0.4493130000000  0.5172260000000  0.5194390000000 1.0
C      1  0.5618920000000  0.4918660000000  0.5261960000000 1.0
C      1  0.5750320000000  0.4775580000000  0.4707780000000 1.0
C      1  0.5684940000000  0.5363520000000  0.4868680000000 1.0
C      1  0.4248740000000  0.5140930000000  0.5340460000000 1.0
C      1  0.4314030000000  0.5295240000000  0.4750740000000 1.0
C      1  0.4380170000000  0.4732330000000  0.4939670000000 1.0
C      1  0.4742840000000  0.4925370000000  0.5577880000000 1.0
C      1  0.4688950000000  0.4335610000000  0.4510540000000 1.0
C      1  0.4734730000000  0.5773030000000  0.4761210000000 1.0
C      1  0.5310160000000  0.5092200000000  0.5820030000000 1.0
C      1  0.5264160000000  0.5593050000000  0.4449580000000 1.0
C      1  0.5256280000000  0.4462140000000  0.4775970000000 1.0
C      1  0.4653730000000  0.5569660000000  0.4939440000000 1.0
C      1  0.4710380000000  0.5039480000000  0.5320890000000 1.0
C      1  0.4500140000000  0.4548620000000  0.4494630000000 1.0
C      1  0.5288690000000  0.4741780000000  0.4805480000000 1.0
C      1  0.5498930000000  0.5212420000000  0.5643430000000 1.0
C      1  0.5345220000000  0.5337080000000  0.4536720000000 1.0
C      1  0.3988220000000  0.5615800000000  0.4591190000000 1.0
C      1  0.4084630000000  0.4778110000000  0.5611130000000 1.0
C      1  0.4107890000000  0.4410530000000  0.5148830000000 1.0
C      1  0.5914510000000  0.4359890000000  0.4886860000000 1.0
C      1  0.5891270000000  0.4576770000000  0.5436230000000 1.0
C      1  0.6010680000000  0.5661920000000  0.4670640000000 1.0
C      1  0.4202550000000  0.4881930000000  0.5836220000000 1.0
C      1  0.4295710000000  0.4220210000000  0.5081120000000 1.0
C      1  0.4171460000000  0.5718230000000  0.4414740000000 1.0
C      1  0.5703470000000  0.4540330000000  0.5634950000000 1.0
C      1  0.5827400000000  0.5865920000000  0.4670060000000 1.0
C      1  0.5796600000000  0.4216740000000  0.4684500000000 1.0
C      1  0.4901340000000  0.4300670000000  0.4313250000000 1.0
C      1  0.4929800000000  0.5971500000000  0.4837770000000 1.0
C      1  0.4852610000000  0.4670910000000  0.5658890000000 1.0
C      1  0.5069060000000  0.5625840000000  0.4239410000000 1.0
C      1  0.5146560000000  0.4264840000000  0.4955950000000 1.0
C      1  0.5097760000000  0.5245620000000  0.5948870000000 1.0
C      1  0.5742740000000  0.4622120000000  0.4464270000000 1.0
C      1  0.5564550000000  0.5606300000000  0.4965220000000 1.0
C      1  0.5397580000000  0.4759200000000  0.5354130000000 1.0
C      1  0.4434390000000  0.5332890000000  0.4492190000000 1.0
C      1  0.4601540000000  0.4572860000000  0.5031750000000 1.0
C      1  0.4256320000000  0.5275220000000  0.5595040000000 1.0
C      1  0.5291500000000  0.4797340000000  0.5813330000000 1.0
C      1  0.5350230000000  0.4343980000000  0.4522400000000 1.0
C      1  0.5334120000000  0.5829390000000  0.4610310000000 1.0
C      1  0.4648880000000  0.5085990000000  0.5806920000000 1.0
C      1  0.4664750000000  0.5751830000000  0.4476190000000 1.0
C      1  0.4707660000000  0.4194120000000  0.4769320000000 1.0
C      1  0.4758110000000  0.4422530000000  0.5578460000000 1.0
C      1  0.4871700000000  0.4381140000000  0.4048360000000 1.0
C      1  0.4929550000000  0.6099730000000  0.5084010000000 1.0
C      1  0.5127360000000  0.5515300000000  0.6011470000000 1.0
C      1  0.5069310000000  0.5476570000000  0.4005330000000 1.0
C      1  0.5241090000000  0.4210460000000  0.5211290000000 1.0
C      1  0.4999400000000  0.6072730000000  0.4380260000000 1.0
C      1  0.5083160000000  0.3963360000000  0.4591380000000 1.0
C      1  0.4916020000000  0.4836150000000  0.6102160000000 1.0
END
