TITL C-3201373-1215-41 -1.17902891029316e-06 125000 -733.150190789521 0 0 121 (C1) n - 1
REM
REM in /home/nfs/bkarasulu/CARBON/AIRSS/Generating-Clusters/LCBOP/Higher-Symm/SD-CG/FIRE-CG
REM
REM
REM
REM
REM
REM ./C.cell (b20cbc046b6831c77cfcea5457e17084)
REM AIRSS Version 0.9.1 bugfix July 2018 build 013d7b7c2542+ Fri, 06 Jul 2018 19:26:36 +0100
REM compiler GCC version 9.2.1 20190827 (Red Hat 9.2.1-1)
REM options -cpp -mtune=generic -march=x86-64 -g -O0 -fpre-include=/usr/include/finclude/math-vector-fortran.h
REM seed -1094849850 -1490917766 1399558213 211223055 2127868422 893416587 -704559561 418474956 -786019943 619366669 1666767029 1758019011 1984130355 835302528 -843797328 698385213 -1380483984 -1879194696 2147125058 -817889993 -1357617593 26624048 1995085279 1111900069 -170161851 1471039707 -1669003337 766738290 632221271 880423464 172742604 447853291 -1525580959
REM
CELL 1.54180   50.00000   50.00000   50.00000   90.00000   90.00000   90.00000
LATT -1
SFAC C  
C      1  0.4882820000000  0.4338280000000  0.5674750000000 1.0
C      1  0.5438540000000  0.4482870000000  0.5684760000000 1.0
C      1  0.5686270000000  0.5018790000000  0.5692500000000 1.0
C      1  0.5408740000000  0.5547100000000  0.5694330000000 1.0
C      1  0.4831020000000  0.5655620000000  0.5691130000000 1.0
C      1  0.4379540000000  0.5281730000000  0.5695550000000 1.0
C      1  0.4393240000000  0.4681380000000  0.5693960000000 1.0
C      1  0.3770540000000  0.4374140000000  0.4916890000000 1.0
C      1  0.4592930000000  0.3730250000000  0.4895850000000 1.0
C      1  0.5696680000000  0.3878560000000  0.4891080000000 1.0
C      1  0.6388300000000  0.5002760000000  0.4926120000000 1.0
C      1  0.5870080000000  0.6044720000000  0.4909990000000 1.0
C      1  0.4913950000000  0.6289500000000  0.4887930000000 1.0
C      1  0.3832820000000  0.5685000000000  0.4908830000000 1.0
C      1  0.5536710000000  0.4333970000000  0.4518710000000 1.0
C      1  0.5895580000000  0.5029700000000  0.4492610000000 1.0
C      1  0.5523170000000  0.5691000000000  0.4518750000000 1.0
C      1  0.4786510000000  0.5823660000000  0.4520280000000 1.0
C      1  0.4191460000000  0.5368830000000  0.4493230000000 1.0
C      1  0.4217920000000  0.4590720000000  0.4511370000000 1.0
C      1  0.4839960000000  0.4149710000000  0.4513210000000 1.0
C      1  0.4730800000000  0.4715130000000  0.4771730000000 1.0
C      1  0.5221280000000  0.4729340000000  0.4743700000000 1.0
C      1  0.5426920000000  0.4916220000000  0.4788570000000 1.0
C      1  0.5359780000000  0.5192970000000  0.4875980000000 1.0
C      1  0.5122550000000  0.5314520000000  0.4744330000000 1.0
C      1  0.4662920000000  0.5187080000000  0.4756790000000 1.0
C      1  0.4561260000000  0.4936840000000  0.4887370000000 1.0
C      1  0.4627520000000  0.5425650000000  0.4226050000000 1.0
C      1  0.4431890000000  0.4976550000000  0.4235720000000 1.0
C      1  0.4664790000000  0.4545070000000  0.4236720000000 1.0
C      1  0.5144550000000  0.4456790000000  0.4228840000000 1.0
C      1  0.5518010000000  0.4772970000000  0.4234750000000 1.0
C      1  0.5497560000000  0.5261830000000  0.4238820000000 1.0
C      1  0.5102070000000  0.5549890000000  0.4233770000000 1.0
C      1  0.4059130000000  0.5544700000000  0.4981190000000 1.0
C      1  0.3980260000000  0.4537090000000  0.4988830000000 1.0
C      1  0.4688250000000  0.3974780000000  0.4978780000000 1.0
C      1  0.5583190000000  0.4111060000000  0.4984370000000 1.0
C      1  0.6122040000000  0.4968170000000  0.4985610000000 1.0
C      1  0.5724890000000  0.5824710000000  0.4989030000000 1.0
C      1  0.4884390000000  0.6030460000000  0.4978560000000 1.0
C      1  0.5767590000000  0.5317520000000  0.5360170000000 1.0
C      1  0.5231200000000  0.5781980000000  0.5338090000000 1.0
C      1  0.4523350000000  0.5682210000000  0.5341120000000 1.0
C      1  0.4138350000000  0.5057280000000  0.5382130000000 1.0
C      1  0.4432350000000  0.4375540000000  0.5353440000000 1.0
C      1  0.5125850000000  0.4230100000000  0.5282080000000 1.0
C      1  0.5710950000000  0.4594580000000  0.5336940000000 1.0
C      1  0.4389140000000  0.5263170000000  0.4313420000000 1.0
C      1  0.4417210000000  0.4689180000000  0.4328650000000 1.0
C      1  0.4882230000000  0.4355770000000  0.4321630000000 1.0
C      1  0.5423740000000  0.4502230000000  0.4320630000000 1.0
C      1  0.5662250000000  0.5025360000000  0.4322440000000 1.0
C      1  0.5386090000000  0.5525910000000  0.4329040000000 1.0
C      1  0.4824980000000  0.5627650000000  0.4318430000000 1.0
C      1  0.4661920000000  0.4535110000000  0.5773470000000 1.0
C      1  0.5152030000000  0.4447500000000  0.5771820000000 1.0
C      1  0.5532000000000  0.4766900000000  0.5779430000000 1.0
C      1  0.5514390000000  0.5268420000000  0.5783140000000 1.0
C      1  0.5109810000000  0.5564150000000  0.5782480000000 1.0
C      1  0.4628620000000  0.5436470000000  0.5782440000000 1.0
C      1  0.4423730000000  0.4979160000000  0.5781980000000 1.0
C      1  0.4569710000000  0.5434870000000  0.5250970000000 1.0
C      1  0.4363060000000  0.4938170000000  0.5299360000000 1.0
C      1  0.4657320000000  0.4494480000000  0.5271540000000 1.0
C      1  0.5163520000000  0.4460820000000  0.5133490000000 1.0
C      1  0.5548630000000  0.4797060000000  0.5275210000000 1.0
C      1  0.5509430000000  0.5322510000000  0.5291270000000 1.0
C      1  0.5066550000000  0.5588220000000  0.5257150000000 1.0
C      1  0.4756900000000  0.5225980000000  0.5237800000000 1.0
C      1  0.4635420000000  0.4961920000000  0.5183780000000 1.0
C      1  0.4802670000000  0.4734060000000  0.5263030000000 1.0
C      1  0.5079940000000  0.4710880000000  0.5243860000000 1.0
C      1  0.5287400000000  0.4897070000000  0.5264330000000 1.0
C      1  0.5278800000000  0.5175050000000  0.5174840000000 1.0
C      1  0.5025130000000  0.5312030000000  0.5233640000000 1.0
C      1  0.4233170000000  0.5458280000000  0.4766090000000 1.0
C      1  0.4136090000000  0.4662080000000  0.4778000000000 1.0
C      1  0.4734820000000  0.4177170000000  0.4776970000000 1.0
C      1  0.5468430000000  0.4295510000000  0.4791790000000 1.0
C      1  0.5934420000000  0.4942160000000  0.4767050000000 1.0
C      1  0.5625090000000  0.5646160000000  0.4783240000000 1.0
C      1  0.4907050000000  0.5819810000000  0.4779230000000 1.0
C      1  0.4809350000000  0.4736490000000  0.5938210000000 1.0
C      1  0.5087060000000  0.4684040000000  0.5938560000000 1.0
C      1  0.5302410000000  0.4867170000000  0.5942150000000 1.0
C      1  0.5291870000000  0.5149790000000  0.5943330000000 1.0
C      1  0.5064260000000  0.5317520000000  0.5942930000000 1.0
C      1  0.4791190000000  0.5245130000000  0.5942220000000 1.0
C      1  0.4677120000000  0.4986480000000  0.5940880000000 1.0
C      1  0.4785190000000  0.5243100000000  0.4050520000000 1.0
C      1  0.4669950000000  0.4984820000000  0.4053640000000 1.0
C      1  0.4804070000000  0.4736440000000  0.4053820000000 1.0
C      1  0.5082910000000  0.4686900000000  0.4051180000000 1.0
C      1  0.5299490000000  0.4869370000000  0.4053500000000 1.0
C      1  0.5288740000000  0.5151340000000  0.4055710000000 1.0
C      1  0.5059150000000  0.5316110000000  0.4053660000000 1.0
C      1  0.4097490000000  0.5500870000000  0.5266390000000 1.0
C      1  0.4032320000000  0.4573780000000  0.5273470000000 1.0
C      1  0.4732180000000  0.4011020000000  0.5262340000000 1.0
C      1  0.5583090000000  0.4156240000000  0.5270140000000 1.0
C      1  0.6045390000000  0.4959930000000  0.5266680000000 1.0
C      1  0.5682890000000  0.5786760000000  0.5273880000000 1.0
C      1  0.4838130000000  0.5999210000000  0.5262760000000 1.0
C      1  0.5592910000000  0.5375650000000  0.4852290000000 1.0
C      1  0.5064770000000  0.5585980000000  0.4802210000000 1.0
C      1  0.4510980000000  0.5416610000000  0.4804880000000 1.0
C      1  0.4274150000000  0.4893690000000  0.4854820000000 1.0
C      1  0.4673850000000  0.4447370000000  0.4822200000000 1.0
C      1  0.5265400000000  0.4476460000000  0.4874420000000 1.0
C      1  0.5687350000000  0.4825640000000  0.4833480000000 1.0
C      1  0.4171240000000  0.5322290000000  0.5482340000000 1.0
C      1  0.4235100000000  0.4540050000000  0.5479760000000 1.0
C      1  0.4902090000000  0.4159820000000  0.5442300000000 1.0
C      1  0.5593730000000  0.4367770000000  0.5460870000000 1.0
C      1  0.5878040000000  0.5078730000000  0.5469410000000 1.0
C      1  0.5477990000000  0.5731010000000  0.5470060000000 1.0
C      1  0.4733670000000  0.5824750000000  0.5468360000000 1.0
C      1  0.4927050000000  0.5128810000000  0.4666630000000 1.0
C      1  0.4971080000000  0.4839740000000  0.4675900000000 1.0
END
