TITL C-3201378-2706-327 3.71381713504626e-08 125000 -326.073720116544 0 0 55 (C3) n - 1
REM
REM in /home/nfs/bkarasulu/CARBON/AIRSS/Generating-Clusters/LCBOP/Higher-Symm/SD-CG/FIRE-CG
REM
REM
REM
REM
REM
REM ./C.cell (b20cbc046b6831c77cfcea5457e17084)
REM AIRSS Version 0.9.1 bugfix July 2018 build 013d7b7c2542+ Fri, 06 Jul 2018 19:26:36 +0100
REM compiler GCC version 9.2.1 20190827 (Red Hat 9.2.1-1)
REM options -cpp -mtune=generic -march=x86-64 -g -O0 -fpre-include=/usr/include/finclude/math-vector-fortran.h
REM seed 1048853730 -1619127752 1839278937 257024024 -1716316276 -686116430 -279046781 -1194504858 -1021280544 -1098408326 -1933854654 -1276917034 102167402 355273219 2099778509 1090965982 1151734016 -1191117673 -1862792904 1558700354 -1125027768 -916198994 -894013372 -827304618 43659856 -983000300 -218516836 -1348356937 690708010 749396311 470334114 -97451076 -1328950171
REM
CELL 1.54180   50.00000   50.00000   50.00000   90.00000   90.00000   90.00000
LATT -1
SFAC C  
C      1  0.4941270000000  0.4612000000000  0.4327740000000 1.0
C      1  0.5360180000000  0.5128960000000  0.4327740000000 1.0
C      1  0.4703030000000  0.5233270000000  0.4327690000000 1.0
C      1  0.5565150000000  0.4993870000000  0.5007010000000 1.0
C      1  0.4717500000000  0.5478400000000  0.5006930000000 1.0
C      1  0.4721700000000  0.4502050000000  0.5006970000000 1.0
C      1  0.4990900000000  0.5474440000000  0.4889130000000 1.0
C      1  0.4588440000000  0.4740790000000  0.4889140000000 1.0
C      1  0.5425030000000  0.4759070000000  0.4889190000000 1.0
C      1  0.5157980000000  0.5260820000000  0.4764960000000 1.0
C      1  0.4689910000000  0.4992280000000  0.4764950000000 1.0
C      1  0.5156510000000  0.4721190000000  0.4764990000000 1.0
C      1  0.5050980000000  0.4217020000000  0.4788650000000 1.0
C      1  0.5647370000000  0.5421520000000  0.4788630000000 1.0
C      1  0.4306050000000  0.5335760000000  0.4788550000000 1.0
C      1  0.4603000000000  0.4226270000000  0.4907780000000 1.0
C      1  0.5863340000000  0.5028940000000  0.4907820000000 1.0
C      1  0.4538030000000  0.5719090000000  0.4907700000000 1.0
C      1  0.6059910000000  0.4849630000000  0.4990440000000 1.0
C      1  0.4595040000000  0.5979000000000  0.4990290000000 1.0
C      1  0.4349410000000  0.4145690000000  0.4990360000000 1.0
C      1  0.4935120000000  0.5371650000000  0.4330400000000 1.0
C      1  0.4705390000000  0.4743810000000  0.4330410000000 1.0
C      1  0.5363980000000  0.4858770000000  0.4330450000000 1.0
C      1  0.5180310000000  0.4686860000000  0.4461130000000 1.0
C      1  0.5175830000000  0.5298560000000  0.4461100000000 1.0
C      1  0.4648320000000  0.4988830000000  0.4461080000000 1.0
C      1  0.5189110000000  0.4482770000000  0.5552210000000 1.0
C      1  0.5348100000000  0.5408370000000  0.5552180000000 1.0
C      1  0.4467020000000  0.5083260000000  0.5552130000000 1.0
C      1  0.5492130000000  0.5206210000000  0.5459680000000 1.0
C      1  0.4570090000000  0.5309060000000  0.5459620000000 1.0
C      1  0.4942040000000  0.4459120000000  0.5459680000000 1.0
C      1  0.5433850000000  0.5251510000000  0.4883970000000 1.0
C      1  0.4560030000000  0.5235860000000  0.4883910000000 1.0
C      1  0.5010490000000  0.4486930000000  0.4883970000000 1.0
C      1  0.4855060000000  0.5942040000000  0.5398190000000 1.0
C      1  0.4251380000000  0.4389420000000  0.5398220000000 1.0
C      1  0.5897830000000  0.4642920000000  0.5398320000000 1.0
C      1  0.4463230000000  0.4570600000000  0.5435490000000 1.0
C      1  0.5634990000000  0.4735810000000  0.5435560000000 1.0
C      1  0.4906040000000  0.5667980000000  0.5435470000000 1.0
C      1  0.5561740000000  0.4982210000000  0.5308470000000 1.0
C      1  0.4729280000000  0.5481320000000  0.5308390000000 1.0
C      1  0.4713270000000  0.4510840000000  0.5308430000000 1.0
C      1  0.4815860000000  0.4074990000000  0.4789710000000 1.0
C      1  0.5887930000000  0.5288920000000  0.4789720000000 1.0
C      1  0.4300600000000  0.5610390000000  0.4789600000000 1.0
C      1  0.4199870000000  0.4211070000000  0.5203810000000 1.0
C      1  0.6078040000000  0.4687460000000  0.5203910000000 1.0
C      1  0.4726390000000  0.6075810000000  0.5203760000000 1.0
C      1  0.5140890000000  0.5573820000000  0.5551730000000 1.0
C      1  0.4427340000000  0.4821080000000  0.5551720000000 1.0
C      1  0.5436010000000  0.4579500000000  0.5551800000000 1.0
C      1  0.5001460000000  0.4991430000000  0.4797510000000 1.0
END
