TITL C-3201372-1405-1740 -5055.13337147362 125000 -604.306066345148 0 0 104 (C1) n - 1
REM
REM in /home/nfs/bkarasulu/CARBON/AIRSS/Generating-Clusters/LCBOP/Higher-Symm/SD-CG/FIRE-CG
REM
REM
REM
REM
REM
REM ./C.cell (b20cbc046b6831c77cfcea5457e17084)
REM AIRSS Version 0.9.1 bugfix July 2018 build 013d7b7c2542+ Fri, 06 Jul 2018 19:26:36 +0100
REM compiler GCC version 9.2.1 20190827 (Red Hat 9.2.1-1)
REM options -cpp -mtune=generic -march=x86-64 -g -O0 -fpre-include=/usr/include/finclude/math-vector-fortran.h
REM seed -2039656643 -985531038 -1715069021 2129212699 -1146134955 -251564454 1120130037 -1231322234 -2062348804 1810302211 -300535419 -1329508245 1356701371 2042016274 -663597013 -1645340100 813553002 -1113785540 1752458919 -2059788769 -1601123669 1779488536 418097126 1899212629 257617597 -1332606953 143271459 -571808772 -454367027 -720014378 -1309811054 1327668904 -621929123
REM
CELL 1.54180   50.00000   50.00000   50.00000   90.00000   90.00000   90.00000
LATT -1
SFAC C  
C      1  0.4392930000000  0.4283690000000  0.5244280000000 1.0
C      1  0.5615630000000  0.4321440000000  0.4752200000000 1.0
C      1  0.4915040000000  0.5239720000000  0.4474760000000 1.0
C      1  0.5135000000000  0.5311900000000  0.5526910000000 1.0
C      1  0.5108170000000  0.3919410000000  0.5068090000000 1.0
C      1  0.4914050000000  0.3918010000000  0.4885980000000 1.0
C      1  0.4490210000000  0.3690450000000  0.4466220000000 1.0
C      1  0.5539120000000  0.3682860000000  0.5464270000000 1.0
C      1  0.4069480000000  0.5394470000000  0.4762770000000 1.0
C      1  0.5966020000000  0.5405740000000  0.5183030000000 1.0
C      1  0.5385710000000  0.4627150000000  0.5048760000000 1.0
C      1  0.4640470000000  0.4603200000000  0.4975480000000 1.0
C      1  0.4607300000000  0.5158990000000  0.5875990000000 1.0
C      1  0.5371580000000  0.5167580000000  0.4126370000000 1.0
C      1  0.5606230000000  0.4574220000000  0.4875780000000 1.0
C      1  0.4408180000000  0.4541530000000  0.5134840000000 1.0
C      1  0.4956680000000  0.5600100000000  0.4795460000000 1.0
C      1  0.5150800000000  0.5618500000000  0.5115160000000 1.0
C      1  0.4669770000000  0.4887710000000  0.4283190000000 1.0
C      1  0.5334280000000  0.4835270000000  0.5757610000000 1.0
C      1  0.5129450000000  0.4648970000000  0.4922710000000 1.0
C      1  0.4892400000000  0.4677230000000  0.5101970000000 1.0
C      1  0.5055150000000  0.5490180000000  0.4544100000000 1.0
C      1  0.5082400000000  0.5571490000000  0.5399470000000 1.0
C      1  0.5236600000000  0.4017540000000  0.5297780000000 1.0
C      1  0.4778420000000  0.4021450000000  0.4662880000000 1.0
C      1  0.5844760000000  0.5278360000000  0.4686180000000 1.0
C      1  0.4052290000000  0.5303070000000  0.5282450000000 1.0
C      1  0.4251170000000  0.5266480000000  0.5483300000000 1.0
C      1  0.5567580000000  0.5279640000000  0.4594990000000 1.0
C      1  0.5336210000000  0.6003690000000  0.3601320000000 1.0
C      1  0.4792870000000  0.6009370000000  0.6335030000000 1.0
C      1  0.5878270000000  0.5629410000000  0.5022890000000 1.0
C      1  0.4195780000000  0.5595650000000  0.4913500000000 1.0
C      1  0.4581390000000  0.5038760000000  0.4807140000000 1.0
C      1  0.5435090000000  0.5073110000000  0.5266580000000 1.0
C      1  0.5433870000000  0.5443200000000  0.4167950000000 1.0
C      1  0.4527250000000  0.5436790000000  0.5837860000000 1.0
C      1  0.4301130000000  0.4089610000000  0.4643530000000 1.0
C      1  0.5707960000000  0.4111300000000  0.5344770000000 1.0
C      1  0.5030400000000  0.5010070000000  0.4611280000000 1.0
C      1  0.4934700000000  0.5111690000000  0.5462450000000 1.0
C      1  0.4579240000000  0.5831480000000  0.5122020000000 1.0
C      1  0.5480940000000  0.5881260000000  0.4825200000000 1.0
C      1  0.5278860000000  0.4917290000000  0.4226720000000 1.0
C      1  0.4703790000000  0.4898560000000  0.5788420000000 1.0
C      1  0.5542500000000  0.5035150000000  0.5688720000000 1.0
C      1  0.4471120000000  0.5094540000000  0.4366640000000 1.0
C      1  0.5143450000000  0.5140610000000  0.4830610000000 1.0
C      1  0.4714290000000  0.5281130000000  0.5387350000000 1.0
C      1  0.4655580000000  0.4658860000000  0.4474890000000 1.0
C      1  0.5337200000000  0.4641710000000  0.5534790000000 1.0
C      1  0.5404200000000  0.4796030000000  0.4484630000000 1.0
C      1  0.4595670000000  0.4796730000000  0.5512120000000 1.0
C      1  0.5160130000000  0.4417050000000  0.5599280000000 1.0
C      1  0.4820200000000  0.4435690000000  0.4376840000000 1.0
C      1  0.4626820000000  0.5254970000000  0.4588040000000 1.0
C      1  0.5390880000000  0.5205530000000  0.5522450000000 1.0
C      1  0.4094930000000  0.5108790000000  0.4769580000000 1.0
C      1  0.5907620000000  0.5115710000000  0.5192380000000 1.0
C      1  0.4794780000000  0.5376850000000  0.5142140000000 1.0
C      1  0.4976660000000  0.5229050000000  0.5019720000000 1.0
C      1  0.5408990000000  0.4775130000000  0.5285480000000 1.0
C      1  0.4600660000000  0.4753480000000  0.4740160000000 1.0
C      1  0.4464870000000  0.5165000000000  0.5326140000000 1.0
C      1  0.5405970000000  0.5207810000000  0.4810830000000 1.0
C      1  0.5479630000000  0.5273660000000  0.5072240000000 1.0
C      1  0.4491760000000  0.5114450000000  0.5053970000000 1.0
C      1  0.5425760000000  0.5547510000000  0.5120790000000 1.0
C      1  0.4659380000000  0.5539110000000  0.4747990000000 1.0
C      1  0.4980770000000  0.4783200000000  0.5854900000000 1.0
C      1  0.5000630000000  0.4820850000000  0.4155920000000 1.0
C      1  0.5204530000000  0.4160430000000  0.4492530000000 1.0
C      1  0.4805150000000  0.4110250000000  0.5483880000000 1.0
C      1  0.4853960000000  0.4838640000000  0.5349720000000 1.0
C      1  0.5152620000000  0.4748660000000  0.4644750000000 1.0
C      1  0.4371690000000  0.5509100000000  0.5605100000000 1.0
C      1  0.5517980000000  0.5511770000000  0.4429440000000 1.0
C      1  0.5823650000000  0.5009600000000  0.5473880000000 1.0
C      1  0.4215280000000  0.5021490000000  0.4513210000000 1.0
C      1  0.5613630000000  0.5749710000000  0.5061250000000 1.0
C      1  0.4466360000000  0.5691260000000  0.4884010000000 1.0
C      1  0.5498600000000  0.3936630000000  0.5369100000000 1.0
C      1  0.4519240000000  0.3932870000000  0.4590570000000 1.0
C      1  0.4605750000000  0.5631200000000  0.6021630000000 1.0
C      1  0.5410590000000  0.5631240000000  0.3964660000000 1.0
C      1  0.5676250000000  0.4804830000000  0.4719160000000 1.0
C      1  0.4309440000000  0.4763610000000  0.5280310000000 1.0
C      1  0.4371100000000  0.5703570000000  0.5364170000000 1.0
C      1  0.5631540000000  0.5729080000000  0.4600760000000 1.0
C      1  0.4924520000000  0.4204490000000  0.4502720000000 1.0
C      1  0.5078760000000  0.4181090000000  0.5467250000000 1.0
C      1  0.5450590000000  0.4181040000000  0.4594280000000 1.0
C      1  0.4555810000000  0.4131040000000  0.5391760000000 1.0
C      1  0.4975750000000  0.4536010000000  0.4152360000000 1.0
C      1  0.4988330000000  0.4500260000000  0.5819490000000 1.0
C      1  0.5375070000000  0.5818320000000  0.3780460000000 1.0
C      1  0.4697980000000  0.5821340000000  0.6181400000000 1.0
C      1  0.4083390000000  0.4996000000000  0.5109500000000 1.0
C      1  0.5850070000000  0.5028510000000  0.4853600000000 1.0
C      1  0.4887520000000  0.5980320000000  0.5037160000000 1.0
C      1  0.5159880000000  0.6000600000000  0.4908740000000 1.0
C      1  0.5876040000000  0.5573250000000  0.4734900000000 1.0
C      1  0.4129830000000  0.5577600000000  0.5190000000000 1.0
END
