TITL C-3201375-1262-376 -107.84675930688 125000 -244.365501223547 0 0 42 (C3) n - 1
REM
REM in /home/nfs/bkarasulu/CARBON/AIRSS/Generating-Clusters/LCBOP/Higher-Symm/SD-CG/FIRE-CG
REM
REM
REM
REM
REM
REM ./C.cell (b20cbc046b6831c77cfcea5457e17084)
REM AIRSS Version 0.9.1 bugfix July 2018 build 013d7b7c2542+ Fri, 06 Jul 2018 19:26:36 +0100
REM compiler GCC version 9.2.1 20190827 (Red Hat 9.2.1-1)
REM options -cpp -mtune=generic -march=x86-64 -g -O0 -fpre-include=/usr/include/finclude/math-vector-fortran.h
REM seed 2133954281 -996862884 373903947 -158998564 -1513222447 443122934 -467688616 -1967442964 -146046223 212879743 -1379987229 713118901 -177660331 1270626886 -1530123881 2070554947 -1543091671 299444651 265849944 1936586973 -2044991873 -1206660334 -952067704 1183360279 -1898572010 -1247551208 -415411644 1054163183 340817867 946377721 1891666693 588235906 1639312193
REM
CELL 1.54180   50.00000   50.00000   50.00000   90.00000   90.00000   90.00000
LATT -1
SFAC C  
C      1  0.5010460000000  0.5423510000000  0.4633530000000 1.0
C      1  0.5311930000000  0.5425290000000  0.5189490000000 1.0
C      1  0.4677070000000  0.5426790000000  0.5178590000000 1.0
C      1  0.4461720000000  0.4819150000000  0.4875800000000 1.0
C      1  0.5379810000000  0.4820080000000  0.4592750000000 1.0
C      1  0.5158590000000  0.4820420000000  0.5528060000000 1.0
C      1  0.5570660000000  0.5025940000000  0.5282960000000 1.0
C      1  0.4465900000000  0.5026280000000  0.5354440000000 1.0
C      1  0.4959750000000  0.5024710000000  0.4360260000000 1.0
C      1  0.4392650000000  0.4984770000000  0.5095740000000 1.0
C      1  0.5221530000000  0.4983760000000  0.4422810000000 1.0
C      1  0.5383520000000  0.4985550000000  0.5476220000000 1.0
C      1  0.5556900000000  0.4876360000000  0.4818690000000 1.0
C      1  0.4875280000000  0.4875800000000  0.5572600000000 1.0
C      1  0.4568000000000  0.4874000000000  0.4609310000000 1.0
C      1  0.4701630000000  0.5103890000000  0.5508540000000 1.0
C      1  0.4709910000000  0.5102320000000  0.4490820000000 1.0
C      1  0.5586900000000  0.5104450000000  0.5001930000000 1.0
C      1  0.5060840000000  0.5203470000000  0.4800520000000 1.0
C      1  0.5138800000000  0.5209620000000  0.5138380000000 1.0
C      1  0.4803980000000  0.5209570000000  0.5053660000000 1.0
C      1  0.5224340000000  0.5579710000000  0.5408110000000 1.0
C      1  0.4535660000000  0.5583830000000  0.4992430000000 1.0
C      1  0.5239750000000  0.5584490000000  0.4603350000000 1.0
C      1  0.5396510000000  0.4414760000000  0.5317610000000 1.0
C      1  0.4522860000000  0.4413580000000  0.5187610000000 1.0
C      1  0.5080750000000  0.4412730000000  0.4493990000000 1.0
C      1  0.5470670000000  0.5544870000000  0.4744490000000 1.0
C      1  0.4986860000000  0.5540250000000  0.5537530000000 1.0
C      1  0.4545230000000  0.5541810000000  0.4722420000000 1.0
C      1  0.4724530000000  0.4632880000000  0.5598940000000 1.0
C      1  0.4622640000000  0.4630770000000  0.4466880000000 1.0
C      1  0.5653400000000  0.4633360000000  0.4937610000000 1.0
C      1  0.4820460000000  0.4450940000000  0.4443760000000 1.0
C      1  0.5572710000000  0.4453360000000  0.5119620000000 1.0
C      1  0.4606510000000  0.4452440000000  0.5439080000000 1.0
C      1  0.5224130000000  0.4546690000000  0.5475560000000 1.0
C      1  0.4472980000000  0.4545460000000  0.4959160000000 1.0
C      1  0.5303950000000  0.4545640000000  0.4561800000000 1.0
C      1  0.4759850000000  0.5389390000000  0.5459220000000 1.0
C      1  0.4725550000000  0.5387150000000  0.4567580000000 1.0
C      1  0.5514830000000  0.5390140000000  0.4978150000000 1.0
END
