TITL C-3201376-6384-928 1.12927929741557e-07 125000 -1110.37990339192 0 0 179 (C1) n - 1
REM
REM in /home/nfs/bkarasulu/CARBON/AIRSS/Generating-Clusters/LCBOP/Higher-Symm/SD-CG/FIRE-CG
REM
REM
REM
REM
REM
REM ./C.cell (b20cbc046b6831c77cfcea5457e17084)
REM AIRSS Version 0.9.1 bugfix July 2018 build 013d7b7c2542+ Fri, 06 Jul 2018 19:26:36 +0100
REM compiler GCC version 9.2.1 20190827 (Red Hat 9.2.1-1)
REM options -cpp -mtune=generic -march=x86-64 -g -O0 -fpre-include=/usr/include/finclude/math-vector-fortran.h
REM seed 289814306 2080612178 -824230582 538587891 15842818 -106077751 -1692817637 1815871481 -743647272 -364890083 -1727842730 2075615031 -1279607624 977470072 241039576 1966594147 708189222 -1883987503 -1145642608 939883405 1115292327 747003676 -120767877 -1071465038 169271254 615873817 1073736847 1815542007 1540451894 -1035805849 2139602845 -1681283741 -50289392
REM
CELL 1.54180   50.00000   50.00000   50.00000   90.00000   90.00000   90.00000
LATT -1
SFAC C  
C      1  0.5077000000000  0.5438390000000  0.5708770000000 1.0
C      1  0.5498400000000  0.3563300000000  0.5681470000000 1.0
C      1  0.6409030000000  0.5040990000000  0.5115830000000 1.0
C      1  0.4194880000000  0.5998740000000  0.4888950000000 1.0
C      1  0.4945050000000  0.6026120000000  0.4897120000000 1.0
C      1  0.5248710000000  0.3973800000000  0.4398850000000 1.0
C      1  0.4978200000000  0.5445520000000  0.6143320000000 1.0
C      1  0.4887930000000  0.5321500000000  0.5889690000000 1.0
C      1  0.3841600000000  0.4349180000000  0.4635720000000 1.0
C      1  0.5076830000000  0.5067380000000  0.4921920000000 1.0
C      1  0.5238690000000  0.5350340000000  0.6238590000000 1.0
C      1  0.5389370000000  0.5191330000000  0.3806540000000 1.0
C      1  0.4845820000000  0.4593850000000  0.5458780000000 1.0
C      1  0.5690400000000  0.4933120000000  0.5170840000000 1.0
C      1  0.3964570000000  0.5015970000000  0.4198670000000 1.0
C      1  0.5950270000000  0.6044950000000  0.4096870000000 1.0
C      1  0.4946360000000  0.4825250000000  0.4872720000000 1.0
C      1  0.4805960000000  0.3839720000000  0.5310550000000 1.0
C      1  0.4642650000000  0.4490300000000  0.3938750000000 1.0
C      1  0.4270470000000  0.4725370000000  0.5056650000000 1.0
C      1  0.5487450000000  0.4461990000000  0.3964100000000 1.0
C      1  0.5925400000000  0.5320490000000  0.4294390000000 1.0
C      1  0.3848360000000  0.4833540000000  0.4847400000000 1.0
C      1  0.3790450000000  0.4797600000000  0.5415520000000 1.0
C      1  0.5039920000000  0.4436500000000  0.5363880000000 1.0
C      1  0.6351490000000  0.5139060000000  0.5372840000000 1.0
C      1  0.4505750000000  0.4689490000000  0.4404340000000 1.0
C      1  0.4416450000000  0.5047300000000  0.3951810000000 1.0
C      1  0.5028980000000  0.5580880000000  0.4669210000000 1.0
C      1  0.5051940000000  0.4377820000000  0.4717950000000 1.0
C      1  0.5517380000000  0.5193710000000  0.4778250000000 1.0
C      1  0.5545370000000  0.4944520000000  0.4926300000000 1.0
C      1  0.5906260000000  0.4858050000000  0.4444730000000 1.0
C      1  0.5058170000000  0.5918930000000  0.5587600000000 1.0
C      1  0.4070630000000  0.5658460000000  0.4214650000000 1.0
C      1  0.5159300000000  0.6040630000000  0.5350460000000 1.0
C      1  0.6202390000000  0.5194910000000  0.5588080000000 1.0
C      1  0.4784580000000  0.4617840000000  0.4420660000000 1.0
C      1  0.4461400000000  0.4414390000000  0.5640560000000 1.0
C      1  0.6239560000000  0.5168070000000  0.4634410000000 1.0
C      1  0.5726790000000  0.5916410000000  0.4135510000000 1.0
C      1  0.4429870000000  0.5412360000000  0.4364100000000 1.0
C      1  0.4220320000000  0.5830530000000  0.4396930000000 1.0
C      1  0.5365020000000  0.4497930000000  0.5871020000000 1.0
C      1  0.5410660000000  0.4009960000000  0.4630360000000 1.0
C      1  0.5113430000000  0.5170100000000  0.5179900000000 1.0
C      1  0.5580190000000  0.5943360000000  0.5066930000000 1.0
C      1  0.5309650000000  0.5313040000000  0.4321890000000 1.0
C      1  0.4524010000000  0.4619280000000  0.4997910000000 1.0
C      1  0.3976120000000  0.5581450000000  0.5585720000000 1.0
C      1  0.5774690000000  0.4974030000000  0.3931310000000 1.0
C      1  0.5181820000000  0.5657930000000  0.5110560000000 1.0
C      1  0.4251050000000  0.5923380000000  0.5153150000000 1.0
C      1  0.3631480000000  0.4425160000000  0.4798890000000 1.0
C      1  0.5651350000000  0.4336470000000  0.4132480000000 1.0
C      1  0.4091900000000  0.4492220000000  0.4627140000000 1.0
C      1  0.5017370000000  0.5328660000000  0.4264000000000 1.0
C      1  0.4769900000000  0.4082660000000  0.5743930000000 1.0
C      1  0.4558190000000  0.4917900000000  0.5832630000000 1.0
C      1  0.5935240000000  0.4638440000000  0.5449680000000 1.0
C      1  0.5212450000000  0.3716920000000  0.5018750000000 1.0
C      1  0.4158650000000  0.5457670000000  0.5759960000000 1.0
C      1  0.4805200000000  0.4866220000000  0.5403990000000 1.0
C      1  0.5736650000000  0.4644660000000  0.5626910000000 1.0
C      1  0.5051960000000  0.3984290000000  0.4217240000000 1.0
C      1  0.5241190000000  0.5011450000000  0.5802090000000 1.0
C      1  0.5814660000000  0.5245460000000  0.4036360000000 1.0
C      1  0.5194420000000  0.5682150000000  0.5677720000000 1.0
C      1  0.5110750000000  0.5233560000000  0.3802820000000 1.0
C      1  0.5820040000000  0.4075040000000  0.5282530000000 1.0
C      1  0.4556770000000  0.5432830000000  0.6528070000000 1.0
C      1  0.5108530000000  0.4858620000000  0.6018230000000 1.0
C      1  0.5715010000000  0.4278700000000  0.4385020000000 1.0
C      1  0.4794240000000  0.5474330000000  0.5354510000000 1.0
C      1  0.5073250000000  0.4711710000000  0.4017300000000 1.0
C      1  0.4996150000000  0.3717490000000  0.5172230000000 1.0
C      1  0.6121100000000  0.4541030000000  0.4795110000000 1.0
C      1  0.4207030000000  0.5405710000000  0.4177100000000 1.0
C      1  0.4457880000000  0.4684540000000  0.5736190000000 1.0
C      1  0.4736260000000  0.4972560000000  0.6391130000000 1.0
C      1  0.4774200000000  0.5871600000000  0.5641050000000 1.0
C      1  0.4627310000000  0.5655650000000  0.6393440000000 1.0
C      1  0.5464200000000  0.5177370000000  0.6153750000000 1.0
C      1  0.5569810000000  0.4184600000000  0.5330770000000 1.0
C      1  0.6372440000000  0.4576830000000  0.4916270000000 1.0
C      1  0.3871640000000  0.5382000000000  0.5106480000000 1.0
C      1  0.5075890000000  0.4972960000000  0.5378030000000 1.0
C      1  0.4699580000000  0.5007030000000  0.3949700000000 1.0
C      1  0.4831850000000  0.4370360000000  0.4556040000000 1.0
C      1  0.4654150000000  0.5728050000000  0.5417660000000 1.0
C      1  0.6046450000000  0.5107330000000  0.4438990000000 1.0
C      1  0.4895650000000  0.4878300000000  0.6198500000000 1.0
C      1  0.5541000000000  0.4719130000000  0.4738380000000 1.0
C      1  0.4840380000000  0.6029820000000  0.4394840000000 1.0
C      1  0.5859310000000  0.5541730000000  0.4469840000000 1.0
C      1  0.6341200000000  0.5181580000000  0.4881020000000 1.0
C      1  0.5569380000000  0.5377050000000  0.3945710000000 1.0
C      1  0.6477570000000  0.4770320000000  0.5071120000000 1.0
C      1  0.4845130000000  0.6134080000000  0.4657750000000 1.0
C      1  0.4737990000000  0.5766280000000  0.4365190000000 1.0
C      1  0.4013680000000  0.5270010000000  0.4888190000000 1.0
C      1  0.3641270000000  0.4667940000000  0.4953390000000 1.0
C      1  0.4610020000000  0.4192250000000  0.4593620000000 1.0
C      1  0.3862020000000  0.5445260000000  0.5366410000000 1.0
C      1  0.5875610000000  0.4713280000000  0.5188250000000 1.0
C      1  0.5340880000000  0.4697690000000  0.3916800000000 1.0
C      1  0.4407090000000  0.5431130000000  0.5125350000000 1.0
C      1  0.5052060000000  0.5439460000000  0.5235890000000 1.0
C      1  0.5650530000000  0.5412820000000  0.4892730000000 1.0
C      1  0.5373010000000  0.3832980000000  0.4842340000000 1.0
C      1  0.4623790000000  0.5197510000000  0.5858180000000 1.0
C      1  0.5622610000000  0.4440090000000  0.4857970000000 1.0
C      1  0.5757160000000  0.5619160000000  0.4726640000000 1.0
C      1  0.5896900000000  0.4525110000000  0.4970000000000 1.0
C      1  0.4824500000000  0.4066530000000  0.4100390000000 1.0
C      1  0.4989280000000  0.6156200000000  0.5148920000000 1.0
C      1  0.3615730000000  0.4698600000000  0.5233480000000 1.0
C      1  0.3856360000000  0.5073500000000  0.4440310000000 1.0
C      1  0.4152890000000  0.5973650000000  0.4626090000000 1.0
C      1  0.4043900000000  0.4887250000000  0.5443090000000 1.0
C      1  0.5680900000000  0.5400920000000  0.5177420000000 1.0
C      1  0.4590080000000  0.5280930000000  0.5292880000000 1.0
C      1  0.4605650000000  0.4250730000000  0.4102260000000 1.0
C      1  0.5017910000000  0.4720910000000  0.4298040000000 1.0
C      1  0.4430900000000  0.4194800000000  0.6096150000000 1.0
C      1  0.5668910000000  0.5168590000000  0.5345750000000 1.0
C      1  0.5498480000000  0.4923800000000  0.3842320000000 1.0
C      1  0.5965630000000  0.5216710000000  0.5714150000000 1.0
C      1  0.5036520000000  0.6100730000000  0.4208650000000 1.0
C      1  0.5045000000000  0.5754910000000  0.4882070000000 1.0
C      1  0.5466180000000  0.5131290000000  0.4494520000000 1.0
C      1  0.5084090000000  0.4574010000000  0.4913000000000 1.0
C      1  0.4175790000000  0.5149730000000  0.4066420000000 1.0
C      1  0.4607010000000  0.5169530000000  0.6517730000000 1.0
C      1  0.4092150000000  0.4687920000000  0.4842470000000 1.0
C      1  0.4801570000000  0.4732630000000  0.3908220000000 1.0
C      1  0.5255640000000  0.5976150000000  0.4122670000000 1.0
C      1  0.5478200000000  0.3818510000000  0.5632770000000 1.0
C      1  0.4301650000000  0.5265900000000  0.4918560000000 1.0
C      1  0.5599050000000  0.4227730000000  0.4638070000000 1.0
C      1  0.5483690000000  0.5167210000000  0.5856700000000 1.0
C      1  0.4297330000000  0.4487860000000  0.4429420000000 1.0
C      1  0.4726720000000  0.5823440000000  0.5925510000000 1.0
C      1  0.3874810000000  0.5083240000000  0.4721780000000 1.0
C      1  0.3977790000000  0.5863390000000  0.5563210000000 1.0
C      1  0.4530690000000  0.5199700000000  0.4514540000000 1.0
C      1  0.4555620000000  0.5005380000000  0.5347770000000 1.0
C      1  0.4475050000000  0.5693630000000  0.4401980000000 1.0
C      1  0.4394470000000  0.5364980000000  0.5844230000000 1.0
C      1  0.4534260000000  0.4275290000000  0.5371450000000 1.0
C      1  0.4089010000000  0.6011170000000  0.5367170000000 1.0
C      1  0.5690320000000  0.5192100000000  0.5642070000000 1.0
C      1  0.4498190000000  0.5090560000000  0.4776140000000 1.0
C      1  0.5353350000000  0.5867830000000  0.5216020000000 1.0
C      1  0.6060380000000  0.4638010000000  0.4536570000000 1.0
C      1  0.4543300000000  0.4344820000000  0.5085770000000 1.0
C      1  0.4285900000000  0.4884910000000  0.5296390000000 1.0
C      1  0.4703460000000  0.4047250000000  0.5462860000000 1.0
C      1  0.4545750000000  0.4226740000000  0.5852510000000 1.0
C      1  0.4914600000000  0.5207330000000  0.4012700000000 1.0
C      1  0.5499800000000  0.4887250000000  0.6239580000000 1.0
C      1  0.5443660000000  0.4094300000000  0.5578950000000 1.0
C      1  0.5471210000000  0.5800960000000  0.4150860000000 1.0
C      1  0.5457320000000  0.4655270000000  0.5643820000000 1.0
C      1  0.4917970000000  0.5551220000000  0.4415190000000 1.0
C      1  0.5723090000000  0.5873090000000  0.4847300000000 1.0
C      1  0.4659700000000  0.4843290000000  0.4865140000000 1.0
C      1  0.5444350000000  0.5518020000000  0.4157590000000 1.0
C      1  0.5206320000000  0.4467920000000  0.5144250000000 1.0
C      1  0.5288310000000  0.4235060000000  0.5783530000000 1.0
C      1  0.5031700000000  0.4126250000000  0.5834810000000 1.0
C      1  0.5332140000000  0.4681770000000  0.6102140000000 1.0
C      1  0.5614890000000  0.4861040000000  0.4482080000000 1.0
C      1  0.5268090000000  0.4866710000000  0.5559800000000 1.0
C      1  0.4539680000000  0.4157910000000  0.4867160000000 1.0
C      1  0.4430920000000  0.5713440000000  0.5218500000000 1.0
C      1  0.4444070000000  0.4243790000000  0.4352700000000 1.0
C      1  0.5464200000000  0.4356130000000  0.5121130000000 1.0
C      1  0.4797510000000  0.5677260000000  0.6168900000000 1.0
END
