TITL C-3201375-1262-298 -1.13005225105729e-06 125000 -859.876029939062 0 0 142 (C1) n - 1
REM
REM in /home/nfs/bkarasulu/CARBON/AIRSS/Generating-Clusters/LCBOP/Higher-Symm/SD-CG/FIRE-CG
REM
REM
REM
REM
REM
REM ./C.cell (b20cbc046b6831c77cfcea5457e17084)
REM AIRSS Version 0.9.1 bugfix July 2018 build 013d7b7c2542+ Fri, 06 Jul 2018 19:26:36 +0100
REM compiler GCC version 9.2.1 20190827 (Red Hat 9.2.1-1)
REM options -cpp -mtune=generic -march=x86-64 -g -O0 -fpre-include=/usr/include/finclude/math-vector-fortran.h
REM seed -1426244080 -1519351931 -1137750422 687595928 -1517503679 -1687414450 442486367 -1512560689 1576070789 -747999495 -395897851 -136239596 -2077921990 -551125413 -612684920 919972291 1278180139 -480036824 1932527259 -279346253 -192522541 1298787771 -1283923492 608339974 -1027881237 1627673840 509141476 363767038 62476844 -1245286552 -1320488634 -1912376204 -555693086
REM
CELL 1.54180   50.00000   50.00000   50.00000   90.00000   90.00000   90.00000
LATT -1
SFAC C  
C      1  0.4412460000000  0.4637440000000  0.4793940000000 1.0
C      1  0.4461590000000  0.4822690000000  0.4587480000000 1.0
C      1  0.4806930000000  0.4535450000000  0.4264930000000 1.0
C      1  0.4538730000000  0.5810740000000  0.5263510000000 1.0
C      1  0.5430960000000  0.4222630000000  0.5204760000000 1.0
C      1  0.5617820000000  0.5392130000000  0.4778280000000 1.0
C      1  0.4622310000000  0.5258920000000  0.5697940000000 1.0
C      1  0.5355400000000  0.4792280000000  0.5649710000000 1.0
C      1  0.5656990000000  0.5194350000000  0.4585570000000 1.0
C      1  0.4796430000000  0.5469960000000  0.5667800000000 1.0
C      1  0.5178650000000  0.4582380000000  0.5589010000000 1.0
C      1  0.5164890000000  0.5415090000000  0.4330350000000 1.0
C      1  0.6006100000000  0.5283740000000  0.5157740000000 1.0
C      1  0.5231660000000  0.5197180000000  0.6061290000000 1.0
C      1  0.5156760000000  0.6109490000000  0.5247720000000 1.0
C      1  0.6039690000000  0.4790060000000  0.4816600000000 1.0
C      1  0.3968250000000  0.5183340000000  0.4829110000000 1.0
C      1  0.3944940000000  0.4696510000000  0.5171420000000 1.0
C      1  0.5238660000000  0.4804330000000  0.3919080000000 1.0
C      1  0.4777970000000  0.5185640000000  0.3936090000000 1.0
C      1  0.4761650000000  0.4813050000000  0.6054410000000 1.0
C      1  0.5193010000000  0.3898000000000  0.4762890000000 1.0
C      1  0.4808550000000  0.6078830000000  0.4768100000000 1.0
C      1  0.4831730000000  0.3889740000000  0.5242190000000 1.0
C      1  0.5853450000000  0.4319560000000  0.5084550000000 1.0
C      1  0.4231080000000  0.5054130000000  0.5785260000000 1.0
C      1  0.5076480000000  0.5852220000000  0.4303100000000 1.0
C      1  0.5749870000000  0.5803360000000  0.4911970000000 1.0
C      1  0.4245290000000  0.4221940000000  0.4919750000000 1.0
C      1  0.4143460000000  0.5660810000000  0.5112000000000 1.0
C      1  0.4310830000000  0.4925260000000  0.4160810000000 1.0
C      1  0.5710310000000  0.5070290000000  0.4141870000000 1.0
C      1  0.5749020000000  0.4965290000000  0.5782910000000 1.0
C      1  0.5089920000000  0.4146340000000  0.5714760000000 1.0
C      1  0.4895960000000  0.5900830000000  0.5749710000000 1.0
C      1  0.4918450000000  0.4108860000000  0.4301010000000 1.0
C      1  0.5000530000000  0.5348900000000  0.4546350000000 1.0
C      1  0.5299740000000  0.4376970000000  0.5011700000000 1.0
C      1  0.4681530000000  0.5025280000000  0.5571890000000 1.0
C      1  0.4998560000000  0.4612620000000  0.5375790000000 1.0
C      1  0.5003360000000  0.5461820000000  0.5485530000000 1.0
C      1  0.4927660000000  0.4632290000000  0.4495730000000 1.0
C      1  0.5434470000000  0.5338660000000  0.4981130000000 1.0
C      1  0.4428400000000  0.4739850000000  0.5048900000000 1.0
C      1  0.4679920000000  0.5661320000000  0.5092050000000 1.0
C      1  0.4613120000000  0.5055240000000  0.4651720000000 1.0
C      1  0.5512820000000  0.4960670000000  0.4628900000000 1.0
C      1  0.5313630000000  0.5038890000000  0.5530040000000 1.0
C      1  0.5684300000000  0.5293490000000  0.4322590000000 1.0
C      1  0.5292390000000  0.4335440000000  0.5657930000000 1.0
C      1  0.4291620000000  0.5706730000000  0.5362720000000 1.0
C      1  0.5633360000000  0.4712220000000  0.5689520000000 1.0
C      1  0.4340750000000  0.5320430000000  0.5723090000000 1.0
C      1  0.4378040000000  0.4718000000000  0.4339570000000 1.0
C      1  0.5301700000000  0.5665410000000  0.4311120000000 1.0
C      1  0.4679410000000  0.4280620000000  0.4296250000000 1.0
C      1  0.4673930000000  0.5717010000000  0.5719810000000 1.0
C      1  0.4354520000000  0.4370500000000  0.4703730000000 1.0
C      1  0.5662270000000  0.5660880000000  0.4678060000000 1.0
C      1  0.5679510000000  0.4310390000000  0.5321130000000 1.0
C      1  0.4109070000000  0.5388220000000  0.4682390000000 1.0
C      1  0.5424160000000  0.4644620000000  0.4077890000000 1.0
C      1  0.4682210000000  0.4041400000000  0.5440080000000 1.0
C      1  0.4104850000000  0.4507310000000  0.5322000000000 1.0
C      1  0.5861300000000  0.5487050000000  0.5304180000000 1.0
C      1  0.5910010000000  0.4585520000000  0.4654710000000 1.0
C      1  0.5414240000000  0.5363400000000  0.5904020000000 1.0
C      1  0.4574640000000  0.4658840000000  0.5890880000000 1.0
C      1  0.4590270000000  0.5338600000000  0.4096390000000 1.0
C      1  0.4654040000000  0.5904820000000  0.4594490000000 1.0
C      1  0.5346930000000  0.4069530000000  0.4582300000000 1.0
C      1  0.5305270000000  0.5967680000000  0.5451430000000 1.0
C      1  0.4967000000000  0.4730870000000  0.3857880000000 1.0
C      1  0.4738910000000  0.3877330000000  0.4968730000000 1.0
C      1  0.3901830000000  0.4920780000000  0.4731270000000 1.0
C      1  0.4958840000000  0.5267490000000  0.6130520000000 1.0
C      1  0.5038300000000  0.4736270000000  0.6095720000000 1.0
C      1  0.5049970000000  0.5264480000000  0.3883200000000 1.0
C      1  0.4725310000000  0.6194350000000  0.5018690000000 1.0
C      1  0.5272230000000  0.3803390000000  0.5024560000000 1.0
C      1  0.5255800000000  0.6101110000000  0.4977070000000 1.0
C      1  0.3919320000000  0.4965750000000  0.5271870000000 1.0
C      1  0.5999240000000  0.5013610000000  0.5258260000000 1.0
C      1  0.6131420000000  0.5051250000000  0.4734400000000 1.0
C      1  0.3935720000000  0.5188610000000  0.5114320000000 1.0
C      1  0.5261860000000  0.5089400000000  0.3879540000000 1.0
C      1  0.5107530000000  0.3806430000000  0.5246490000000 1.0
C      1  0.3885860000000  0.4696250000000  0.4890020000000 1.0
C      1  0.6116000000000  0.5278060000000  0.4891650000000 1.0
C      1  0.6017620000000  0.4789810000000  0.5103330000000 1.0
C      1  0.5250450000000  0.4911860000000  0.6106140000000 1.0
C      1  0.4746500000000  0.5091040000000  0.6133860000000 1.0
C      1  0.4754710000000  0.4905410000000  0.3872210000000 1.0
C      1  0.5095630000000  0.6084700000000  0.4756520000000 1.0
C      1  0.4904700000000  0.3879100000000  0.4750310000000 1.0
C      1  0.4885070000000  0.6201540000000  0.5243730000000 1.0
C      1  0.4199550000000  0.5333510000000  0.4414960000000 1.0
C      1  0.5336260000000  0.4387010000000  0.4185960000000 1.0
C      1  0.4418550000000  0.4122090000000  0.5364710000000 1.0
C      1  0.4189950000000  0.4601340000000  0.5580130000000 1.0
C      1  0.5784300000000  0.5410600000000  0.5570580000000 1.0
C      1  0.5828070000000  0.4647190000000  0.4384420000000 1.0
C      1  0.5324400000000  0.5635080000000  0.5832600000000 1.0
C      1  0.4663900000000  0.4393790000000  0.5803510000000 1.0
C      1  0.4660800000000  0.5600680000000  0.4191950000000 1.0
C      1  0.4398040000000  0.5798640000000  0.4686120000000 1.0
C      1  0.5607940000000  0.4175110000000  0.4661370000000 1.0
C      1  0.5565040000000  0.5878440000000  0.5366590000000 1.0
C      1  0.4886610000000  0.4419800000000  0.5207810000000 1.0
C      1  0.4639520000000  0.5430510000000  0.4967530000000 1.0
C      1  0.5301100000000  0.4910540000000  0.4460150000000 1.0
C      1  0.5044560000000  0.5498730000000  0.4777560000000 1.0
C      1  0.4930300000000  0.4476020000000  0.4726080000000 1.0
C      1  0.5114660000000  0.5541240000000  0.5260290000000 1.0
C      1  0.4543350000000  0.4983700000000  0.5113390000000 1.0
C      1  0.5395930000000  0.5074230000000  0.5066770000000 1.0
C      1  0.5433030000000  0.4607610000000  0.4936780000000 1.0
C      1  0.5216380000000  0.5025780000000  0.5270790000000 1.0
C      1  0.4735310000000  0.4981600000000  0.5308390000000 1.0
C      1  0.4866990000000  0.5104400000000  0.4542150000000 1.0
C      1  0.5809270000000  0.4343350000000  0.4792390000000 1.0
C      1  0.4322350000000  0.4771010000000  0.5771520000000 1.0
C      1  0.4788710000000  0.5803770000000  0.4351660000000 1.0
C      1  0.5745210000000  0.5734800000000  0.5195550000000 1.0
C      1  0.4234990000000  0.4270790000000  0.5205190000000 1.0
C      1  0.4200970000000  0.5629830000000  0.4822870000000 1.0
C      1  0.4350870000000  0.5209330000000  0.4203880000000 1.0
C      1  0.5671310000000  0.4778200000000  0.4177950000000 1.0
C      1  0.5661170000000  0.5249440000000  0.5774380000000 1.0
C      1  0.4804040000000  0.4174990000000  0.5670710000000 1.0
C      1  0.5184050000000  0.5856080000000  0.5696000000000 1.0
C      1  0.5207440000000  0.4175650000000  0.4342870000000 1.0
C      1  0.5205190000000  0.5498340000000  0.5004130000000 1.0
C      1  0.5476390000000  0.4873130000000  0.4891520000000 1.0
C      1  0.4983510000000  0.4872580000000  0.5263390000000 1.0
C      1  0.5022280000000  0.4378110000000  0.4967730000000 1.0
C      1  0.4570540000000  0.5170810000000  0.4906550000000 1.0
C      1  0.5029640000000  0.4885600000000  0.4485420000000 1.0
C      1  0.4330550000000  0.5605270000000  0.5629610000000 1.0
C      1  0.5577700000000  0.5631290000000  0.4389360000000 1.0
C      1  0.5632770000000  0.4424910000000  0.5585310000000 1.0
C      1  0.4423180000000  0.4361770000000  0.4417070000000 1.0
END
