TITL C-3201375-1262-1620 677.114136343921 125000 -1144.11191678419 0 0 185 (C1) n - 1
REM
REM in /home/nfs/bkarasulu/CARBON/AIRSS/Generating-Clusters/LCBOP/Higher-Symm/SD-CG/FIRE-CG
REM
REM
REM
REM
REM
REM ./C.cell (b20cbc046b6831c77cfcea5457e17084)
REM AIRSS Version 0.9.1 bugfix July 2018 build 013d7b7c2542+ Fri, 06 Jul 2018 19:26:36 +0100
REM compiler GCC version 9.2.1 20190827 (Red Hat 9.2.1-1)
REM options -cpp -mtune=generic -march=x86-64 -g -O0 -fpre-include=/usr/include/finclude/math-vector-fortran.h
REM seed 1396666980 155625643 1020096871 1502423635 -378532826 1599970044 -1099152901 983404822 -906009505 -21253600 -1104678495 -1785074927 1405692834 -216488994 1227615227 1400118812 1964114901 -1848315014 -2076857809 -1926393563 1666513131 1534958302 -1003171910 -1771296841 2021065542 -591035591 -302983625 -448231508 -2014310261 -1198967607 -240812540 1583920638 1906992153
REM
CELL 1.54180   50.00000   50.00000   50.00000   90.00000   90.00000   90.00000
LATT -1
SFAC C  
C      1  0.5454240000000  0.5857020000000  0.4464690000000 1.0
C      1  0.5927800000000  0.5194580000000  0.4472940000000 1.0
C      1  0.5702470000000  0.4419840000000  0.4464770000000 1.0
C      1  0.4976080000000  0.4092440000000  0.4508100000000 1.0
C      1  0.4266590000000  0.4465680000000  0.4496660000000 1.0
C      1  0.4098600000000  0.5250780000000  0.4440860000000 1.0
C      1  0.4632110000000  0.5889750000000  0.4419270000000 1.0
C      1  0.4793800000000  0.3840300000000  0.5450340000000 1.0
C      1  0.3953560000000  0.4490370000000  0.5474340000000 1.0
C      1  0.3991490000000  0.5533460000000  0.5385720000000 1.0
C      1  0.4743910000000  0.6115390000000  0.5395090000000 1.0
C      1  0.5663620000000  0.5872250000000  0.5481020000000 1.0
C      1  0.6149420000000  0.5017680000000  0.5461550000000 1.0
C      1  0.5850650000000  0.4052800000000  0.5381730000000 1.0
C      1  0.4685100000000  0.3992410000000  0.5234830000000 1.0
C      1  0.4030400000000  0.4638520000000  0.5233940000000 1.0
C      1  0.4154910000000  0.5552590000000  0.5148950000000 1.0
C      1  0.4861960000000  0.5986630000000  0.5166530000000 1.0
C      1  0.5693280000000  0.5722530000000  0.5234260000000 1.0
C      1  0.6029240000000  0.4909110000000  0.5220850000000 1.0
C      1  0.5643580000000  0.4094110000000  0.5181230000000 1.0
C      1  0.4546960000000  0.5052450000000  0.3736820000000 1.0
C      1  0.4710540000000  0.5379240000000  0.3734600000000 1.0
C      1  0.5066400000000  0.5444170000000  0.3766560000000 1.0
C      1  0.5327740000000  0.5203780000000  0.3804920000000 1.0
C      1  0.5300290000000  0.4850550000000  0.3818610000000 1.0
C      1  0.5059200000000  0.4664290000000  0.3807290000000 1.0
C      1  0.4708180000000  0.4729200000000  0.3770240000000 1.0
C      1  0.6027770000000  0.4428330000000  0.4886630000000 1.0
C      1  0.5195360000000  0.3847350000000  0.4940040000000 1.0
C      1  0.4207170000000  0.4166400000000  0.4946310000000 1.0
C      1  0.3877430000000  0.5118280000000  0.4930850000000 1.0
C      1  0.4361920000000  0.6022940000000  0.4865300000000 1.0
C      1  0.5367730000000  0.6118300000000  0.4944380000000 1.0
C      1  0.6103460000000  0.5422940000000  0.4944750000000 1.0
C      1  0.4283160000000  0.5045680000000  0.3815230000000 1.0
C      1  0.4548290000000  0.5595310000000  0.3786250000000 1.0
C      1  0.5149660000000  0.5703270000000  0.3818360000000 1.0
C      1  0.5581400000000  0.5302360000000  0.3858060000000 1.0
C      1  0.5550370000000  0.4728380000000  0.3860140000000 1.0
C      1  0.5108410000000  0.4395380000000  0.3876340000000 1.0
C      1  0.4551500000000  0.4519310000000  0.3864660000000 1.0
C      1  0.4915000000000  0.4631110000000  0.5356340000000 1.0
C      1  0.4657960000000  0.5022400000000  0.5028600000000 1.0
C      1  0.4776890000000  0.5269700000000  0.5077530000000 1.0
C      1  0.5047430000000  0.5331140000000  0.5064240000000 1.0
C      1  0.5272460000000  0.5198470000000  0.5192910000000 1.0
C      1  0.5359320000000  0.4914590000000  0.5264790000000 1.0
C      1  0.5212850000000  0.4646970000000  0.5347680000000 1.0
C      1  0.4316740000000  0.5456630000000  0.4361450000000 1.0
C      1  0.4930730000000  0.5843580000000  0.4364420000000 1.0
C      1  0.5592380000000  0.5590150000000  0.4413990000000 1.0
C      1  0.5796630000000  0.4923830000000  0.4423780000000 1.0
C      1  0.5407130000000  0.4358650000000  0.4450360000000 1.0
C      1  0.4737550000000  0.4276270000000  0.4486850000000 1.0
C      1  0.4263780000000  0.4765000000000  0.4439690000000 1.0
C      1  0.5281860000000  0.4425780000000  0.6074730000000 1.0
C      1  0.5018280000000  0.4345670000000  0.6127170000000 1.0
C      1  0.4544710000000  0.5198640000000  0.5919620000000 1.0
C      1  0.4639430000000  0.5431260000000  0.6066590000000 1.0
C      1  0.4936780000000  0.5457690000000  0.6072750000000 1.0
C      1  0.5157400000000  0.5253300000000  0.6032270000000 1.0
C      1  0.5334110000000  0.4695760000000  0.5917610000000 1.0
C      1  0.5364850000000  0.4144850000000  0.5315560000000 1.0
C      1  0.4531590000000  0.4246800000000  0.5332090000000 1.0
C      1  0.4172210000000  0.4906140000000  0.5314280000000 1.0
C      1  0.4436420000000  0.5661580000000  0.5214280000000 1.0
C      1  0.5102740000000  0.5811440000000  0.5248960000000 1.0
C      1  0.5733360000000  0.5419970000000  0.5293200000000 1.0
C      1  0.5826260000000  0.4679040000000  0.5283020000000 1.0
C      1  0.4426620000000  0.5721430000000  0.4265810000000 1.0
C      1  0.5209050000000  0.5914300000000  0.4279050000000 1.0
C      1  0.5807860000000  0.5418610000000  0.4305680000000 1.0
C      1  0.5795730000000  0.4655370000000  0.4304940000000 1.0
C      1  0.5205890000000  0.4180540000000  0.4338980000000 1.0
C      1  0.4484390000000  0.4324390000000  0.4351670000000 1.0
C      1  0.4126550000000  0.4985710000000  0.4305530000000 1.0
C      1  0.6062070000000  0.4232560000000  0.5336110000000 1.0
C      1  0.5057080000000  0.3755960000000  0.5405110000000 1.0
C      1  0.4040900000000  0.4223590000000  0.5422100000000 1.0
C      1  0.3845620000000  0.5294730000000  0.5390460000000 1.0
C      1  0.4468500000000  0.6141690000000  0.5343670000000 1.0
C      1  0.5484890000000  0.6083160000000  0.5433810000000 1.0
C      1  0.6196430000000  0.5292100000000  0.5422500000000 1.0
C      1  0.4741740000000  0.5195100000000  0.5697090000000 1.0
C      1  0.4778750000000  0.5446740000000  0.5544490000000 1.0
C      1  0.5277180000000  0.5377070000000  0.5459830000000 1.0
C      1  0.5552600000000  0.5000820000000  0.5507220000000 1.0
C      1  0.5394030000000  0.4569970000000  0.5610830000000 1.0
C      1  0.4797390000000  0.4743500000000  0.5582860000000 1.0
C      1  0.4536360000000  0.4641900000000  0.5619720000000 1.0
C      1  0.5775520000000  0.3995310000000  0.5653710000000 1.0
C      1  0.4697810000000  0.3911280000000  0.5706500000000 1.0
C      1  0.3946900000000  0.4643750000000  0.5730480000000 1.0
C      1  0.4087580000000  0.5652860000000  0.5626160000000 1.0
C      1  0.4877240000000  0.6059640000000  0.5640410000000 1.0
C      1  0.5678340000000  0.5731730000000  0.5731050000000 1.0
C      1  0.6083070000000  0.4902750000000  0.5716990000000 1.0
C      1  0.4267460000000  0.4834740000000  0.4886620000000 1.0
C      1  0.4457980000000  0.5442710000000  0.4785390000000 1.0
C      1  0.4985350000000  0.5730230000000  0.4803800000000 1.0
C      1  0.5546600000000  0.5474050000000  0.4859140000000 1.0
C      1  0.5703550000000  0.4893450000000  0.4874810000000 1.0
C      1  0.5378480000000  0.4388050000000  0.4912610000000 1.0
C      1  0.4776420000000  0.4349510000000  0.4951340000000 1.0
C      1  0.4251510000000  0.4180430000000  0.5231170000000 1.0
C      1  0.3937260000000  0.5092200000000  0.5218510000000 1.0
C      1  0.4377800000000  0.5957760000000  0.5145860000000 1.0
C      1  0.5311920000000  0.6034620000000  0.5216440000000 1.0
C      1  0.6030550000000  0.5408930000000  0.5225330000000 1.0
C      1  0.5997740000000  0.4452970000000  0.5172800000000 1.0
C      1  0.5225570000000  0.3891970000000  0.5225190000000 1.0
C      1  0.5621690000000  0.5741060000000  0.4938470000000 1.0
C      1  0.5967310000000  0.4989920000000  0.4936040000000 1.0
C      1  0.5619240000000  0.4225010000000  0.4913160000000 1.0
C      1  0.4790970000000  0.4062510000000  0.4968190000000 1.0
C      1  0.4100010000000  0.4614030000000  0.4946630000000 1.0
C      1  0.4177410000000  0.5458680000000  0.4870050000000 1.0
C      1  0.4818590000000  0.5950730000000  0.4877210000000 1.0
C      1  0.4986920000000  0.5631770000000  0.4549660000000 1.0
C      1  0.5461510000000  0.5418800000000  0.4604060000000 1.0
C      1  0.5592590000000  0.4922640000000  0.4625280000000 1.0
C      1  0.5297990000000  0.4502900000000  0.4674000000000 1.0
C      1  0.4784630000000  0.4462550000000  0.4700460000000 1.0
C      1  0.4422810000000  0.4863620000000  0.4656110000000 1.0
C      1  0.4540980000000  0.5356460000000  0.4522840000000 1.0
C      1  0.4538440000000  0.5602520000000  0.5493810000000 1.0
C      1  0.5061710000000  0.5614590000000  0.5503700000000 1.0
C      1  0.5575070000000  0.5305850000000  0.5544760000000 1.0
C      1  0.5678790000000  0.4718710000000  0.5553650000000 1.0
C      1  0.5402450000000  0.4261340000000  0.5589520000000 1.0
C      1  0.4528300000000  0.4352230000000  0.5617400000000 1.0
C      1  0.4318490000000  0.4819140000000  0.5566070000000 1.0
C      1  0.4688600000000  0.4911320000000  0.4760170000000 1.0
C      1  0.4773560000000  0.5248530000000  0.4385530000000 1.0
C      1  0.5011880000000  0.5364040000000  0.4478840000000 1.0
C      1  0.5254170000000  0.5239010000000  0.4538630000000 1.0
C      1  0.5317130000000  0.4969260000000  0.4583560000000 1.0
C      1  0.5156470000000  0.4746820000000  0.4641200000000 1.0
C      1  0.4880300000000  0.4726760000000  0.4679820000000 1.0
C      1  0.4783810000000  0.4262170000000  0.6031480000000 1.0
C      1  0.4300480000000  0.5045110000000  0.5952070000000 1.0
C      1  0.4467670000000  0.5647720000000  0.5976060000000 1.0
C      1  0.5020540000000  0.5720890000000  0.5990810000000 1.0
C      1  0.5421830000000  0.5363870000000  0.5997160000000 1.0
C      1  0.5629510000000  0.4787420000000  0.5998360000000 1.0
C      1  0.5486930000000  0.4222550000000  0.6041690000000 1.0
C      1  0.5098250000000  0.5608310000000  0.5024700000000 1.0
C      1  0.5542070000000  0.5305970000000  0.5076350000000 1.0
C      1  0.5586610000000  0.4783870000000  0.5095340000000 1.0
C      1  0.5273350000000  0.4398390000000  0.5169430000000 1.0
C      1  0.4734870000000  0.4464420000000  0.5201810000000 1.0
C      1  0.4390140000000  0.4956570000000  0.5115290000000 1.0
C      1  0.4601720000000  0.5487190000000  0.5024970000000 1.0
C      1  0.5161490000000  0.4210420000000  0.4061780000000 1.0
C      1  0.4486940000000  0.4358750000000  0.4069930000000 1.0
C      1  0.4124650000000  0.4993020000000  0.4023790000000 1.0
C      1  0.4438650000000  0.5740460000000  0.3982460000000 1.0
C      1  0.5240320000000  0.5881280000000  0.3998090000000 1.0
C      1  0.5777210000000  0.5370230000000  0.4027630000000 1.0
C      1  0.5742390000000  0.4649530000000  0.4027950000000 1.0
C      1  0.4641870000000  0.4171240000000  0.5808310000000 1.0
C      1  0.4149640000000  0.4848360000000  0.5798240000000 1.0
C      1  0.4358030000000  0.5663120000000  0.5711550000000 1.0
C      1  0.5021210000000  0.5826550000000  0.5729260000000 1.0
C      1  0.5596610000000  0.5464800000000  0.5796020000000 1.0
C      1  0.5840330000000  0.4777940000000  0.5799500000000 1.0
C      1  0.5561560000000  0.4128380000000  0.5784870000000 1.0
C      1  0.5500510000000  0.5944310000000  0.4757450000000 1.0
C      1  0.6041470000000  0.5213170000000  0.4756960000000 1.0
C      1  0.5816300000000  0.4328610000000  0.4723160000000 1.0
C      1  0.4986670000000  0.3958250000000  0.4777810000000 1.0
C      1  0.4161680000000  0.4388990000000  0.4771670000000 1.0
C      1  0.4007810000000  0.5277230000000  0.4725690000000 1.0
C      1  0.4590710000000  0.5988590000000  0.4699090000000 1.0
C      1  0.4988540000000  0.5034970000000  0.3364400000000 1.0
C      1  0.4805530000000  0.4832050000000  0.6431840000000 1.0
C      1  0.4815740000000  0.5043380000000  0.4187600000000 1.0
C      1  0.4646440000000  0.4816210000000  0.6637700000000 1.0
C      1  0.4935960000000  0.5063310000000  0.3928300000000 1.0
C      1  0.4965800000000  0.5046570000000  0.3625070000000 1.0
C      1  0.4780800000000  0.4785880000000  0.4273500000000 1.0
C      1  0.4953220000000  0.4851110000000  0.6212820000000 1.0
C      1  0.4906390000000  0.4962210000000  0.5717640000000 1.0
C      1  0.5103740000000  0.4938320000000  0.5959020000000 1.0
END
