TITL C-3201377-4638-2203 0.0181006103398826 125000 -491.961200886571 0 0 84 (C1) n - 1
REM
REM in /home/nfs/bkarasulu/CARBON/AIRSS/Generating-Clusters/LCBOP/Higher-Symm/SD-CG/FIRE-CG
REM
REM
REM
REM
REM
REM ./C.cell (b20cbc046b6831c77cfcea5457e17084)
REM AIRSS Version 0.9.1 bugfix July 2018 build 013d7b7c2542+ Fri, 06 Jul 2018 19:26:36 +0100
REM compiler GCC version 9.2.1 20190827 (Red Hat 9.2.1-1)
REM options -cpp -mtune=generic -march=x86-64 -g -O0 -fpre-include=/usr/include/finclude/math-vector-fortran.h
REM seed -1243291600 347621446 1932108683 141144617 -595586813 -949378757 1020605827 2135902316 -1210545393 446508176 1741899988 879601342 1845170040 718319007 -1862802967 1666559329 -867254862 -369792394 336821187 -1880296091 291593140 106650791 1852533706 -2103217069 1276176570 1371175721 1327304477 1653904786 859657411 -462384294 -2113129409 -1888792661 770730885
REM
CELL 1.54180   50.00000   50.00000   50.00000   90.00000   90.00000   90.00000
LATT -1
SFAC C  
C      1  0.4331810000000  0.4531480000000  0.4939380000000 1.0
C      1  0.5789530000000  0.4763460000000  0.4904600000000 1.0
C      1  0.4901180000000  0.5794910000000  0.4869660000000 1.0
C      1  0.4644920000000  0.5380310000000  0.4640830000000 1.0
C      1  0.4915310000000  0.4534650000000  0.4759320000000 1.0
C      1  0.5406930000000  0.5100980000000  0.4681950000000 1.0
C      1  0.4777830000000  0.5188580000000  0.5487610000000 1.0
C      1  0.4893560000000  0.4739690000000  0.5594840000000 1.0
C      1  0.5259740000000  0.5010100000000  0.5411550000000 1.0
C      1  0.4981470000000  0.4737420000000  0.4573510000000 1.0
C      1  0.5137430000000  0.5006850000000  0.4543910000000 1.0
C      1  0.4840510000000  0.5217990000000  0.4516800000000 1.0
C      1  0.4813540000000  0.4522000000000  0.5429520000000 1.0
C      1  0.5529020000000  0.5136780000000  0.5358490000000 1.0
C      1  0.4606650000000  0.5356410000000  0.5327310000000 1.0
C      1  0.5154390000000  0.5422460000000  0.5697000000000 1.0
C      1  0.4501700000000  0.4945300000000  0.5818430000000 1.0
C      1  0.5358110000000  0.4607600000000  0.5717440000000 1.0
C      1  0.4781720000000  0.4970970000000  0.4939320000000 1.0
C      1  0.5205030000000  0.4907360000000  0.5123960000000 1.0
C      1  0.5026280000000  0.5095550000000  0.4989640000000 1.0
C      1  0.4204110000000  0.4814860000000  0.5327280000000 1.0
C      1  0.5900380000000  0.4489260000000  0.5276000000000 1.0
C      1  0.5187370000000  0.5752330000000  0.5260800000000 1.0
C      1  0.4389370000000  0.5259690000000  0.5159430000000 1.0
C      1  0.5020840000000  0.4391100000000  0.5288930000000 1.0
C      1  0.5494110000000  0.5367510000000  0.5189240000000 1.0
C      1  0.5078470000000  0.4422330000000  0.4990310000000 1.0
C      1  0.5425680000000  0.5328950000000  0.4886390000000 1.0
C      1  0.4441100000000  0.5277340000000  0.4844630000000 1.0
C      1  0.5120890000000  0.5580810000000  0.4433300000000 1.0
C      1  0.4381480000000  0.4753660000000  0.4450230000000 1.0
C      1  0.5477090000000  0.4578330000000  0.4505720000000 1.0
C      1  0.4556190000000  0.4054320000000  0.4958550000000 1.0
C      1  0.6029450000000  0.5193540000000  0.4777840000000 1.0
C      1  0.4399330000000  0.5921240000000  0.4854560000000 1.0
C      1  0.5061670000000  0.5597500000000  0.4725320000000 1.0
C      1  0.4313570000000  0.4789510000000  0.4754460000000 1.0
C      1  0.5547550000000  0.4576100000000  0.4816130000000 1.0
C      1  0.4099230000000  0.4923880000000  0.6155730000000 1.0
C      1  0.5214890000000  0.4249330000000  0.5442530000000 1.0
C      1  0.5288800000000  0.5722280000000  0.6107160000000 1.0
C      1  0.4651290000000  0.5051990000000  0.4127170000000 1.0
C      1  0.5085310000000  0.4551500000000  0.4173000000000 1.0
C      1  0.5277080000000  0.5211400000000  0.4115880000000 1.0
C      1  0.5652200000000  0.5030190000000  0.4557620000000 1.0
C      1  0.4614530000000  0.5647250000000  0.4547210000000 1.0
C      1  0.4688720000000  0.4387780000000  0.4679320000000 1.0
C      1  0.4082860000000  0.4944930000000  0.4898430000000 1.0
C      1  0.5650220000000  0.4302790000000  0.4912840000000 1.0
C      1  0.5648030000000  0.5774510000000  0.5409200000000 1.0
C      1  0.4708440000000  0.4954540000000  0.5633400000000 1.0
C      1  0.5179460000000  0.4795330000000  0.5607970000000 1.0
C      1  0.5063700000000  0.5238410000000  0.5505980000000 1.0
C      1  0.4857420000000  0.4662460000000  0.4311500000000 1.0
C      1  0.5272420000000  0.4963560000000  0.4255560000000 1.0
C      1  0.4828600000000  0.5248820000000  0.4232870000000 1.0
C      1  0.4195820000000  0.5738870000000  0.4844550000000 1.0
C      1  0.4819430000000  0.3975490000000  0.4955750000000 1.0
C      1  0.5917550000000  0.5442200000000  0.4771430000000 1.0
C      1  0.4173330000000  0.5048750000000  0.5166200000000 1.0
C      1  0.5806730000000  0.4275680000000  0.5134670000000 1.0
C      1  0.5444740000000  0.5634670000000  0.5290210000000 1.0
C      1  0.4606880000000  0.4798370000000  0.4263280000000 1.0
C      1  0.5336050000000  0.4671480000000  0.4264200000000 1.0
C      1  0.5076840000000  0.5403450000000  0.4195880000000 1.0
C      1  0.4712770000000  0.5617570000000  0.5280600000000 1.0
C      1  0.4543850000000  0.4474500000000  0.5376730000000 1.0
C      1  0.5754900000000  0.4967700000000  0.5344380000000 1.0
C      1  0.5219330000000  0.5570540000000  0.5906910000000 1.0
C      1  0.4300920000000  0.4935330000000  0.5990960000000 1.0
C      1  0.5371700000000  0.4349300000000  0.5638710000000 1.0
C      1  0.5651210000000  0.5500310000000  0.4770090000000 1.0
C      1  0.4208950000000  0.5472470000000  0.4786170000000 1.0
C      1  0.5052140000000  0.4116940000000  0.4919350000000 1.0
C      1  0.5849510000000  0.4753990000000  0.5186870000000 1.0
C      1  0.4924010000000  0.5760880000000  0.5154940000000 1.0
C      1  0.4332310000000  0.4581510000000  0.5227110000000 1.0
C      1  0.4650600000000  0.5853740000000  0.4742530000000 1.0
C      1  0.4478120000000  0.4304700000000  0.4844870000000 1.0
C      1  0.5869440000000  0.4965710000000  0.4725610000000 1.0
C      1  0.5297600000000  0.4649820000000  0.4997950000000 1.0
C      1  0.5126260000000  0.5369190000000  0.4897190000000 1.0
C      1  0.4530460000000  0.4986650000000  0.4825300000000 1.0
END
