TITL C-3201376-6384-460 -7.23373876898738e-07 125000 -660.425927967823 0 0 106 (C1) n - 1
REM
REM in /home/nfs/bkarasulu/CARBON/AIRSS/Generating-Clusters/LCBOP/Higher-Symm/SD-CG/FIRE-CG
REM
REM
REM
REM
REM
REM ./C.cell (b20cbc046b6831c77cfcea5457e17084)
REM AIRSS Version 0.9.1 bugfix July 2018 build 013d7b7c2542+ Fri, 06 Jul 2018 19:26:36 +0100
REM compiler GCC version 9.2.1 20190827 (Red Hat 9.2.1-1)
REM options -cpp -mtune=generic -march=x86-64 -g -O0 -fpre-include=/usr/include/finclude/math-vector-fortran.h
REM seed -165045001 -1178099072 -2118892339 1172742425 273403680 661685070 983307733 1323172039 -2003713278 136570754 317982816 -66171376 -1079834814 1096741090 578120672 -963929528 692445905 2130448895 -2093278811 -1487982627 -1253823784 -1045200872 -1714436044 -1066037652 -416352024 1385842281 759631653 1772156228 -1002887319 1375101837 370106091 -31897421 1959778387
REM
CELL 1.54180   50.00000   50.00000   50.00000   90.00000   90.00000   90.00000
LATT -1
SFAC C  
C      1  0.4370820000000  0.4536590000000  0.4737380000000 1.0
C      1  0.4352230000000  0.4647020000000  0.5598140000000 1.0
C      1  0.5470170000000  0.4529800000000  0.5594090000000 1.0
C      1  0.5728220000000  0.4486600000000  0.4789680000000 1.0
C      1  0.5103530000000  0.4590340000000  0.4199730000000 1.0
C      1  0.4860070000000  0.6071650000000  0.4799170000000 1.0
C      1  0.4759430000000  0.6069290000000  0.5072830000000 1.0
C      1  0.4985950000000  0.6071600000000  0.5252980000000 1.0
C      1  0.5226300000000  0.6085350000000  0.5093170000000 1.0
C      1  0.5150840000000  0.6092530000000  0.4812850000000 1.0
C      1  0.5338750000000  0.4607770000000  0.4367450000000 1.0
C      1  0.4740970000000  0.4824620000000  0.4556260000000 1.0
C      1  0.4364780000000  0.4618690000000  0.5307070000000 1.0
C      1  0.4932980000000  0.4785840000000  0.5623220000000 1.0
C      1  0.5525960000000  0.4813540000000  0.5149620000000 1.0
C      1  0.4320150000000  0.5106790000000  0.4272440000000 1.0
C      1  0.4061130000000  0.5158980000000  0.5417690000000 1.0
C      1  0.5121880000000  0.5118970000000  0.5994180000000 1.0
C      1  0.5839770000000  0.5231970000000  0.5270330000000 1.0
C      1  0.5560960000000  0.5188880000000  0.4278370000000 1.0
C      1  0.5470850000000  0.5525090000000  0.5427440000000 1.0
C      1  0.5571470000000  0.5546070000000  0.4647690000000 1.0
C      1  0.4868320000000  0.5544360000000  0.4379640000000 1.0
C      1  0.4346600000000  0.5524470000000  0.4917100000000 1.0
C      1  0.4730360000000  0.5520630000000  0.5557360000000 1.0
C      1  0.5358980000000  0.4114370000000  0.5056390000000 1.0
C      1  0.5161070000000  0.4087030000000  0.4836000000000 1.0
C      1  0.4889570000000  0.4162960000000  0.4933130000000 1.0
C      1  0.4915020000000  0.4166740000000  0.5224670000000 1.0
C      1  0.5199710000000  0.4174770000000  0.5297970000000 1.0
C      1  0.5038480000000  0.5100520000000  0.4196140000000 1.0
C      1  0.4262190000000  0.5054370000000  0.4763810000000 1.0
C      1  0.4490060000000  0.5118600000000  0.5664450000000 1.0
C      1  0.5500550000000  0.5087360000000  0.5640560000000 1.0
C      1  0.5762640000000  0.5083290000000  0.4724780000000 1.0
C      1  0.5665730000000  0.4939010000000  0.4199350000000 1.0
C      1  0.4448880000000  0.4891300000000  0.4163290000000 1.0
C      1  0.3998300000000  0.4935340000000  0.5270940000000 1.0
C      1  0.4915380000000  0.4943010000000  0.6056230000000 1.0
C      1  0.5951900000000  0.4974560000000  0.5319390000000 1.0
C      1  0.4229870000000  0.4383290000000  0.4552630000000 1.0
C      1  0.4188470000000  0.4469690000000  0.5740270000000 1.0
C      1  0.5679080000000  0.4335710000000  0.5537700000000 1.0
C      1  0.5768720000000  0.4262850000000  0.4603460000000 1.0
C      1  0.4923640000000  0.4369770000000  0.4280740000000 1.0
C      1  0.5232030000000  0.5201340000000  0.4603040000000 1.0
C      1  0.4699630000000  0.5122850000000  0.4579800000000 1.0
C      1  0.4463550000000  0.5150990000000  0.5183440000000 1.0
C      1  0.4981970000000  0.5073320000000  0.5546960000000 1.0
C      1  0.5453250000000  0.5070170000000  0.5076960000000 1.0
C      1  0.4731970000000  0.5130400000000  0.5109420000000 1.0
C      1  0.4980140000000  0.5108410000000  0.5256610000000 1.0
C      1  0.5196350000000  0.5163890000000  0.5083380000000 1.0
C      1  0.5091440000000  0.5240390000000  0.4833610000000 1.0
C      1  0.4811130000000  0.5204610000000  0.4839650000000 1.0
C      1  0.5224770000000  0.5495080000000  0.5587450000000 1.0
C      1  0.5603380000000  0.5520990000000  0.4938990000000 1.0
C      1  0.5136220000000  0.5641540000000  0.4386080000000 1.0
C      1  0.4431400000000  0.5515900000000  0.4628640000000 1.0
C      1  0.4466080000000  0.5546890000000  0.5416170000000 1.0
C      1  0.4172960000000  0.4750980000000  0.5138880000000 1.0
C      1  0.4764640000000  0.4791740000000  0.5860590000000 1.0
C      1  0.5734400000000  0.4798410000000  0.5349530000000 1.0
C      1  0.5596290000000  0.4733450000000  0.4381670000000 1.0
C      1  0.4691010000000  0.4786700000000  0.4265910000000 1.0
C      1  0.5692900000000  0.5234800000000  0.4999170000000 1.0
C      1  0.5281580000000  0.5170360000000  0.4326650000000 1.0
C      1  0.4402770000000  0.5207580000000  0.4538480000000 1.0
C      1  0.4342380000000  0.5256050000000  0.5442190000000 1.0
C      1  0.5216990000000  0.5195180000000  0.5712620000000 1.0
C      1  0.4856840000000  0.4659540000000  0.4771800000000 1.0
C      1  0.4581600000000  0.4488470000000  0.5183810000000 1.0
C      1  0.4974200000000  0.4560750000000  0.5467970000000 1.0
C      1  0.5347090000000  0.4588520000000  0.5105180000000 1.0
C      1  0.5264230000000  0.4478620000000  0.4608530000000 1.0
C      1  0.4662660000000  0.4430120000000  0.4846860000000 1.0
C      1  0.4783700000000  0.4390050000000  0.5342420000000 1.0
C      1  0.5248100000000  0.4474450000000  0.5387370000000 1.0
C      1  0.5566880000000  0.4354370000000  0.5034580000000 1.0
C      1  0.5292540000000  0.4193820000000  0.4609210000000 1.0
C      1  0.4954580000000  0.4830230000000  0.4147040000000 1.0
C      1  0.4249300000000  0.4776800000000  0.4856010000000 1.0
C      1  0.4499700000000  0.4846800000000  0.5747090000000 1.0
C      1  0.5572820000000  0.4805430000000  0.5597830000000 1.0
C      1  0.5717670000000  0.4767270000000  0.4656870000000 1.0
C      1  0.4292430000000  0.5244850000000  0.4976770000000 1.0
C      1  0.4747520000000  0.5247790000000  0.5649440000000 1.0
C      1  0.5647750000000  0.5301980000000  0.5483410000000 1.0
C      1  0.5687140000000  0.5300560000000  0.4516750000000 1.0
C      1  0.4838100000000  0.5263210000000  0.4340090000000 1.0
C      1  0.5336290000000  0.5986650000000  0.4631340000000 1.0
C      1  0.4707870000000  0.5937900000000  0.4605520000000 1.0
C      1  0.4518000000000  0.5942090000000  0.5130310000000 1.0
C      1  0.4988870000000  0.5925190000000  0.5490340000000 1.0
C      1  0.5452710000000  0.5938500000000  0.5164810000000 1.0
C      1  0.5517170000000  0.5665890000000  0.5177180000000 1.0
C      1  0.5367600000000  0.5722920000000  0.4533190000000 1.0
C      1  0.4649940000000  0.5676050000000  0.4517440000000 1.0
C      1  0.4420780000000  0.5679540000000  0.5155660000000 1.0
C      1  0.4982740000000  0.5654320000000  0.5561410000000 1.0
C      1  0.4089500000000  0.4254120000000  0.4375080000000 1.0
C      1  0.4034370000000  0.4303870000000  0.5869360000000 1.0
C      1  0.5747090000000  0.4290650000000  0.5275140000000 1.0
C      1  0.5552900000000  0.4110980000000  0.4527290000000 1.0
C      1  0.4763150000000  0.4297190000000  0.4477290000000 1.0
C      1  0.5138730000000  0.4607230000000  0.4829630000000 1.0
END
