TITL C-3201375-1262-898 -8.21780575931738e-07 125000 -482.68913118744 0 0 80 (C3i) n - 1
REM
REM in /home/nfs/bkarasulu/CARBON/AIRSS/Generating-Clusters/LCBOP/Higher-Symm/SD-CG/FIRE-CG
REM
REM
REM
REM
REM
REM ./C.cell (b20cbc046b6831c77cfcea5457e17084)
REM AIRSS Version 0.9.1 bugfix July 2018 build 013d7b7c2542+ Fri, 06 Jul 2018 19:26:36 +0100
REM compiler GCC version 9.2.1 20190827 (Red Hat 9.2.1-1)
REM options -cpp -mtune=generic -march=x86-64 -g -O0 -fpre-include=/usr/include/finclude/math-vector-fortran.h
REM seed 1512128071 461115928 -1579267663 -175359025 -33458755 -1044531609 588107808 1291494546 1260087796 -905707091 -1839689239 342567050 -1933248353 -924997761 209811247 -592331319 -1980687310 882852136 -1350846009 1804237394 1291340847 -707325639 -1051066875 -784216602 -1732590916 1262178234 1791059873 -1623992674 -140049394 -2032678520 778294435 -1930746272 -1521885068
REM
CELL 1.54180   50.00000   50.00000   50.00000   90.00000   90.00000   90.00000
LATT -1
SFAC C  
C      1  0.4327290000000  0.5437190000000  0.5042280000000 1.0
C      1  0.4630080000000  0.4562810000000  0.4447440000000 1.0
C      1  0.5296630000000  0.5437190000000  0.4412240000000 1.0
C      1  0.5660390000000  0.4562810000000  0.4971890000000 1.0
C      1  0.5357590000000  0.5437190000000  0.5566730000000 1.0
C      1  0.4691040000000  0.4562810000000  0.5601930000000 1.0
C      1  0.4333140000000  0.5283240000000  0.5284910000000 1.0
C      1  0.4422880000000  0.4716760000000  0.4573810000000 1.0
C      1  0.5083590000000  0.5283240000000  0.4295990000000 1.0
C      1  0.5654540000000  0.4716760000000  0.4729260000000 1.0
C      1  0.5564790000000  0.5283240000000  0.5440360000000 1.0
C      1  0.4904090000000  0.4716760000000  0.5718180000000 1.0
C      1  0.4502060000000  0.4362030000000  0.4961020000000 1.0
C      1  0.4787840000000  0.5637970000000  0.4558160000000 1.0
C      1  0.5279620000000  0.4362030000000  0.4604220000000 1.0
C      1  0.5485620000000  0.5637970000000  0.5053150000000 1.0
C      1  0.5199840000000  0.4362030000000  0.5456010000000 1.0
C      1  0.4708050000000  0.5637970000000  0.5409950000000 1.0
C      1  0.4781090000000  0.4974490000000  0.5808630000000 1.0
C      1  0.4193300000000  0.5025510000000  0.5223610000000 1.0
C      1  0.4406050000000  0.4974490000000  0.4422060000000 1.0
C      1  0.5206590000000  0.5025510000000  0.4205540000000 1.0
C      1  0.5794370000000  0.4974490000000  0.4790560000000 1.0
C      1  0.5581620000000  0.5025510000000  0.5592110000000 1.0
C      1  0.4525020000000  0.5669480000000  0.4678270000000 1.0
C      1  0.5044190000000  0.4330520000000  0.4436670000000 1.0
C      1  0.5513010000000  0.5669480000000  0.4765490000000 1.0
C      1  0.5462650000000  0.4330520000000  0.5335900000000 1.0
C      1  0.4943490000000  0.5669480000000  0.5577500000000 1.0
C      1  0.4474670000000  0.4330520000000  0.5248680000000 1.0
C      1  0.5386800000000  0.4655560000000  0.4574640000000 1.0
C      1  0.5564830000000  0.5344440000000  0.5131170000000 1.0
C      1  0.5171870000000  0.4655560000000  0.5563620000000 1.0
C      1  0.4600880000000  0.5344440000000  0.5439530000000 1.0
C      1  0.4422850000000  0.4655560000000  0.4883000000000 1.0
C      1  0.4815810000000  0.5344440000000  0.4450550000000 1.0
C      1  0.5473310000000  0.4749560000000  0.5626900000000 1.0
C      1  0.4696800000000  0.5250440000000  0.5732230000000 1.0
C      1  0.4217330000000  0.4749560000000  0.5112410000000 1.0
C      1  0.4514370000000  0.5250440000000  0.4387270000000 1.0
C      1  0.5290880000000  0.4749560000000  0.4281940000000 1.0
C      1  0.5770350000000  0.5250440000000  0.4901760000000 1.0
C      1  0.5143530000000  0.5266120000000  0.5649540000000 1.0
C      1  0.4512300000000  0.4733880000000  0.5457950000000 1.0
C      1  0.4362610000000  0.5266120000000  0.4815490000000 1.0
C      1  0.4844150000000  0.4733880000000  0.4364630000000 1.0
C      1  0.5475380000000  0.5266120000000  0.4556220000000 1.0
C      1  0.5625070000000  0.4733880000000  0.5198680000000 1.0
C      1  0.5365350000000  0.4215850000000  0.4830540000000 1.0
C      1  0.5332490000000  0.5784150000000  0.5240550000000 1.0
C      1  0.4960980000000  0.4215850000000  0.5417100000000 1.0
C      1  0.4622330000000  0.5784150000000  0.5183630000000 1.0
C      1  0.4655190000000  0.4215850000000  0.4773620000000 1.0
C      1  0.5026700000000  0.5784150000000  0.4597070000000 1.0
C      1  0.5516290000000  0.4317240000000  0.5045730000000 1.0
C      1  0.5221600000000  0.5682760000000  0.5478870000000 1.0
C      1  0.4699140000000  0.4317240000000  0.5440220000000 1.0
C      1  0.4471390000000  0.5682760000000  0.4968440000000 1.0
C      1  0.4766080000000  0.4317240000000  0.4535300000000 1.0
C      1  0.5288530000000  0.5682760000000  0.4573950000000 1.0
C      1  0.4943060000000  0.4912020000000  0.4570000000000 1.0
C      1  0.5346980000000  0.5087980000000  0.4744560000000 1.0
C      1  0.5397760000000  0.4912020000000  0.5181650000000 1.0
C      1  0.5044620000000  0.5087980000000  0.5444170000000 1.0
C      1  0.4640700000000  0.4912020000000  0.5269610000000 1.0
C      1  0.4589920000000  0.5087980000000  0.4832520000000 1.0
C      1  0.5681150000000  0.5431130000000  0.4684930000000 1.0
C      1  0.5616490000000  0.4568870000000  0.5441240000000 1.0
C      1  0.4929180000000  0.5431130000000  0.5763390000000 1.0
C      1  0.4306530000000  0.4568870000000  0.5329240000000 1.0
C      1  0.4371190000000  0.5431130000000  0.4572930000000 1.0
C      1  0.5058500000000  0.4568870000000  0.4250780000000 1.0
C      1  0.5176970000000  0.4824790000000  0.4740010000000 1.0
C      1  0.5316700000000  0.5175210000000  0.5032140000000 1.0
C      1  0.5133570000000  0.4824790000000  0.5299220000000 1.0
C      1  0.4810710000000  0.5175210000000  0.5274160000000 1.0
C      1  0.4670980000000  0.4824790000000  0.4982030000000 1.0
C      1  0.4854110000000  0.5175210000000  0.4714950000000 1.0
C      1  0.4993840000000  0.5251510000000  0.5007090000000 1.0
C      1  0.4993840000000  0.4748490000000  0.5007090000000 1.0
END
