TITL C-3201372-1405-254 2.9650853067787 125000 -899.334836065193 0 0 144 (C1) n - 1
REM
REM in /home/nfs/bkarasulu/CARBON/AIRSS/Generating-Clusters/LCBOP/Higher-Symm/SD-CG/FIRE-CG
REM
REM
REM
REM
REM
REM ./C.cell (b20cbc046b6831c77cfcea5457e17084)
REM AIRSS Version 0.9.1 bugfix July 2018 build 013d7b7c2542+ Fri, 06 Jul 2018 19:26:36 +0100
REM compiler GCC version 9.2.1 20190827 (Red Hat 9.2.1-1)
REM options -cpp -mtune=generic -march=x86-64 -g -O0 -fpre-include=/usr/include/finclude/math-vector-fortran.h
REM seed -441060330 1323402979 1912031962 -1766880702 929696002 193737757 -98106345 -781405028 1366270870 1873361541 26787005 -130882679 -1384649848 -121061432 -220675516 -1516465511 -536202404 -779872157 749741194 -1822022274 -554495750 1616772927 1419163355 -2147021515 -195640976 -90241498 -1191032586 857621980 -934487460 1743996893 1358338634 429442031 1115398493
REM
CELL 1.54180   50.00000   50.00000   50.00000   90.00000   90.00000   90.00000
LATT -1
SFAC C  
C      1  0.5015280000000  0.5359380000000  0.4864780000000 1.0
C      1  0.5463340000000  0.4900410000000  0.4834070000000 1.0
C      1  0.4765090000000  0.5008770000000  0.5372060000000 1.0
C      1  0.4854790000000  0.4591460000000  0.5084460000000 1.0
C      1  0.5020500000000  0.5383370000000  0.5150010000000 1.0
C      1  0.5013120000000  0.4574560000000  0.4850820000000 1.0
C      1  0.5597240000000  0.5145800000000  0.4863220000000 1.0
C      1  0.4642900000000  0.4838450000000  0.5114640000000 1.0
C      1  0.4633420000000  0.5033940000000  0.4877780000000 1.0
C      1  0.4914440000000  0.5069420000000  0.4716800000000 1.0
C      1  0.5158700000000  0.4853390000000  0.4704510000000 1.0
C      1  0.5004430000000  0.5159020000000  0.5334630000000 1.0
C      1  0.6006510000000  0.5576340000000  0.4668230000000 1.0
C      1  0.5345150000000  0.4678070000000  0.5762880000000 1.0
C      1  0.4755440000000  0.5881490000000  0.5515040000000 1.0
C      1  0.5830910000000  0.4645610000000  0.5253500000000 1.0
C      1  0.4169380000000  0.5327420000000  0.5264720000000 1.0
C      1  0.4121820000000  0.4520150000000  0.4735420000000 1.0
C      1  0.5373280000000  0.5266980000000  0.4185810000000 1.0
C      1  0.4519280000000  0.4711690000000  0.4163330000000 1.0
C      1  0.4506390000000  0.5366350000000  0.5848340000000 1.0
C      1  0.4692810000000  0.4097000000000  0.4501880000000 1.0
C      1  0.5410370000000  0.5826000000000  0.4575070000000 1.0
C      1  0.5233700000000  0.4105460000000  0.5466770000000 1.0
C      1  0.5601860000000  0.4601940000000  0.5650650000000 1.0
C      1  0.4660390000000  0.5897740000000  0.5782610000000 1.0
C      1  0.5971150000000  0.5844910000000  0.4582740000000 1.0
C      1  0.5594400000000  0.5419290000000  0.4316060000000 1.0
C      1  0.4249060000000  0.4628710000000  0.4206800000000 1.0
C      1  0.4281220000000  0.5456410000000  0.5695070000000 1.0
C      1  0.4590150000000  0.4166230000000  0.4244750000000 1.0
C      1  0.5489620000000  0.5690160000000  0.4333800000000 1.0
C      1  0.5319080000000  0.4129270000000  0.5738340000000 1.0
C      1  0.5668310000000  0.4451680000000  0.5407860000000 1.0
C      1  0.4303780000000  0.5545570000000  0.5418290000000 1.0
C      1  0.4193150000000  0.4267910000000  0.4621400000000 1.0
C      1  0.5118240000000  0.4140910000000  0.4294170000000 1.0
C      1  0.4114540000000  0.4281370000000  0.5141520000000 1.0
C      1  0.4346680000000  0.5143480000000  0.4256660000000 1.0
C      1  0.5174210000000  0.5771190000000  0.5725680000000 1.0
C      1  0.4803850000000  0.4064960000000  0.5658360000000 1.0
C      1  0.5000050000000  0.5968340000000  0.4398650000000 1.0
C      1  0.4102570000000  0.5596320000000  0.4895160000000 1.0
C      1  0.5965370000000  0.4331440000000  0.4935890000000 1.0
C      1  0.5982400000000  0.5756600000000  0.5112740000000 1.0
C      1  0.4309090000000  0.4948380000000  0.5944960000000 1.0
C      1  0.5494220000000  0.5101060000000  0.5902290000000 1.0
C      1  0.5645310000000  0.4903790000000  0.4098690000000 1.0
C      1  0.5714570000000  0.5359320000000  0.5004880000000 1.0
C      1  0.5242170000000  0.5101260000000  0.5492470000000 1.0
C      1  0.5121420000000  0.5631720000000  0.5262670000000 1.0
C      1  0.5634120000000  0.4666300000000  0.4811080000000 1.0
C      1  0.4437930000000  0.5254390000000  0.4843940000000 1.0
C      1  0.4371060000000  0.4684370000000  0.5168460000000 1.0
C      1  0.5271630000000  0.4801680000000  0.4383720000000 1.0
C      1  0.4801300000000  0.5091410000000  0.4393370000000 1.0
C      1  0.4699990000000  0.4948230000000  0.5647590000000 1.0
C      1  0.5088690000000  0.4318960000000  0.4745750000000 1.0
C      1  0.4977720000000  0.5590370000000  0.4698660000000 1.0
C      1  0.4840500000000  0.4402510000000  0.5316130000000 1.0
C      1  0.5545230000000  0.6040410000000  0.4708120000000 1.0
C      1  0.5956310000000  0.4833360000000  0.5429970000000 1.0
C      1  0.4660690000000  0.5494700000000  0.6050000000000 1.0
C      1  0.5428630000000  0.4031740000000  0.5281370000000 1.0
C      1  0.4588280000000  0.5940200000000  0.5296510000000 1.0
C      1  0.4550140000000  0.3947000000000  0.4694740000000 1.0
C      1  0.6049750000000  0.5349620000000  0.4508050000000 1.0
C      1  0.3952640000000  0.4692490000000  0.4588980000000 1.0
C      1  0.3971500000000  0.5208920000000  0.5434950000000 1.0
C      1  0.4681100000000  0.4568750000000  0.3980440000000 1.0
C      1  0.5237940000000  0.5452430000000  0.4010930000000 1.0
C      1  0.5205090000000  0.4532560000000  0.5968570000000 1.0
C      1  0.5098040000000  0.5366740000000  0.3787640000000 1.0
C      1  0.5367530000000  0.3818580000000  0.5110890000000 1.0
C      1  0.3741150000000  0.5085320000000  0.5345150000000 1.0
C      1  0.5106920000000  0.4672790000000  0.6190780000000 1.0
C      1  0.4754970000000  0.5337160000000  0.6262910000000 1.0
C      1  0.4782990000000  0.4703090000000  0.3757910000000 1.0
C      1  0.5382190000000  0.6236180000000  0.4827640000000 1.0
C      1  0.4687590000000  0.3740660000000  0.4824580000000 1.0
C      1  0.4686890000000  0.6126710000000  0.5111450000000 1.0
C      1  0.3710850000000  0.4776580000000  0.4698940000000 1.0
C      1  0.6235410000000  0.5164860000000  0.4610860000000 1.0
C      1  0.6172020000000  0.4977650000000  0.5330250000000 1.0
C      1  0.4746000000000  0.4302030000000  0.4046510000000 1.0
C      1  0.4296640000000  0.4045750000000  0.4768480000000 1.0
C      1  0.4051380000000  0.4784150000000  0.4341760000000 1.0
C      1  0.4780170000000  0.5742910000000  0.5989090000000 1.0
C      1  0.5149650000000  0.4257250000000  0.5927040000000 1.0
C      1  0.5291030000000  0.5719050000000  0.4109570000000 1.0
C      1  0.4351500000000  0.5787190000000  0.5268840000000 1.0
C      1  0.5664020000000  0.4187650000000  0.5288130000000 1.0
C      1  0.5824290000000  0.6023230000000  0.4752500000000 1.0
C      1  0.4047590000000  0.5267650000000  0.5707080000000 1.0
C      1  0.5814150000000  0.4814810000000  0.5680980000000 1.0
C      1  0.5851150000000  0.5289790000000  0.4316870000000 1.0
C      1  0.5399830000000  0.5662310000000  0.5219510000000 1.0
C      1  0.5564900000000  0.5435080000000  0.5230770000000 1.0
C      1  0.5474550000000  0.5230900000000  0.5396410000000 1.0
C      1  0.5368430000000  0.4271090000000  0.4762780000000 1.0
C      1  0.4752640000000  0.5537810000000  0.4528570000000 1.0
C      1  0.4652560000000  0.4498870000000  0.5517890000000 1.0
C      1  0.5530310000000  0.4464270000000  0.4637750000000 1.0
C      1  0.4520590000000  0.5460700000000  0.4663400000000 1.0
C      1  0.4395140000000  0.4562580000000  0.5427830000000 1.0
C      1  0.5420950000000  0.4559490000000  0.4395420000000 1.0
C      1  0.4823110000000  0.5363250000000  0.4319540000000 1.0
C      1  0.4749180000000  0.4677500000000  0.5709310000000 1.0
C      1  0.5388050000000  0.4985540000000  0.4202130000000 1.0
C      1  0.4955410000000  0.4160830000000  0.5426930000000 1.0
C      1  0.4203630000000  0.5340130000000  0.4985080000000 1.0
C      1  0.5296600000000  0.4965480000000  0.5739570000000 1.0
C      1  0.4535200000000  0.5081600000000  0.5831090000000 1.0
C      1  0.4578140000000  0.4970110000000  0.4271960000000 1.0
C      1  0.5123860000000  0.5816320000000  0.4611450000000 1.0
C      1  0.4966340000000  0.4171000000000  0.4536930000000 1.0
C      1  0.5018700000000  0.5772020000000  0.5484790000000 1.0
C      1  0.4182070000000  0.4534940000000  0.5014250000000 1.0
C      1  0.5930920000000  0.5531360000000  0.4942480000000 1.0
C      1  0.5850050000000  0.4590050000000  0.4977480000000 1.0
C      1  0.6328470000000  0.5071430000000  0.4843670000000 1.0
C      1  0.4995330000000  0.4878510000000  0.6317780000000 1.0
C      1  0.4892280000000  0.6259170000000  0.5004410000000 1.0
C      1  0.6307620000000  0.5036000000000  0.5107440000000 1.0
C      1  0.3593540000000  0.4975780000000  0.5153560000000 1.0
C      1  0.3579440000000  0.4870950000000  0.4909750000000 1.0
C      1  0.4979160000000  0.5169220000000  0.3655050000000 1.0
C      1  0.4877570000000  0.4923760000000  0.3643720000000 1.0
C      1  0.4875920000000  0.5114810000000  0.6346670000000 1.0
C      1  0.4920060000000  0.3647530000000  0.4915780000000 1.0
C      1  0.5143320000000  0.6303700000000  0.4926090000000 1.0
C      1  0.5171930000000  0.3677370000000  0.4997200000000 1.0
C      1  0.5918630000000  0.6006980000000  0.5022180000000 1.0
C      1  0.5753930000000  0.5021320000000  0.5866220000000 1.0
C      1  0.5064290000000  0.5755810000000  0.5974180000000 1.0
C      1  0.5874690000000  0.4134450000000  0.5102100000000 1.0
C      1  0.4183750000000  0.5815130000000  0.5038510000000 1.0
C      1  0.4192480000000  0.4042910000000  0.5032910000000 1.0
C      1  0.5864590000000  0.5053990000000  0.4158010000000 1.0
C      1  0.4090950000000  0.5061130000000  0.4296580000000 1.0
C      1  0.4064310000000  0.5058780000000  0.5898040000000 1.0
C      1  0.5016750000000  0.4215170000000  0.4052400000000 1.0
C      1  0.5093580000000  0.5919670000000  0.4146010000000 1.0
C      1  0.4886770000000  0.4144540000000  0.5909350000000 1.0
END
