TITL C-3201375-1262-1661 -5.15364510225057e-07 125000 -15.9096673971922 0 0 9 (D3h) n - 1
REM
REM in /home/nfs/bkarasulu/CARBON/AIRSS/Generating-Clusters/LCBOP/Higher-Symm/SD-CG/FIRE-CG
REM
REM
REM
REM
REM
REM ./C.cell (b20cbc046b6831c77cfcea5457e17084)
REM AIRSS Version 0.9.1 bugfix July 2018 build 013d7b7c2542+ Fri, 06 Jul 2018 19:26:36 +0100
REM compiler GCC version 9.2.1 20190827 (Red Hat 9.2.1-1)
REM options -cpp -mtune=generic -march=x86-64 -g -O0 -fpre-include=/usr/include/finclude/math-vector-fortran.h
REM seed 901750700 1147739170 -1507847240 2076110241 430234705 13784958 -1802191166 1985958737 306483150 -389458079 -1242554350 -1420051657 231958351 -500465393 -1262857595 1077533454 -269103057 -1946678246 1828441526 432585250 1162882079 487284882 1980479671 -835091252 -1161635327 -602383081 1894850251 -852068490 -410682192 -1183723659 1602938457 -1399218899 2002826892
REM
CELL 1.54180   50.00000   50.00000   50.00000   90.00000   90.00000   90.00000
LATT -1
SFAC C  
C      1  0.4813100000000  0.4752420000000  0.5107910000000 1.0
C      1  0.5186900000000  0.4752420000000  0.5107910000000 1.0
C      1  0.4813100000000  0.5231290000000  0.5107910000000 1.0
C      1  0.5186900000000  0.5231290000000  0.5107910000000 1.0
C      1  0.5000000000000  0.5231290000000  0.4784190000000 1.0
C      1  0.5000000000000  0.4752420000000  0.4784190000000 1.0
C      1  0.5000000000000  0.4991860000000  0.5291720000000 1.0
C      1  0.4747360000000  0.4991860000000  0.4854140000000 1.0
C      1  0.5252640000000  0.4991860000000  0.4854140000000 1.0
END
