TITL C-3201373-1215-1951 0.000427132963804366 125000 -331.205101782821 0 0 57 (C1) n - 1
REM
REM in /home/nfs/bkarasulu/CARBON/AIRSS/Generating-Clusters/LCBOP/Higher-Symm/SD-CG/FIRE-CG
REM
REM
REM
REM
REM
REM ./C.cell (b20cbc046b6831c77cfcea5457e17084)
REM AIRSS Version 0.9.1 bugfix July 2018 build 013d7b7c2542+ Fri, 06 Jul 2018 19:26:36 +0100
REM compiler GCC version 9.2.1 20190827 (Red Hat 9.2.1-1)
REM options -cpp -mtune=generic -march=x86-64 -g -O0 -fpre-include=/usr/include/finclude/math-vector-fortran.h
REM seed -1925062872 -409682375 -895330151 1644291255 -1002947214 -1794717998 1720824426 -1189471310 726540068 1380843720 -140842512 1548736641 -210900914 -583536852 -138185679 405460131 -1389857511 541791567 1569182352 -512581892 -1326770058 532792029 -594861115 -989815308 1777060096 -1391821896 779301949 -1857186745 1020663517 -2124346946 1692900424 -721156309 -525722344
REM
CELL 1.54180   50.00000   50.00000   50.00000   90.00000   90.00000   90.00000
LATT -1
SFAC C  
C      1  0.4709440000000  0.3990340000000  0.4593820000000 1.0
C      1  0.4731090000000  0.5417190000000  0.4768000000000 1.0
C      1  0.5254320000000  0.4472160000000  0.5018410000000 1.0
C      1  0.5093260000000  0.4894890000000  0.5168760000000 1.0
C      1  0.4873460000000  0.5652760000000  0.5132160000000 1.0
C      1  0.5216560000000  0.4545810000000  0.5670590000000 1.0
C      1  0.4358050000000  0.5867560000000  0.4605990000000 1.0
C      1  0.5044420000000  0.4750710000000  0.5776200000000 1.0
C      1  0.5005590000000  0.5335950000000  0.4830030000000 1.0
C      1  0.4884060000000  0.4250290000000  0.5267820000000 1.0
C      1  0.5367960000000  0.5686520000000  0.5003670000000 1.0
C      1  0.5138550000000  0.4271930000000  0.5672370000000 1.0
C      1  0.5291620000000  0.4693150000000  0.5192510000000 1.0
C      1  0.5078680000000  0.5978050000000  0.4654150000000 1.0
C      1  0.4709270000000  0.4709170000000  0.5384550000000 1.0
C      1  0.5145560000000  0.5119760000000  0.4724310000000 1.0
C      1  0.5147380000000  0.4958550000000  0.5939930000000 1.0
C      1  0.5130340000000  0.4937630000000  0.6217800000000 1.0
C      1  0.4659890000000  0.5644610000000  0.4934790000000 1.0
C      1  0.4677680000000  0.4433780000000  0.5325140000000 1.0
C      1  0.5448270000000  0.5580590000000  0.5521450000000 1.0
C      1  0.5265310000000  0.5937830000000  0.4865950000000 1.0
C      1  0.5503490000000  0.5563370000000  0.4347320000000 1.0
C      1  0.5378960000000  0.5020760000000  0.4637800000000 1.0
C      1  0.4664210000000  0.4251910000000  0.4508340000000 1.0
C      1  0.4672500000000  0.4866710000000  0.4920880000000 1.0
C      1  0.5068120000000  0.5441050000000  0.4163330000000 1.0
C      1  0.5604600000000  0.5156140000000  0.4578710000000 1.0
C      1  0.5111070000000  0.5520210000000  0.5027630000000 1.0
C      1  0.5380990000000  0.4632480000000  0.5454680000000 1.0
C      1  0.4739890000000  0.4635590000000  0.4218870000000 1.0
C      1  0.4810470000000  0.4864330000000  0.5165470000000 1.0
C      1  0.5002330000000  0.4106700000000  0.5486990000000 1.0
C      1  0.5266360000000  0.5184590000000  0.5822310000000 1.0
C      1  0.4561820000000  0.5909210000000  0.4825090000000 1.0
C      1  0.4707900000000  0.5116950000000  0.4361960000000 1.0
C      1  0.5575230000000  0.5566890000000  0.4825250000000 1.0
C      1  0.4734280000000  0.4365860000000  0.4257510000000 1.0
C      1  0.4891120000000  0.5240470000000  0.4185770000000 1.0
C      1  0.5239220000000  0.5634660000000  0.4276470000000 1.0
C      1  0.5001800000000  0.3828400000000  0.5451680000000 1.0
C      1  0.4793860000000  0.4776520000000  0.5645900000000 1.0
C      1  0.5137560000000  0.5865370000000  0.4402400000000 1.0
C      1  0.4810820000000  0.6040480000000  0.4714880000000 1.0
C      1  0.5113650000000  0.4915090000000  0.6476900000000 1.0
C      1  0.4600360000000  0.5291290000000  0.4557170000000 1.0
C      1  0.4577390000000  0.4453530000000  0.4688650000000 1.0
C      1  0.4441960000000  0.6077970000000  0.5045480000000 1.0
C      1  0.5611630000000  0.5438650000000  0.4576360000000 1.0
C      1  0.4937250000000  0.3673870000000  0.5241350000000 1.0
C      1  0.5372470000000  0.5393130000000  0.5695210000000 1.0
C      1  0.4688470000000  0.4838160000000  0.4412520000000 1.0
C      1  0.5461680000000  0.5706410000000  0.5285750000000 1.0
C      1  0.4852180000000  0.3674680000000  0.4987760000000 1.0
C      1  0.5054320000000  0.4291940000000  0.5045050000000 1.0
C      1  0.4628330000000  0.4733870000000  0.4677870000000 1.0
C      1  0.4772940000000  0.3793530000000  0.4762270000000 1.0
END
