TITL C-3201377-4638-257 -3.4811608110711e-08 125000 -440.580557319455 0 0 71 (C1) n - 1
REM
REM in /home/nfs/bkarasulu/CARBON/AIRSS/Generating-Clusters/LCBOP/Higher-Symm/SD-CG/FIRE-CG
REM
REM
REM
REM
REM
REM ./C.cell (b20cbc046b6831c77cfcea5457e17084)
REM AIRSS Version 0.9.1 bugfix July 2018 build 013d7b7c2542+ Fri, 06 Jul 2018 19:26:36 +0100
REM compiler GCC version 9.2.1 20190827 (Red Hat 9.2.1-1)
REM options -cpp -mtune=generic -march=x86-64 -g -O0 -fpre-include=/usr/include/finclude/math-vector-fortran.h
REM seed 743388621 -986059604 -373773491 113634767 -910977277 -12367536 -104818667 1381837381 1124540437 -860035297 -2056780611 185803404 1787303160 220189451 1497471062 1604187823 1429527056 -1414544164 679726528 -1052208643 -35261262 -2048810030 -101774346 -1897779823 1823698378 -1271504579 -216065120 -1337962189 1581444595 489761780 -385229534 -362882195 85705425
REM
CELL 1.54180   50.00000   50.00000   50.00000   90.00000   90.00000   90.00000
LATT -1
SFAC C  
C      1  0.5155910000000  0.5476850000000  0.4444210000000 1.0
C      1  0.4866920000000  0.5486780000000  0.4452940000000 1.0
C      1  0.5228890000000  0.5094950000000  0.5083720000000 1.0
C      1  0.4772290000000  0.5114570000000  0.5086930000000 1.0
C      1  0.4743610000000  0.5024890000000  0.4324300000000 1.0
C      1  0.5277730000000  0.5030930000000  0.4308280000000 1.0
C      1  0.4655620000000  0.4595830000000  0.4507650000000 1.0
C      1  0.5379390000000  0.4612160000000  0.4505100000000 1.0
C      1  0.5611730000000  0.5672260000000  0.4971850000000 1.0
C      1  0.4423540000000  0.5735970000000  0.4979450000000 1.0
C      1  0.5392910000000  0.5244660000000  0.5498820000000 1.0
C      1  0.4617180000000  0.5263530000000  0.5493050000000 1.0
C      1  0.5261850000000  0.3937220000000  0.4899250000000 1.0
C      1  0.4718090000000  0.3954200000000  0.4907050000000 1.0
C      1  0.5460420000000  0.4885150000000  0.4482940000000 1.0
C      1  0.4563000000000  0.4863710000000  0.4483290000000 1.0
C      1  0.5800850000000  0.5267870000000  0.5051920000000 1.0
C      1  0.4248020000000  0.5293780000000  0.5006060000000 1.0
C      1  0.5144820000000  0.4148490000000  0.5046840000000 1.0
C      1  0.4852190000000  0.4157810000000  0.5050960000000 1.0
C      1  0.5290700000000  0.5309710000000  0.4259180000000 1.0
C      1  0.4718070000000  0.5304970000000  0.4295600000000 1.0
C      1  0.5770260000000  0.4824300000000  0.4898950000000 1.0
C      1  0.4240600000000  0.4828640000000  0.4895500000000 1.0
C      1  0.4877230000000  0.5857570000000  0.5542290000000 1.0
C      1  0.5143750000000  0.5850730000000  0.5549370000000 1.0
C      1  0.4640460000000  0.5744850000000  0.5491960000000 1.0
C      1  0.5378120000000  0.5728760000000  0.5511700000000 1.0
C      1  0.4786500000000  0.6231290000000  0.4586190000000 1.0
C      1  0.4705750000000  0.6005090000000  0.4687310000000 1.0
C      1  0.4226470000000  0.4978760000000  0.5382730000000 1.0
C      1  0.5773530000000  0.4934260000000  0.5397930000000 1.0
C      1  0.5157780000000  0.4397100000000  0.5455640000000 1.0
C      1  0.4865430000000  0.4409430000000  0.5458730000000 1.0
C      1  0.4735840000000  0.4837900000000  0.5049500000000 1.0
C      1  0.5266940000000  0.4819340000000  0.5048460000000 1.0
C      1  0.4511050000000  0.5513920000000  0.5396180000000 1.0
C      1  0.5511200000000  0.5498020000000  0.5422330000000 1.0
C      1  0.4612040000000  0.4585350000000  0.5079640000000 1.0
C      1  0.5396690000000  0.4569120000000  0.5068160000000 1.0
C      1  0.5579980000000  0.5038560000000  0.5556690000000 1.0
C      1  0.4419670000000  0.5068260000000  0.5550220000000 1.0
C      1  0.4360960000000  0.5517040000000  0.5146990000000 1.0
C      1  0.5687400000000  0.5501570000000  0.5195240000000 1.0
C      1  0.4845790000000  0.3757420000000  0.4768610000000 1.0
C      1  0.5118220000000  0.3748920000000  0.4764680000000 1.0
C      1  0.5660190000000  0.4989820000000  0.4672200000000 1.0
C      1  0.4352490000000  0.4965630000000  0.4654270000000 1.0
C      1  0.5706850000000  0.5265590000000  0.4763140000000 1.0
C      1  0.4300290000000  0.5245290000000  0.4720080000000 1.0
C      1  0.4763890000000  0.5518810000000  0.4719630000000 1.0
C      1  0.5276450000000  0.5456230000000  0.4701530000000 1.0
C      1  0.5144730000000  0.5284920000000  0.4887330000000 1.0
C      1  0.4856270000000  0.5311860000000  0.4894060000000 1.0
C      1  0.4886640000000  0.4458490000000  0.4514000000000 1.0
C      1  0.5154760000000  0.4464480000000  0.4512110000000 1.0
C      1  0.5547420000000  0.5507900000000  0.4745010000000 1.0
C      1  0.4630670000000  0.5758210000000  0.4791990000000 1.0
C      1  0.4744550000000  0.4461250000000  0.5709360000000 1.0
C      1  0.5287960000000  0.4435680000000  0.5703920000000 1.0
C      1  0.5656980000000  0.4573120000000  0.4960780000000 1.0
C      1  0.4349250000000  0.4581910000000  0.4978200000000 1.0
C      1  0.5153050000000  0.5175380000000  0.5357750000000 1.0
C      1  0.4861120000000  0.5184410000000  0.5362570000000 1.0
C      1  0.5156790000000  0.4485940000000  0.5937300000000 1.0
C      1  0.4884510000000  0.4498900000000  0.5939980000000 1.0
C      1  0.4742920000000  0.4370680000000  0.5204640000000 1.0
C      1  0.5270430000000  0.4354000000000  0.5197560000000 1.0
C      1  0.4187600000000  0.5026410000000  0.5107450000000 1.0
C      1  0.5835870000000  0.4994190000000  0.5129060000000 1.0
C      1  0.5010120000000  0.4931060000000  0.4270500000000 1.0
END
