TITL C-3201377-4638-2049 12531.2904176629 125000 -941.978574595922 0 0 154 (C1) n - 1
REM
REM in /home/nfs/bkarasulu/CARBON/AIRSS/Generating-Clusters/LCBOP/Higher-Symm/SD-CG/FIRE-CG
REM
REM
REM
REM
REM
REM ./C.cell (b20cbc046b6831c77cfcea5457e17084)
REM AIRSS Version 0.9.1 bugfix July 2018 build 013d7b7c2542+ Fri, 06 Jul 2018 19:26:36 +0100
REM compiler GCC version 9.2.1 20190827 (Red Hat 9.2.1-1)
REM options -cpp -mtune=generic -march=x86-64 -g -O0 -fpre-include=/usr/include/finclude/math-vector-fortran.h
REM seed 1347185535 -1742389957 517125158 -1430684772 676430720 -1673888627 1969378145 -163589536 2043147356 1576119646 1148847895 982637593 1529895189 -1442886591 1905393108 -2019756129 415840313 -74444586 1607499215 -1949344386 539199355 1670747978 1704151426 -357927486 782228051 172628571 -1570828886 -1842397639 -1293196582 532946315 1337645661 -235011751 -1305128690
REM
CELL 1.54180   50.00000   50.00000   50.00000   90.00000   90.00000   90.00000
LATT -1
SFAC C  
C      1  0.5412510000000  0.5171520000000  0.5725730000000 1.0
C      1  0.5243400000000  0.4668760000000  0.5685380000000 1.0
C      1  0.4709680000000  0.4646620000000  0.5668280000000 1.0
C      1  0.4557560000000  0.5144380000000  0.5731000000000 1.0
C      1  0.4967690000000  0.5473330000000  0.5737680000000 1.0
C      1  0.4487890000000  0.5975970000000  0.5800370000000 1.0
C      1  0.5766590000000  0.5759090000000  0.5822620000000 1.0
C      1  0.5919830000000  0.4516020000000  0.5813920000000 1.0
C      1  0.4892990000000  0.3975350000000  0.5832300000000 1.0
C      1  0.3946180000000  0.4833370000000  0.5836720000000 1.0
C      1  0.4274210000000  0.5382350000000  0.4769890000000 1.0
C      1  0.5170850000000  0.5833090000000  0.4769400000000 1.0
C      1  0.5830560000000  0.5086930000000  0.4767040000000 1.0
C      1  0.5355970000000  0.4219020000000  0.4751980000000 1.0
C      1  0.4385920000000  0.4426480000000  0.4788170000000 1.0
C      1  0.4916910000000  0.4709790000000  0.4113370000000 1.0
C      1  0.4748780000000  0.4926480000000  0.4114790000000 1.0
C      1  0.4866850000000  0.5170040000000  0.4093420000000 1.0
C      1  0.5152120000000  0.5494620000000  0.4130730000000 1.0
C      1  0.5390870000000  0.5082450000000  0.4111860000000 1.0
C      1  0.5330130000000  0.5169140000000  0.5447220000000 1.0
C      1  0.5187560000000  0.4759590000000  0.5410550000000 1.0
C      1  0.4719510000000  0.4666920000000  0.5358740000000 1.0
C      1  0.4653350000000  0.5079640000000  0.5462600000000 1.0
C      1  0.4956640000000  0.5389450000000  0.5459300000000 1.0
C      1  0.5902970000000  0.4458140000000  0.5155330000000 1.0
C      1  0.4776720000000  0.3923610000000  0.5149240000000 1.0
C      1  0.3955500000000  0.4879090000000  0.5181870000000 1.0
C      1  0.4568510000000  0.5966890000000  0.5137350000000 1.0
C      1  0.5806970000000  0.5701360000000  0.5156290000000 1.0
C      1  0.4671310000000  0.4799790000000  0.5050080000000 1.0
C      1  0.4722080000000  0.5276810000000  0.4969360000000 1.0
C      1  0.5205530000000  0.5410890000000  0.4964530000000 1.0
C      1  0.5413360000000  0.4935170000000  0.4943830000000 1.0
C      1  0.5077130000000  0.4513110000000  0.4961030000000 1.0
C      1  0.4327620000000  0.5891430000000  0.5316360000000 1.0
C      1  0.5653430000000  0.5902580000000  0.5340490000000 1.0
C      1  0.6049800000000  0.4657630000000  0.5337160000000 1.0
C      1  0.5021250000000  0.3878660000000  0.5334970000000 1.0
C      1  0.3953590000000  0.4626830000000  0.5364840000000 1.0
C      1  0.4977910000000  0.5261060000000  0.5926290000000 1.0
C      1  0.5215830000000  0.5091620000000  0.5911720000000 1.0
C      1  0.5123650000000  0.4815690000000  0.5887740000000 1.0
C      1  0.4835400000000  0.4805510000000  0.5877680000000 1.0
C      1  0.4747450000000  0.5079530000000  0.5922480000000 1.0
C      1  0.4615780000000  0.4371220000000  0.5721600000000 1.0
C      1  0.4274860000000  0.5198650000000  0.5729430000000 1.0
C      1  0.4935050000000  0.5763300000000  0.5723910000000 1.0
C      1  0.5684770000000  0.5274910000000  0.5725330000000 1.0
C      1  0.5435960000000  0.4455680000000  0.5691530000000 1.0
C      1  0.4549390000000  0.5739540000000  0.4414600000000 1.0
C      1  0.5644680000000  0.5689070000000  0.4455940000000 1.0
C      1  0.5795870000000  0.4670180000000  0.4425710000000 1.0
C      1  0.4914680000000  0.4091760000000  0.4440760000000 1.0
C      1  0.4144170000000  0.4755110000000  0.4445370000000 1.0
C      1  0.3897220000000  0.4661410000000  0.5637060000000 1.0
C      1  0.4327360000000  0.5968490000000  0.5586000000000 1.0
C      1  0.5718450000000  0.5917580000000  0.5612070000000 1.0
C      1  0.6072950000000  0.4601250000000  0.5611210000000 1.0
C      1  0.4991890000000  0.3856100000000  0.5613470000000 1.0
C      1  0.5377210000000  0.4841130000000  0.4283190000000 1.0
C      1  0.4902220000000  0.4545170000000  0.4338420000000 1.0
C      1  0.4552800000000  0.4926080000000  0.4317640000000 1.0
C      1  0.4782070000000  0.5352320000000  0.4305810000000 1.0
C      1  0.5295500000000  0.5420800000000  0.4379360000000 1.0
C      1  0.4045520000000  0.5391300000000  0.5281270000000 1.0
C      1  0.5081670000000  0.6036730000000  0.5274180000000 1.0
C      1  0.6006170000000  0.5227820000000  0.5288570000000 1.0
C      1  0.5523020000000  0.4137750000000  0.5270850000000 1.0
C      1  0.4325410000000  0.4174780000000  0.5301300000000 1.0
C      1  0.5487730000000  0.5372550000000  0.5005410000000 1.0
C      1  0.5490120000000  0.4660700000000  0.4984850000000 1.0
C      1  0.4832850000000  0.4367080000000  0.4995860000000 1.0
C      1  0.4410130000000  0.4963070000000  0.5035280000000 1.0
C      1  0.4791900000000  0.5558930000000  0.5003440000000 1.0
C      1  0.5263490000000  0.4134280000000  0.4473330000000 1.0
C      1  0.4268180000000  0.4481630000000  0.4507450000000 1.0
C      1  0.4291080000000  0.5499450000000  0.4482270000000 1.0
C      1  0.5315920000000  0.5865110000000  0.4496520000000 1.0
C      1  0.5876760000000  0.4957910000000  0.4491200000000 1.0
C      1  0.5457190000000  0.4371500000000  0.5417960000000 1.0
C      1  0.4544200000000  0.4264830000000  0.5464360000000 1.0
C      1  0.4218310000000  0.5241360000000  0.5450300000000 1.0
C      1  0.4970760000000  0.5833250000000  0.5443210000000 1.0
C      1  0.5772080000000  0.5263580000000  0.5447850000000 1.0
C      1  0.5253430000000  0.4778950000000  0.4534070000000 1.0
C      1  0.4841530000000  0.4654220000000  0.4590920000000 1.0
C      1  0.4608700000000  0.5018210000000  0.4572060000000 1.0
C      1  0.4891690000000  0.5345240000000  0.4559950000000 1.0
C      1  0.5301430000000  0.5207990000000  0.4581810000000 1.0
C      1  0.5589320000000  0.4663310000000  0.4219780000000 1.0
C      1  0.4842880000000  0.4284120000000  0.4253310000000 1.0
C      1  0.4289000000000  0.4884640000000  0.4232380000000 1.0
C      1  0.4712870000000  0.5615970000000  0.4222390000000 1.0
C      1  0.5552930000000  0.5499570000000  0.4293680000000 1.0
C      1  0.4197460000000  0.4519610000000  0.4988210000000 1.0
C      1  0.4308340000000  0.5612650000000  0.4948760000000 1.0
C      1  0.5395300000000  0.5854100000000  0.4959430000000 1.0
C      1  0.5921520000000  0.4889780000000  0.4962580000000 1.0
C      1  0.5194640000000  0.4048540000000  0.4936580000000 1.0
C      1  0.5752550000000  0.4344840000000  0.4549350000000 1.0
C      1  0.4588910000000  0.4050220000000  0.4581120000000 1.0
C      1  0.4002050000000  0.5050540000000  0.4581960000000 1.0
C      1  0.4787690000000  0.5971310000000  0.4537870000000 1.0
C      1  0.5925190000000  0.5494070000000  0.4553610000000 1.0
C      1  0.5374590000000  0.5988390000000  0.5216390000000 1.0
C      1  0.6050150000000  0.4943250000000  0.5216610000000 1.0
C      1  0.5286370000000  0.3975300000000  0.5203050000000 1.0
C      1  0.4126000000000  0.4393470000000  0.5240620000000 1.0
C      1  0.4168040000000  0.5649940000000  0.5200340000000 1.0
C      1  0.4174370000000  0.4797650000000  0.5005280000000 1.0
C      1  0.4562570000000  0.5733080000000  0.4959020000000 1.0
C      1  0.5589350000000  0.5647160000000  0.4967920000000 1.0
C      1  0.5780420000000  0.4647850000000  0.4972490000000 1.0
C      1  0.4913270000000  0.4087050000000  0.4943000000000 1.0
C      1  0.5530390000000  0.5160760000000  0.4796440000000 1.0
C      1  0.5307550000000  0.4526650000000  0.4786790000000 1.0
C      1  0.4660420000000  0.4559920000000  0.4835300000000 1.0
C      1  0.4485600000000  0.5164690000000  0.4819350000000 1.0
C      1  0.5018090000000  0.5565390000000  0.4804550000000 1.0
C      1  0.4456680000000  0.4117640000000  0.4819110000000 1.0
C      1  0.4012160000000  0.5212800000000  0.4815090000000 1.0
C      1  0.4925850000000  0.6026980000000  0.4791520000000 1.0
C      1  0.5968370000000  0.5367250000000  0.4804480000000 1.0
C      1  0.5664840000000  0.4212880000000  0.4793440000000 1.0
C      1  0.5493890000000  0.4214920000000  0.4317520000000 1.0
C      1  0.4389360000000  0.4262980000000  0.4351110000000 1.0
C      1  0.4123740000000  0.5305600000000  0.4336820000000 1.0
C      1  0.5072820000000  0.5917560000000  0.4327770000000 1.0
C      1  0.5878740000000  0.5199800000000  0.4329420000000 1.0
C      1  0.5519840000000  0.4407270000000  0.4120810000000 1.0
C      1  0.4576910000000  0.4267700000000  0.4147060000000 1.0
C      1  0.4174650000000  0.5126600000000  0.4131700000000 1.0
C      1  0.4978100000000  0.5718530000000  0.4150760000000 1.0
C      1  0.5644790000000  0.5253050000000  0.4170540000000 1.0
C      1  0.5370650000000  0.4599930000000  0.5257560000000 1.0
C      1  0.4733870000000  0.4390050000000  0.5278550000000 1.0
C      1  0.4423730000000  0.5101440000000  0.5301870000000 1.0
C      1  0.4901060000000  0.5597840000000  0.5284830000000 1.0
C      1  0.5531970000000  0.5265990000000  0.5281730000000 1.0
C      1  0.4850500000000  0.6082030000000  0.5073470000000 1.0
C      1  0.5994170000000  0.5458550000000  0.5089820000000 1.0
C      1  0.5745290000000  0.4208710000000  0.5081780000000 1.0
C      1  0.4479060000000  0.4009240000000  0.5094230000000 1.0
C      1  0.3931370000000  0.5177030000000  0.5098430000000 1.0
C      1  0.5762650000000  0.5496250000000  0.5878100000000 1.0
C      1  0.5662900000000  0.4449430000000  0.5853980000000 1.0
C      1  0.4739470000000  0.4187860000000  0.5894530000000 1.0
C      1  0.4089160000000  0.5056140000000  0.5882340000000 1.0
C      1  0.4737390000000  0.5901370000000  0.5866560000000 1.0
C      1  0.4985650000000  0.4998820000000  0.4654260000000 1.0
C      1  0.5136490000000  0.5227230000000  0.4017040000000 1.0
C      1  0.4904570000000  0.5024390000000  0.5001950000000 1.0
C      1  0.5000720000000  0.5056860000000  0.5333370000000 1.0
END
