TITL C-3201377-4638-915 0.0193283008774086 125000 -807.779601820724 0 0 132 (C1) n - 1
REM
REM in /home/nfs/bkarasulu/CARBON/AIRSS/Generating-Clusters/LCBOP/Higher-Symm/SD-CG/FIRE-CG
REM
REM
REM
REM
REM
REM ./C.cell (b20cbc046b6831c77cfcea5457e17084)
REM AIRSS Version 0.9.1 bugfix July 2018 build 013d7b7c2542+ Fri, 06 Jul 2018 19:26:36 +0100
REM compiler GCC version 9.2.1 20190827 (Red Hat 9.2.1-1)
REM options -cpp -mtune=generic -march=x86-64 -g -O0 -fpre-include=/usr/include/finclude/math-vector-fortran.h
REM seed -1906767533 -1425659841 388858854 -339783621 -2076470550 -80348715 973913295 113944012 1228920869 -1988608986 -1744639009 1464524231 -2006734319 -85373711 -1772793005 472724976 -478892093 -781045886 1873949630 1111268994 837069596 -1103960652 -254427889 80373065 293890350 -1664733681 2109361399 -580197430 -1943902956 283894554 1969167841 -922850027 -2032089567
REM
CELL 1.54180   50.00000   50.00000   50.00000   90.00000   90.00000   90.00000
LATT -1
SFAC C  
C      1  0.5393760000000  0.5326450000000  0.5803400000000 1.0
C      1  0.4577440000000  0.5185250000000  0.4235590000000 1.0
C      1  0.4799660000000  0.4848640000000  0.5804520000000 1.0
C      1  0.5268590000000  0.4135060000000  0.4504440000000 1.0
C      1  0.4168280000000  0.4931310000000  0.5848530000000 1.0
C      1  0.5875330000000  0.4779180000000  0.4928740000000 1.0
C      1  0.4353340000000  0.5992070000000  0.5390610000000 1.0
C      1  0.5339310000000  0.4289150000000  0.4264790000000 1.0
C      1  0.5868900000000  0.4058660000000  0.5052360000000 1.0
C      1  0.5943230000000  0.4049720000000  0.5312660000000 1.0
C      1  0.5176690000000  0.4436460000000  0.4082270000000 1.0
C      1  0.4039320000000  0.5374020000000  0.4657580000000 1.0
C      1  0.4387760000000  0.5442420000000  0.4954230000000 1.0
C      1  0.5599940000000  0.4138460000000  0.4951880000000 1.0
C      1  0.4807120000000  0.5001750000000  0.4906060000000 1.0
C      1  0.5263470000000  0.4194520000000  0.5306720000000 1.0
C      1  0.4517530000000  0.4425590000000  0.4378660000000 1.0
C      1  0.5754490000000  0.4127680000000  0.5821120000000 1.0
C      1  0.4618750000000  0.5153620000000  0.4513770000000 1.0
C      1  0.3949280000000  0.4803300000000  0.4908590000000 1.0
C      1  0.4827480000000  0.6252380000000  0.5256240000000 1.0
C      1  0.4136190000000  0.4359320000000  0.4940650000000 1.0
C      1  0.5443940000000  0.5321880000000  0.4588370000000 1.0
C      1  0.4528400000000  0.4627230000000  0.4964290000000 1.0
C      1  0.4565960000000  0.5639750000000  0.5603460000000 1.0
C      1  0.5559180000000  0.4434640000000  0.5035300000000 1.0
C      1  0.5439650000000  0.4731960000000  0.4669390000000 1.0
C      1  0.4503400000000  0.4547950000000  0.5235990000000 1.0
C      1  0.5333740000000  0.6093270000000  0.5417630000000 1.0
C      1  0.4858810000000  0.5578980000000  0.4232150000000 1.0
C      1  0.5003500000000  0.4803140000000  0.5010470000000 1.0
C      1  0.5490040000000  0.4089400000000  0.4681680000000 1.0
C      1  0.4725390000000  0.5430190000000  0.6049350000000 1.0
C      1  0.5188830000000  0.5489700000000  0.5903420000000 1.0
C      1  0.4517880000000  0.5258420000000  0.6076680000000 1.0
C      1  0.5568930000000  0.5166090000000  0.5402520000000 1.0
C      1  0.4725730000000  0.4492130000000  0.4801680000000 1.0
C      1  0.4937380000000  0.4665730000000  0.5941930000000 1.0
C      1  0.5668000000000  0.5648670000000  0.5465470000000 1.0
C      1  0.4613790000000  0.4063900000000  0.4988960000000 1.0
C      1  0.4572250000000  0.4324670000000  0.5392000000000 1.0
C      1  0.4895710000000  0.6151250000000  0.4757420000000 1.0
C      1  0.4325250000000  0.5005750000000  0.3847220000000 1.0
C      1  0.5476190000000  0.4919770000000  0.5538140000000 1.0
C      1  0.5947810000000  0.4749890000000  0.4282620000000 1.0
C      1  0.4065060000000  0.4724480000000  0.5377870000000 1.0
C      1  0.5871250000000  0.4082270000000  0.5568410000000 1.0
C      1  0.6063710000000  0.4930420000000  0.5047840000000 1.0
C      1  0.4980540000000  0.4387990000000  0.5934320000000 1.0
C      1  0.4810040000000  0.5711590000000  0.4921460000000 1.0
C      1  0.5401370000000  0.5233380000000  0.4323340000000 1.0
C      1  0.5100570000000  0.4814240000000  0.5273240000000 1.0
C      1  0.6330290000000  0.5955320000000  0.5434550000000 1.0
C      1  0.5911740000000  0.5203010000000  0.4533850000000 1.0
C      1  0.5415160000000  0.4004780000000  0.5155010000000 1.0
C      1  0.5984490000000  0.4993650000000  0.4384590000000 1.0
C      1  0.4978450000000  0.4540310000000  0.4914830000000 1.0
C      1  0.4114330000000  0.5021580000000  0.4291940000000 1.0
C      1  0.4922800000000  0.5585180000000  0.5905830000000 1.0
C      1  0.5711240000000  0.5317670000000  0.4693710000000 1.0
C      1  0.4980780000000  0.4653540000000  0.4449150000000 1.0
C      1  0.5400330000000  0.4454080000000  0.5281560000000 1.0
C      1  0.4085320000000  0.4430940000000  0.4657390000000 1.0
C      1  0.5616640000000  0.4348320000000  0.4235840000000 1.0
C      1  0.4333630000000  0.4147330000000  0.4967760000000 1.0
C      1  0.5633670000000  0.5700270000000  0.3704540000000 1.0
C      1  0.4166070000000  0.5153450000000  0.4536640000000 1.0
C      1  0.4553370000000  0.6173240000000  0.5332120000000 1.0
C      1  0.4540980000000  0.5168270000000  0.5503650000000 1.0
C      1  0.5924030000000  0.5616710000000  0.5326340000000 1.0
C      1  0.4870960000000  0.5455830000000  0.5294460000000 1.0
C      1  0.3980770000000  0.5072770000000  0.4993960000000 1.0
C      1  0.4881530000000  0.5758230000000  0.4434850000000 1.0
C      1  0.4324480000000  0.5078120000000  0.6017530000000 1.0
C      1  0.4654970000000  0.5415140000000  0.5458950000000 1.0
C      1  0.4967360000000  0.5159230000000  0.3963430000000 1.0
C      1  0.4565440000000  0.4281000000000  0.5668000000000 1.0
C      1  0.5521760000000  0.5896630000000  0.5449510000000 1.0
C      1  0.5559700000000  0.5405790000000  0.5577130000000 1.0
C      1  0.3989250000000  0.5503590000000  0.5198360000000 1.0
C      1  0.6128810000000  0.5177060000000  0.5142100000000 1.0
C      1  0.4798000000000  0.4008410000000  0.4771660000000 1.0
C      1  0.5118410000000  0.4670150000000  0.3925810000000 1.0
C      1  0.4037920000000  0.4601430000000  0.5111730000000 1.0
C      1  0.4747920000000  0.4245330000000  0.5862410000000 1.0
C      1  0.4656650000000  0.5475310000000  0.4863860000000 1.0
C      1  0.4336840000000  0.5068550000000  0.4113010000000 1.0
C      1  0.5487830000000  0.5392360000000  0.4110300000000 1.0
C      1  0.4154580000000  0.5481240000000  0.5431370000000 1.0
C      1  0.5911330000000  0.4101740000000  0.6044750000000 1.0
C      1  0.4083370000000  0.5363720000000  0.4952090000000 1.0
C      1  0.5563650000000  0.5546320000000  0.3908600000000 1.0
C      1  0.5057270000000  0.5262860000000  0.5260440000000 1.0
C      1  0.5279930000000  0.4981190000000  0.4275720000000 1.0
C      1  0.4896800000000  0.5716640000000  0.5197010000000 1.0
C      1  0.5820930000000  0.4519950000000  0.4236450000000 1.0
C      1  0.5701810000000  0.5851780000000  0.3503620000000 1.0
C      1  0.6134680000000  0.5791300000000  0.5382150000000 1.0
C      1  0.4791530000000  0.5327410000000  0.4110290000000 1.0
C      1  0.5132260000000  0.4938030000000  0.4033590000000 1.0
C      1  0.5238290000000  0.4276950000000  0.5926460000000 1.0
C      1  0.5729620000000  0.5343310000000  0.4975970000000 1.0
C      1  0.5010570000000  0.4050140000000  0.4604070000000 1.0
C      1  0.4779290000000  0.5245710000000  0.4738310000000 1.0
C      1  0.5958540000000  0.5404590000000  0.5133750000000 1.0
C      1  0.4740600000000  0.4519770000000  0.4519100000000 1.0
C      1  0.5521570000000  0.5231820000000  0.5134340000000 1.0
C      1  0.5048800000000  0.6119260000000  0.5401100000000 1.0
C      1  0.4253620000000  0.5193010000000  0.5483430000000 1.0
C      1  0.4988100000000  0.5028450000000  0.5403810000000 1.0
C      1  0.5047970000000  0.4636910000000  0.3662460000000 1.0
C      1  0.5394990000000  0.5032010000000  0.5798130000000 1.0
C      1  0.4936540000000  0.5863940000000  0.5448470000000 1.0
C      1  0.4872890000000  0.6301840000000  0.4980200000000 1.0
C      1  0.5628190000000  0.4653950000000  0.4869050000000 1.0
C      1  0.4123770000000  0.4942730000000  0.5563020000000 1.0
C      1  0.4394810000000  0.5031210000000  0.4662470000000 1.0
C      1  0.3949200000000  0.4685590000000  0.4638300000000 1.0
C      1  0.4266190000000  0.4362100000000  0.4452110000000 1.0
C      1  0.5240150000000  0.5347020000000  0.4782550000000 1.0
C      1  0.5255890000000  0.5281450000000  0.5057030000000 1.0
C      1  0.4317350000000  0.5725110000000  0.5500090000000 1.0
C      1  0.4871570000000  0.5876890000000  0.4695680000000 1.0
C      1  0.4756250000000  0.4991010000000  0.5568720000000 1.0
C      1  0.5483350000000  0.4198830000000  0.5853810000000 1.0
C      1  0.4816580000000  0.5753800000000  0.5693210000000 1.0
C      1  0.3943960000000  0.4805770000000  0.4376710000000 1.0
C      1  0.5234670000000  0.4785930000000  0.4478360000000 1.0
C      1  0.4729000000000  0.4135950000000  0.5244000000000 1.0
C      1  0.4524430000000  0.4897660000000  0.4885220000000 1.0
C      1  0.5339960000000  0.4712190000000  0.5384730000000 1.0
C      1  0.4995070000000  0.4126640000000  0.5326830000000 1.0
END
