TITL C-3201379-3821-1285 -1.37745903785081e-06 125000 -373.142638209742 0 0 63 (Cs) n - 1
REM
REM in /home/nfs/bkarasulu/CARBON/AIRSS/Generating-Clusters/LCBOP/Higher-Symm/SD-CG/FIRE-CG
REM
REM
REM
REM
REM
REM ./C.cell (b20cbc046b6831c77cfcea5457e17084)
REM AIRSS Version 0.9.1 bugfix July 2018 build 013d7b7c2542+ Fri, 06 Jul 2018 19:26:36 +0100
REM compiler GCC version 9.2.1 20190827 (Red Hat 9.2.1-1)
REM options -cpp -mtune=generic -march=x86-64 -g -O0 -fpre-include=/usr/include/finclude/math-vector-fortran.h
REM seed -709866857 432138553 -1727169789 1795906625 -76350908 -617060898 -1536732344 -1717350096 -1220393014 -1560279405 412231070 398880315 -1330009997 -372072507 -853288587 -772619007 292529419 -2033419029 -988339800 -333158591 689787876 -890118505 -730480598 834320087 -1914636113 972163287 432081082 -256486424 1668590320 1536939252 57822717 -23418889 680089573
REM
CELL 1.54180   50.00000   50.00000   50.00000   90.00000   90.00000   90.00000
LATT -1
SFAC C  
C      1  0.5007460000000  0.4464730000000  0.5383690000000 1.0
C      1  0.5464260000000  0.5299540000000  0.5384900000000 1.0
C      1  0.4532680000000  0.5262290000000  0.5382420000000 1.0
C      1  0.5010760000000  0.4461330000000  0.4610920000000 1.0
C      1  0.5470400000000  0.5295340000000  0.4607480000000 1.0
C      1  0.4536310000000  0.5261210000000  0.4620780000000 1.0
C      1  0.5009970000000  0.5538090000000  0.5386820000000 1.0
C      1  0.5463230000000  0.4701380000000  0.5384590000000 1.0
C      1  0.4531660000000  0.4742700000000  0.5380250000000 1.0
C      1  0.5008140000000  0.5536200000000  0.4613980000000 1.0
C      1  0.5471680000000  0.4704780000000  0.4606380000000 1.0
C      1  0.4537940000000  0.4733500000000  0.4618800000000 1.0
C      1  0.5009810000000  0.5277050000000  0.4740800000000 1.0
C      1  0.4766380000000  0.4856280000000  0.4744940000000 1.0
C      1  0.5261080000000  0.4858740000000  0.4729680000000 1.0
C      1  0.5005650000000  0.5280750000000  0.5256550000000 1.0
C      1  0.4761160000000  0.4860940000000  0.5252160000000 1.0
C      1  0.5255420000000  0.4860280000000  0.5262790000000 1.0
C      1  0.5011170000000  0.4719920000000  0.4739020000000 1.0
C      1  0.4765720000000  0.5139150000000  0.4745910000000 1.0
C      1  0.5260600000000  0.5139850000000  0.4730530000000 1.0
C      1  0.5004690000000  0.4722650000000  0.5254700000000 1.0
C      1  0.4761470000000  0.5143900000000  0.5253250000000 1.0
C      1  0.5255620000000  0.5141600000000  0.5263560000000 1.0
C      1  0.4583700000000  0.4692580000000  0.5650790000000 1.0
C      1  0.5460530000000  0.4727930000000  0.5667990000000 1.0
C      1  0.4935760000000  0.5510650000000  0.5656190000000 1.0
C      1  0.4587110000000  0.4687430000000  0.4347190000000 1.0
C      1  0.5464580000000  0.4729530000000  0.4322990000000 1.0
C      1  0.4934300000000  0.5510240000000  0.4344410000000 1.0
C      1  0.4585760000000  0.5311290000000  0.5653030000000 1.0
C      1  0.5461930000000  0.5271030000000  0.5668330000000 1.0
C      1  0.4932740000000  0.4491380000000  0.5653050000000 1.0
C      1  0.4585240000000  0.5308980000000  0.4349320000000 1.0
C      1  0.5463100000000  0.5271880000000  0.4324020000000 1.0
C      1  0.4937260000000  0.4488170000000  0.4341380000000 1.0
C      1  0.4297210000000  0.4767130000000  0.4766620000000 1.0
C      1  0.5555260000000  0.4482110000000  0.4762840000000 1.0
C      1  0.5148590000000  0.5731460000000  0.4767100000000 1.0
C      1  0.4291490000000  0.4785330000000  0.5237180000000 1.0
C      1  0.5537980000000  0.4475090000000  0.5232170000000 1.0
C      1  0.5152380000000  0.5729820000000  0.5244130000000 1.0
C      1  0.4295970000000  0.5225200000000  0.4769180000000 1.0
C      1  0.5554170000000  0.5517900000000  0.4764160000000 1.0
C      1  0.5151110000000  0.4265790000000  0.4763890000000 1.0
C      1  0.4294910000000  0.5223280000000  0.5243900000000 1.0
C      1  0.5538480000000  0.5522100000000  0.5234390000000 1.0
C      1  0.5149190000000  0.4272920000000  0.5240530000000 1.0
C      1  0.4738330000000  0.5140380000000  0.4176480000000 1.0
C      1  0.5000450000000  0.4712190000000  0.4172360000000 1.0
C      1  0.5248060000000  0.5146410000000  0.4179070000000 1.0
C      1  0.4738960000000  0.5142150000000  0.5824870000000 1.0
C      1  0.4998270000000  0.4713140000000  0.5823510000000 1.0
C      1  0.5248710000000  0.5145530000000  0.5816020000000 1.0
C      1  0.4739250000000  0.4857880000000  0.4175440000000 1.0
C      1  0.4998710000000  0.5287500000000  0.4174160000000 1.0
C      1  0.5248980000000  0.4854570000000  0.4178340000000 1.0
C      1  0.4737880000000  0.4859910000000  0.5823750000000 1.0
C      1  0.5000120000000  0.5287550000000  0.5825370000000 1.0
C      1  0.5247700000000  0.4853920000000  0.5815540000000 1.0
C      1  0.5367730000000  0.5657240000000  0.4973210000000 1.0
C      1  0.4256980000000  0.4998050000000  0.4974820000000 1.0
C      1  0.5367870000000  0.4342160000000  0.4971480000000 1.0
END
