TITL C-3201378-2706-512 -5.58064157226553e-07 125000 -424.728523557487 0 0 76 (T23) n - 1
REM
REM in /home/nfs/bkarasulu/CARBON/AIRSS/Generating-Clusters/LCBOP/Higher-Symm/SD-CG/FIRE-CG
REM
REM
REM
REM
REM
REM ./C.cell (b20cbc046b6831c77cfcea5457e17084)
REM AIRSS Version 0.9.1 bugfix July 2018 build 013d7b7c2542+ Fri, 06 Jul 2018 19:26:36 +0100
REM compiler GCC version 9.2.1 20190827 (Red Hat 9.2.1-1)
REM options -cpp -mtune=generic -march=x86-64 -g -O0 -fpre-include=/usr/include/finclude/math-vector-fortran.h
REM seed 493112948 -1094146295 1938224687 1834240300 -725994715 1881657992 2118672816 2120431092 816284922 866973533 -1939515408 -382174430 -2051920046 -443505419 -746727263 -1057320552 1207038673 -159266076 -1813884779 1161803567 -646072003 387738022 -1052813673 -19927485 992828273 1314777049 870815374 -1233890710 -2089079054 -1702941587 1717694822 1801029737 1393933818
REM
CELL 1.54180   50.00000   50.00000   50.00000   90.00000   90.00000   90.00000
LATT -1
SFAC C  
C      1  0.4828390000000  0.4704810000000  0.5000640000000 1.0
C      1  0.5005800000000  0.4827130000000  0.4701360000000 1.0
C      1  0.4706280000000  0.5003560000000  0.4823690000000 1.0
C      1  0.4828570000000  0.5304420000000  0.5001110000000 1.0
C      1  0.5183970000000  0.5304640000000  0.5001040000000 1.0
C      1  0.5183590000000  0.4705320000000  0.5001740000000 1.0
C      1  0.5006610000000  0.5182670000000  0.5300920000000 1.0
C      1  0.5006120000000  0.5182440000000  0.4701670000000 1.0
C      1  0.5005280000000  0.4826900000000  0.5300990000000 1.0
C      1  0.4706870000000  0.5006010000000  0.5178870000000 1.0
C      1  0.5305420000000  0.5005540000000  0.4823930000000 1.0
C      1  0.5305370000000  0.5003760000000  0.5179320000000 1.0
C      1  0.4958700000000  0.5273860000000  0.5582330000000 1.0
C      1  0.5586820000000  0.4956820000000  0.5270720000000 1.0
C      1  0.5274900000000  0.5586040000000  0.4952870000000 1.0
C      1  0.4957420000000  0.4736570000000  0.4419770000000 1.0
C      1  0.5053060000000  0.4735790000000  0.5582430000000 1.0
C      1  0.5053630000000  0.5273530000000  0.4420110000000 1.0
C      1  0.5587070000000  0.5052580000000  0.4732880000000 1.0
C      1  0.4425260000000  0.5052780000000  0.5270150000000 1.0
C      1  0.4424630000000  0.4955910000000  0.4733070000000 1.0
C      1  0.5274810000000  0.4423750000000  0.5048890000000 1.0
C      1  0.4737800000000  0.4423220000000  0.4952470000000 1.0
C      1  0.4737540000000  0.5586010000000  0.5048550000000 1.0
C      1  0.4305320000000  0.5226100000000  0.4796080000000 1.0
C      1  0.4800760000000  0.4303690000000  0.5222530000000 1.0
C      1  0.5227440000000  0.4799600000000  0.4300140000000 1.0
C      1  0.4306950000000  0.4781770000000  0.5207400000000 1.0
C      1  0.5706300000000  0.4782410000000  0.4796820000000 1.0
C      1  0.5705330000000  0.5227530000000  0.5207410000000 1.0
C      1  0.4801320000000  0.5705350000000  0.4778360000000 1.0
C      1  0.5211590000000  0.5705750000000  0.5222780000000 1.0
C      1  0.5212060000000  0.4305350000000  0.4777980000000 1.0
C      1  0.5228510000000  0.5209510000000  0.5702110000000 1.0
C      1  0.4782800000000  0.5210710000000  0.4301550000000 1.0
C      1  0.4783200000000  0.4800180000000  0.5702070000000 1.0
C      1  0.4927760000000  0.4325550000000  0.4717560000000 1.0
C      1  0.4722390000000  0.4926420000000  0.4322010000000 1.0
C      1  0.4326920000000  0.4721140000000  0.4923120000000 1.0
C      1  0.4927590000000  0.5684330000000  0.5283450000000 1.0
C      1  0.5085370000000  0.5684230000000  0.4718090000000 1.0
C      1  0.5084610000000  0.4325200000000  0.5283530000000 1.0
C      1  0.4723520000000  0.5084410000000  0.5680700000000 1.0
C      1  0.5288520000000  0.5083420000000  0.4321880000000 1.0
C      1  0.5288140000000  0.4925260000000  0.5680970000000 1.0
C      1  0.4326820000000  0.5287370000000  0.5079900000000 1.0
C      1  0.5685280000000  0.5287500000000  0.4922930000000 1.0
C      1  0.5685330000000  0.4722170000000  0.5080900000000 1.0
C      1  0.4588760000000  0.5404030000000  0.4339020000000 1.0
C      1  0.4344280000000  0.4587800000000  0.5400790000000 1.0
C      1  0.5405410000000  0.4342910000000  0.4583990000000 1.0
C      1  0.4587970000000  0.4607990000000  0.5667770000000 1.0
C      1  0.5420430000000  0.4605060000000  0.4333940000000 1.0
C      1  0.5423880000000  0.5401570000000  0.5667740000000 1.0
C      1  0.4338930000000  0.5418960000000  0.4601400000000 1.0
C      1  0.5667970000000  0.5421780000000  0.5400570000000 1.0
C      1  0.5672080000000  0.4587390000000  0.4604420000000 1.0
C      1  0.5405960000000  0.5671880000000  0.5415940000000 1.0
C      1  0.4608930000000  0.5670950000000  0.4583370000000 1.0
C      1  0.4606260000000  0.4337620000000  0.5415560000000 1.0
C      1  0.5526950000000  0.4815550000000  0.5542740000000 1.0
C      1  0.5547240000000  0.5526130000000  0.4812350000000 1.0
C      1  0.4817710000000  0.5546020000000  0.5522210000000 1.0
C      1  0.5527420000000  0.5193040000000  0.4460360000000 1.0
C      1  0.4484860000000  0.5194110000000  0.5542150000000 1.0
C      1  0.4483980000000  0.4815850000000  0.4460410000000 1.0
C      1  0.5546780000000  0.4483320000000  0.5190310000000 1.0
C      1  0.4465180000000  0.4482720000000  0.4812400000000 1.0
C      1  0.4465310000000  0.5526280000000  0.5189480000000 1.0
C      1  0.4817140000000  0.4464030000000  0.4479250000000 1.0
C      1  0.5194100000000  0.4463590000000  0.5522490000000 1.0
C      1  0.5195080000000  0.5545490000000  0.4479620000000 1.0
C      1  0.5480040000000  0.4529860000000  0.5476050000000 1.0
C      1  0.5480840000000  0.5478950000000  0.4526570000000 1.0
C      1  0.4531820000000  0.5479750000000  0.5475370000000 1.0
C      1  0.4531270000000  0.4530010000000  0.4526530000000 1.0
END
