TITL C-3201376-6384-1350 -1.79946230453134e-06 125000 -958.924330114691 0 0 163 (C1) n - 1
REM
REM in /home/nfs/bkarasulu/CARBON/AIRSS/Generating-Clusters/LCBOP/Higher-Symm/SD-CG/FIRE-CG
REM
REM
REM
REM
REM
REM ./C.cell (b20cbc046b6831c77cfcea5457e17084)
REM AIRSS Version 0.9.1 bugfix July 2018 build 013d7b7c2542+ Fri, 06 Jul 2018 19:26:36 +0100
REM compiler GCC version 9.2.1 20190827 (Red Hat 9.2.1-1)
REM options -cpp -mtune=generic -march=x86-64 -g -O0 -fpre-include=/usr/include/finclude/math-vector-fortran.h
REM seed -217920219 2121737060 1591529282 -1896402233 -174027599 -1182681512 -443696548 1732560365 -1957160223 -111687437 1414727671 -1503435949 169129695 -467236555 324832681 1485449408 1076348840 -2040246821 -106478205 -773964706 -1678355531 1981465860 899966637 622688500 1434740098 -1679645395 2013306046 -1264538783 1320752215 73956419 -13080577 -15604940 -589369181
REM
CELL 1.54180   50.00000   50.00000   50.00000   90.00000   90.00000   90.00000
LATT -1
SFAC C  
C      1  0.5490290000000  0.4850180000000  0.5069040000000 1.0
C      1  0.4688340000000  0.4673780000000  0.5092200000000 1.0
C      1  0.4844850000000  0.5545890000000  0.5071980000000 1.0
C      1  0.5467220000000  0.5130380000000  0.4973710000000 1.0
C      1  0.4606770000000  0.5413390000000  0.4967780000000 1.0
C      1  0.4912120000000  0.4506070000000  0.4973470000000 1.0
C      1  0.5355310000000  0.5527980000000  0.4127330000000 1.0
C      1  0.5320610000000  0.4274740000000  0.4159140000000 1.0
C      1  0.4330210000000  0.5098750000000  0.4133090000000 1.0
C      1  0.5547470000000  0.4392070000000  0.5848470000000 1.0
C      1  0.5197410000000  0.5495500000000  0.5883390000000 1.0
C      1  0.4342510000000  0.4923050000000  0.5842040000000 1.0
C      1  0.5359280000000  0.4234700000000  0.4455590000000 1.0
C      1  0.4274190000000  0.5104080000000  0.4424190000000 1.0
C      1  0.5347780000000  0.5588030000000  0.4413370000000 1.0
C      1  0.5267860000000  0.5610370000000  0.5619360000000 1.0
C      1  0.4232520000000  0.4955800000000  0.5565680000000 1.0
C      1  0.5546440000000  0.4371890000000  0.5547410000000 1.0
C      1  0.4603050000000  0.5406990000000  0.4453910000000 1.0
C      1  0.5341900000000  0.5174550000000  0.4557310000000 1.0
C      1  0.4970410000000  0.4426940000000  0.4459790000000 1.0
C      1  0.4452960000000  0.4586020000000  0.5496270000000 1.0
C      1  0.5555800000000  0.4817880000000  0.5573310000000 1.0
C      1  0.4817840000000  0.5653520000000  0.5596300000000 1.0
C      1  0.3856110000000  0.5280860000000  0.5298180000000 1.0
C      1  0.5761090000000  0.5820950000000  0.5269400000000 1.0
C      1  0.5337520000000  0.3913060000000  0.5268990000000 1.0
C      1  0.3900360000000  0.4767740000000  0.4694400000000 1.0
C      1  0.5834290000000  0.4176770000000  0.4691820000000 1.0
C      1  0.5357570000000  0.6099390000000  0.4648620000000 1.0
C      1  0.5367460000000  0.5486150000000  0.5371930000000 1.0
C      1  0.5296930000000  0.4405580000000  0.5370320000000 1.0
C      1  0.4344640000000  0.5127720000000  0.5349440000000 1.0
C      1  0.5442010000000  0.4431500000000  0.4681390000000 1.0
C      1  0.5178790000000  0.5619070000000  0.4660380000000 1.0
C      1  0.4347650000000  0.4953830000000  0.4667470000000 1.0
C      1  0.4757740000000  0.5716310000000  0.4139790000000 1.0
C      1  0.5732240000000  0.4857640000000  0.4130520000000 1.0
C      1  0.4558260000000  0.4497620000000  0.4160240000000 1.0
C      1  0.4824450000000  0.4317880000000  0.5874590000000 1.0
C      1  0.5746150000000  0.5124710000000  0.5869060000000 1.0
C      1  0.4454780000000  0.5581780000000  0.5869860000000 1.0
C      1  0.5899100000000  0.4369840000000  0.4198930000000 1.0
C      1  0.4050450000000  0.4602500000000  0.4210430000000 1.0
C      1  0.5176500000000  0.6041180000000  0.4167510000000 1.0
C      1  0.5797850000000  0.5639320000000  0.5771180000000 1.0
C      1  0.3968840000000  0.5373000000000  0.5792200000000 1.0
C      1  0.5167460000000  0.3943140000000  0.5782550000000 1.0
C      1  0.4681420000000  0.5819310000000  0.4662830000000 1.0
C      1  0.5742710000000  0.4872390000000  0.4627080000000 1.0
C      1  0.4533860000000  0.4471350000000  0.4653440000000 1.0
C      1  0.4761150000000  0.4259230000000  0.5380070000000 1.0
C      1  0.5808060000000  0.5128050000000  0.5346560000000 1.0
C      1  0.4448310000000  0.5748500000000  0.5348200000000 1.0
C      1  0.4312100000000  0.5385600000000  0.4472670000000 1.0
C      1  0.5534950000000  0.5388370000000  0.4504450000000 1.0
C      1  0.5079600000000  0.4171460000000  0.4521400000000 1.0
C      1  0.4184940000000  0.4676460000000  0.5486150000000 1.0
C      1  0.5731030000000  0.4586900000000  0.5493020000000 1.0
C      1  0.5057140000000  0.5812180000000  0.5581660000000 1.0
C      1  0.4021130000000  0.4470620000000  0.5378130000000 1.0
C      1  0.5058470000000  0.6076280000000  0.5491770000000 1.0
C      1  0.6006620000000  0.4583830000000  0.5413270000000 1.0
C      1  0.4105440000000  0.5572740000000  0.4497630000000 1.0
C      1  0.4922140000000  0.3944230000000  0.4579090000000 1.0
C      1  0.5821740000000  0.5432640000000  0.4521780000000 1.0
C      1  0.4112550000000  0.4253150000000  0.5231190000000 1.0
C      1  0.4934300000000  0.6186570000000  0.5277980000000 1.0
C      1  0.6169240000000  0.4698980000000  0.5217270000000 1.0
C      1  0.4054230000000  0.5741060000000  0.4703650000000 1.0
C      1  0.4703660000000  0.3888260000000  0.4738020000000 1.0
C      1  0.6049030000000  0.5363160000000  0.4673500000000 1.0
C      1  0.5020480000000  0.5039150000000  0.4940460000000 1.0
C      1  0.5331510000000  0.4776560000000  0.4364370000000 1.0
C      1  0.4711420000000  0.4889490000000  0.4416010000000 1.0
C      1  0.5120850000000  0.4540870000000  0.5560200000000 1.0
C      1  0.5017270000000  0.5211750000000  0.5416290000000 1.0
C      1  0.4799170000000  0.4835480000000  0.5305960000000 1.0
C      1  0.5078920000000  0.3937320000000  0.5152570000000 1.0
C      1  0.3995100000000  0.5517170000000  0.5229020000000 1.0
C      1  0.5888930000000  0.5597070000000  0.5155320000000 1.0
C      1  0.5093520000000  0.6119180000000  0.4744350000000 1.0
C      1  0.4058680000000  0.4574590000000  0.4825670000000 1.0
C      1  0.5923510000000  0.4419920000000  0.4807030000000 1.0
C      1  0.5313430000000  0.3888720000000  0.5558390000000 1.0
C      1  0.3831130000000  0.5268310000000  0.5583980000000 1.0
C      1  0.5767260000000  0.5804990000000  0.5557390000000 1.0
C      1  0.5355810000000  0.6102520000000  0.4361730000000 1.0
C      1  0.3905430000000  0.4720940000000  0.4408910000000 1.0
C      1  0.5872550000000  0.4191310000000  0.4404070000000 1.0
C      1  0.5505730000000  0.3549210000000  0.4544870000000 1.0
C      1  0.3519340000000  0.5348890000000  0.4523440000000 1.0
C      1  0.6062490000000  0.6035230000000  0.4543170000000 1.0
C      1  0.5526310000000  0.6493980000000  0.5355610000000 1.0
C      1  0.3426270000000  0.4712930000000  0.5363920000000 1.0
C      1  0.6038560000000  0.3909480000000  0.5441670000000 1.0
C      1  0.5597620000000  0.3954770000000  0.5127160000000 1.0
C      1  0.3771330000000  0.5056780000000  0.5124690000000 1.0
C      1  0.5624830000000  0.6024650000000  0.5106540000000 1.0
C      1  0.5593370000000  0.6037190000000  0.4813580000000 1.0
C      1  0.3798690000000  0.5006940000000  0.4834810000000 1.0
C      1  0.5668820000000  0.3976280000000  0.4839180000000 1.0
C      1  0.4838600000000  0.6020130000000  0.4808470000000 1.0
C      1  0.5927740000000  0.4700500000000  0.4773970000000 1.0
C      1  0.4296200000000  0.4425410000000  0.4817740000000 1.0
C      1  0.4821490000000  0.4052250000000  0.5188090000000 1.0
C      1  0.5928820000000  0.5319530000000  0.5165460000000 1.0
C      1  0.4206440000000  0.5700100000000  0.5189330000000 1.0
C      1  0.4544700000000  0.4438590000000  0.5256070000000 1.0
C      1  0.4706550000000  0.5783220000000  0.5193910000000 1.0
C      1  0.5755960000000  0.4879870000000  0.5180930000000 1.0
C      1  0.4494350000000  0.5650730000000  0.4824700000000 1.0
C      1  0.4748170000000  0.4339210000000  0.4806780000000 1.0
C      1  0.5697570000000  0.5115820000000  0.4795160000000 1.0
C      1  0.5099040000000  0.4656380000000  0.4401310000000 1.0
C      1  0.4740680000000  0.5158580000000  0.4428530000000 1.0
C      1  0.5133900000000  0.5081480000000  0.4701540000000 1.0
C      1  0.4868460000000  0.5379960000000  0.5554030000000 1.0
C      1  0.4664420000000  0.4777480000000  0.5542630000000 1.0
C      1  0.5275690000000  0.4771670000000  0.5635460000000 1.0
C      1  0.5551310000000  0.6259920000000  0.5243610000000 1.0
C      1  0.5824600000000  0.3943910000000  0.5296900000000 1.0
C      1  0.3605850000000  0.4867440000000  0.5255240000000 1.0
C      1  0.5583750000000  0.3755750000000  0.4683300000000 1.0
C      1  0.5835580000000  0.6014950000000  0.4669800000000 1.0
C      1  0.3674990000000  0.5199770000000  0.4670000000000 1.0
C      1  0.4486180000000  0.4929320000000  0.4922840000000 1.0
C      1  0.5117020000000  0.5529450000000  0.4940300000000 1.0
C      1  0.5394290000000  0.4596150000000  0.4931120000000 1.0
C      1  0.4473840000000  0.5171010000000  0.5084750000000 1.0
C      1  0.5189140000000  0.4471970000000  0.5093670000000 1.0
C      1  0.5335240000000  0.5385020000000  0.5093630000000 1.0
C      1  0.4243920000000  0.5748600000000  0.4910950000000 1.0
C      1  0.5986780000000  0.5175760000000  0.4899460000000 1.0
C      1  0.4630360000000  0.4087670000000  0.4947610000000 1.0
C      1  0.4372010000000  0.4254430000000  0.5070490000000 1.0
C      1  0.6023420000000  0.4864450000000  0.5014450000000 1.0
C      1  0.4790350000000  0.6032810000000  0.5090660000000 1.0
C      1  0.5073400000000  0.4321340000000  0.4026630000000 1.0
C      1  0.4465580000000  0.5290540000000  0.3982690000000 1.0
C      1  0.5494220000000  0.5324860000000  0.3999250000000 1.0
C      1  0.4960890000000  0.5480700000000  0.6027770000000 1.0
C      1  0.4484160000000  0.4729440000000  0.5981900000000 1.0
C      1  0.5630520000000  0.4612340000000  0.6004570000000 1.0
C      1  0.4619440000000  0.5519720000000  0.3974200000000 1.0
C      1  0.5647960000000  0.5097180000000  0.3992860000000 1.0
C      1  0.4802220000000  0.4391370000000  0.4031760000000 1.0
C      1  0.4644490000000  0.4506010000000  0.5998540000000 1.0
C      1  0.5708200000000  0.4879750000000  0.6028750000000 1.0
C      1  0.4686550000000  0.5510120000000  0.6033400000000 1.0
C      1  0.5694610000000  0.5062850000000  0.5596690000000 1.0
C      1  0.4892000000000  0.4383010000000  0.5603890000000 1.0
C      1  0.4534770000000  0.5703320000000  0.5621050000000 1.0
C      1  0.5604170000000  0.4834540000000  0.4384580000000 1.0
C      1  0.4706950000000  0.5669850000000  0.4417480000000 1.0
C      1  0.4594670000000  0.4626810000000  0.4419040000000 1.0
C      1  0.4278860000000  0.4505520000000  0.4095950000000 1.0
C      1  0.4959570000000  0.5905200000000  0.4081280000000 1.0
C      1  0.5869100000000  0.4612080000000  0.4075410000000 1.0
C      1  0.4191160000000  0.5485370000000  0.5893890000000 1.0
C      1  0.4984370000000  0.4083900000000  0.5930730000000 1.0
C      1  0.5795370000000  0.5402540000000  0.5905450000000 1.0
C      1  0.4974630000000  0.5027050000000  0.5218700000000 1.0
END
