TITL C-3201376-6384-1679 -7.42337814702383e-08 125000 -336.783698614567 0 0 57 (Cs) n - 1
REM
REM in /home/nfs/bkarasulu/CARBON/AIRSS/Generating-Clusters/LCBOP/Higher-Symm/SD-CG/FIRE-CG
REM
REM
REM
REM
REM
REM ./C.cell (b20cbc046b6831c77cfcea5457e17084)
REM AIRSS Version 0.9.1 bugfix July 2018 build 013d7b7c2542+ Fri, 06 Jul 2018 19:26:36 +0100
REM compiler GCC version 9.2.1 20190827 (Red Hat 9.2.1-1)
REM options -cpp -mtune=generic -march=x86-64 -g -O0 -fpre-include=/usr/include/finclude/math-vector-fortran.h
REM seed -1720959586 1767820865 1380358803 -1924275955 1351274299 765775908 -1141051255 458147231 -1381489313 1675679241 -779887714 -2090906800 -1567820358 -428344566 -562491365 1266659392 1580419897 -1071505895 839107260 -1661388626 1583687736 -361876704 -1044958869 -649068342 -2083268970 -1404453448 635852306 -1940692808 -884654641 1325447367 1636290173 2102538406 -857594001
REM
CELL 1.54180   50.00000   50.00000   50.00000   90.00000   90.00000   90.00000
LATT -1
SFAC C  
C      1  0.4318480000000  0.4693100000000  0.5118900000000 1.0
C      1  0.5657850000000  0.4692960000000  0.5119190000000 1.0
C      1  0.5538970000000  0.5942500000000  0.5148900000000 1.0
C      1  0.4437610000000  0.5942610000000  0.5148670000000 1.0
C      1  0.5227920000000  0.4795510000000  0.4865980000000 1.0
C      1  0.4748530000000  0.4795560000000  0.4865880000000 1.0
C      1  0.4591100000000  0.4866530000000  0.4636680000000 1.0
C      1  0.5385470000000  0.4866450000000  0.4636850000000 1.0
C      1  0.5422140000000  0.5721570000000  0.5075030000000 1.0
C      1  0.4554420000000  0.5721660000000  0.5074840000000 1.0
C      1  0.4839940000000  0.5494750000000  0.4747340000000 1.0
C      1  0.5136710000000  0.5494720000000  0.4747400000000 1.0
C      1  0.4683480000000  0.4680420000000  0.5448010000000 1.0
C      1  0.5292710000000  0.4680350000000  0.5448140000000 1.0
C      1  0.4749110000000  0.5466810000000  0.4450550000000 1.0
C      1  0.5227670000000  0.5466760000000  0.4450650000000 1.0
C      1  0.5481260000000  0.5121210000000  0.5248770000000 1.0
C      1  0.4495110000000  0.5121310000000  0.5248560000000 1.0
C      1  0.5130570000000  0.4529520000000  0.5265310000000 1.0
C      1  0.4845660000000  0.4529550000000  0.5265250000000 1.0
C      1  0.4696310000000  0.5496710000000  0.4992540000000 1.0
C      1  0.5280240000000  0.5496650000000  0.4992660000000 1.0
C      1  0.4245300000000  0.5158770000000  0.5093420000000 1.0
C      1  0.5731140000000  0.5158610000000  0.5093740000000 1.0
C      1  0.4442610000000  0.4458830000000  0.5005880000000 1.0
C      1  0.5533710000000  0.4458710000000  0.5006120000000 1.0
C      1  0.5138770000000  0.5183080000000  0.4364050000000 1.0
C      1  0.4837980000000  0.5183110000000  0.4363990000000 1.0
C      1  0.5223720000000  0.4911870000000  0.4410190000000 1.0
C      1  0.4752960000000  0.4911920000000  0.4410090000000 1.0
C      1  0.4751990000000  0.4697830000000  0.5718060000000 1.0
C      1  0.5224090000000  0.4697790000000  0.5718160000000 1.0
C      1  0.4474450000000  0.5551030000000  0.4382930000000 1.0
C      1  0.5502380000000  0.5550920000000  0.4383150000000 1.0
C      1  0.5660740000000  0.4902680000000  0.4683790000000 1.0
C      1  0.4315820000000  0.4902820000000  0.4683510000000 1.0
C      1  0.4739260000000  0.4506510000000  0.4976520000000 1.0
C      1  0.5237080000000  0.4506460000000  0.4976620000000 1.0
C      1  0.5658910000000  0.4228020000000  0.4935810000000 1.0
C      1  0.4317400000000  0.4228160000000  0.4935530000000 1.0
C      1  0.4483570000000  0.4835890000000  0.5322560000000 1.0
C      1  0.5492700000000  0.4835790000000  0.5322780000000 1.0
C      1  0.5246810000000  0.5266260000000  0.5163440000000 1.0
C      1  0.4729620000000  0.5266320000000  0.5163330000000 1.0
C      1  0.4213540000000  0.4908250000000  0.4948180000000 1.0
C      1  0.5762910000000  0.4908090000000  0.4948520000000 1.0
C      1  0.5904910000000  0.5366510000000  0.5101170000000 1.0
C      1  0.4071570000000  0.5366700000000  0.5100780000000 1.0
C      1  0.4988000000000  0.4709600000000  0.5870360000000 1.0
C      1  0.4988200000000  0.4395040000000  0.4812470000000 1.0
C      1  0.4988230000000  0.4929910000000  0.4943580000000 1.0
C      1  0.4987890000000  0.4751330000000  0.6407080000000 1.0
C      1  0.4987950000000  0.4731170000000  0.6147250000000 1.0
C      1  0.4988320000000  0.4728890000000  0.4394410000000 1.0
C      1  0.4988210000000  0.5141200000000  0.5131060000000 1.0
C      1  0.4988430000000  0.5626450000000  0.4320150000000 1.0
C      1  0.4988270000000  0.4474460000000  0.4529860000000 1.0
END
