TITL C-3201375-1262-269 -7.37302883198322e-08 125000 -540.346042630538 0 0 88 (C1) n - 1
REM
REM in /home/nfs/bkarasulu/CARBON/AIRSS/Generating-Clusters/LCBOP/Higher-Symm/SD-CG/FIRE-CG
REM
REM
REM
REM
REM
REM ./C.cell (b20cbc046b6831c77cfcea5457e17084)
REM AIRSS Version 0.9.1 bugfix July 2018 build 013d7b7c2542+ Fri, 06 Jul 2018 19:26:36 +0100
REM compiler GCC version 9.2.1 20190827 (Red Hat 9.2.1-1)
REM options -cpp -mtune=generic -march=x86-64 -g -O0 -fpre-include=/usr/include/finclude/math-vector-fortran.h
REM seed 1919845301 -948445432 1260578093 -1038060923 -34082852 -799744469 -1051525669 -274205240 -1655072986 117345289 -320664231 473892877 948764392 691345801 1495253628 946335837 -290338609 -49008711 -1154912908 -2119246299 -838129382 168852486 -1239541803 -2089822029 -53238311 413826985 -159208827 -1203585344 -1363886559 -995511433 450218871 925441494 1327911130
REM
CELL 1.54180   50.00000   50.00000   50.00000   90.00000   90.00000   90.00000
LATT -1
SFAC C  
C      1  0.5141080000000  0.5373180000000  0.5772220000000 1.0
C      1  0.4658980000000  0.4562010000000  0.4256860000000 1.0
C      1  0.4847010000000  0.5096490000000  0.5134730000000 1.0
C      1  0.5373400000000  0.5057280000000  0.4703210000000 1.0
C      1  0.4623870000000  0.4365420000000  0.4711790000000 1.0
C      1  0.5272870000000  0.5682480000000  0.5416690000000 1.0
C      1  0.5185560000000  0.5881090000000  0.5233650000000 1.0
C      1  0.4786200000000  0.4209200000000  0.4882070000000 1.0
C      1  0.5396040000000  0.4657660000000  0.5676020000000 1.0
C      1  0.4487740000000  0.5384110000000  0.4506350000000 1.0
C      1  0.5348000000000  0.5737910000000  0.4820930000000 1.0
C      1  0.4779430000000  0.4447310000000  0.5304810000000 1.0
C      1  0.5444600000000  0.4450040000000  0.4804460000000 1.0
C      1  0.4655660000000  0.5758390000000  0.5311450000000 1.0
C      1  0.5833110000000  0.5176840000000  0.5377720000000 1.0
C      1  0.4337070000000  0.4770810000000  0.4833500000000 1.0
C      1  0.5784890000000  0.5474470000000  0.4971150000000 1.0
C      1  0.4290390000000  0.4523860000000  0.5243030000000 1.0
C      1  0.4834650000000  0.5573020000000  0.5424320000000 1.0
C      1  0.5572030000000  0.4600750000000  0.4605830000000 1.0
C      1  0.4583870000000  0.4638280000000  0.4798700000000 1.0
C      1  0.5416940000000  0.5461040000000  0.5315540000000 1.0
C      1  0.4983810000000  0.4889300000000  0.5292760000000 1.0
C      1  0.5205290000000  0.5253540000000  0.4577570000000 1.0
C      1  0.6041820000000  0.5053700000000  0.4970870000000 1.0
C      1  0.3970590000000  0.4887980000000  0.5116250000000 1.0
C      1  0.5425090000000  0.4413100000000  0.5082060000000 1.0
C      1  0.4600920000000  0.5699920000000  0.5038350000000 1.0
C      1  0.4446780000000  0.4750760000000  0.4240990000000 1.0
C      1  0.5412100000000  0.5320110000000  0.5854470000000 1.0
C      1  0.4922560000000  0.4272440000000  0.5119640000000 1.0
C      1  0.5114140000000  0.5824950000000  0.4964070000000 1.0
C      1  0.4177080000000  0.4704710000000  0.5058170000000 1.0
C      1  0.5901690000000  0.5255340000000  0.5111270000000 1.0
C      1  0.4346920000000  0.5416250000000  0.3772700000000 1.0
C      1  0.5293200000000  0.4730680000000  0.6409910000000 1.0
C      1  0.5227730000000  0.4253690000000  0.5482850000000 1.0
C      1  0.4810750000000  0.5720390000000  0.4600350000000 1.0
C      1  0.5878460000000  0.4599270000000  0.5105980000000 1.0
C      1  0.4214380000000  0.5306650000000  0.5224220000000 1.0
C      1  0.5208070000000  0.4254360000000  0.5195690000000 1.0
C      1  0.4835940000000  0.5782910000000  0.4873970000000 1.0
C      1  0.4932930000000  0.5259860000000  0.4658570000000 1.0
C      1  0.5800160000000  0.4507760000000  0.4486360000000 1.0
C      1  0.4297800000000  0.5000460000000  0.4669410000000 1.0
C      1  0.5693580000000  0.5000170000000  0.5549380000000 1.0
C      1  0.5627460000000  0.4565910000000  0.5234880000000 1.0
C      1  0.4374010000000  0.5433180000000  0.5001670000000 1.0
C      1  0.4927410000000  0.4664020000000  0.4287030000000 1.0
C      1  0.5014190000000  0.5124200000000  0.5690740000000 1.0
C      1  0.4360110000000  0.5284420000000  0.4750550000000 1.0
C      1  0.5591910000000  0.4728490000000  0.5469580000000 1.0
C      1  0.4395510000000  0.5239490000000  0.4276810000000 1.0
C      1  0.5432490000000  0.4830980000000  0.5901070000000 1.0
C      1  0.5066820000000  0.5591100000000  0.5594700000000 1.0
C      1  0.4605880000000  0.4337300000000  0.4428900000000 1.0
C      1  0.4981970000000  0.4713690000000  0.4559460000000 1.0
C      1  0.5165760000000  0.5055610000000  0.5437310000000 1.0
C      1  0.4497830000000  0.4862520000000  0.5761560000000 1.0
C      1  0.5154330000000  0.4768870000000  0.3829460000000 1.0
C      1  0.5344840000000  0.5193650000000  0.5251990000000 1.0
C      1  0.4811800000000  0.4803500000000  0.4760400000000 1.0
C      1  0.5299490000000  0.5411630000000  0.4374900000000 1.0
C      1  0.4963860000000  0.4636560000000  0.5414430000000 1.0
C      1  0.5396870000000  0.5083320000000  0.4988560000000 1.0
C      1  0.4846540000000  0.5067660000000  0.4854960000000 1.0
C      1  0.5366440000000  0.4776790000000  0.6164110000000 1.0
C      1  0.4366600000000  0.5332560000000  0.4018700000000 1.0
C      1  0.4770220000000  0.5312470000000  0.5310270000000 1.0
C      1  0.5456870000000  0.4846690000000  0.4521940000000 1.0
C      1  0.5541510000000  0.4946250000000  0.4018970000000 1.0
C      1  0.4316220000000  0.5214870000000  0.5478530000000 1.0
C      1  0.5135700000000  0.4746850000000  0.4118910000000 1.0
C      1  0.4724520000000  0.5051980000000  0.5707410000000 1.0
C      1  0.5385010000000  0.4856800000000  0.4245150000000 1.0
C      1  0.4595650000000  0.5219170000000  0.5506220000000 1.0
C      1  0.3984100000000  0.5156700000000  0.5146490000000 1.0
C      1  0.6032240000000  0.4785780000000  0.4990200000000 1.0
C      1  0.4972530000000  0.4689430000000  0.3645030000000 1.0
C      1  0.4504640000000  0.4593690000000  0.5671880000000 1.0
C      1  0.4757190000000  0.5452660000000  0.4540230000000 1.0
C      1  0.5171080000000  0.4515560000000  0.5584410000000 1.0
C      1  0.5409740000000  0.4895140000000  0.3781500000000 1.0
C      1  0.4252000000000  0.5011460000000  0.5677510000000 1.0
C      1  0.5557250000000  0.5078540000000  0.5802950000000 1.0
C      1  0.4337710000000  0.4973170000000  0.4375870000000 1.0
C      1  0.5593220000000  0.5626430000000  0.4855390000000 1.0
C      1  0.4515280000000  0.4480990000000  0.5408490000000 1.0
END
