TITL C-3201377-4638-1665 -0.452912571104798 125000 -313.357432563052 0 0 52 (C1) n - 1
REM
REM in /home/nfs/bkarasulu/CARBON/AIRSS/Generating-Clusters/LCBOP/Higher-Symm/SD-CG/FIRE-CG
REM
REM
REM
REM
REM
REM ./C.cell (b20cbc046b6831c77cfcea5457e17084)
REM AIRSS Version 0.9.1 bugfix July 2018 build 013d7b7c2542+ Fri, 06 Jul 2018 19:26:36 +0100
REM compiler GCC version 9.2.1 20190827 (Red Hat 9.2.1-1)
REM options -cpp -mtune=generic -march=x86-64 -g -O0 -fpre-include=/usr/include/finclude/math-vector-fortran.h
REM seed -451714644 921649371 -959005111 555516332 2043369375 -1221264468 -1635175374 2135356034 -2088118097 -323232855 2066900874 -413680002 -6145854 -935212823 -1607978727 -427930110 1534347348 -548945321 579657791 1921266980 111135675 -1149664515 -133555143 785892481 -762435150 793679070 -371971810 1789893127 1296925138 430065467 1199541352 -676501554 -1880887663
REM
CELL 1.54180   50.00000   50.00000   50.00000   90.00000   90.00000   90.00000
LATT -1
SFAC C  
C      1  0.5229210000000  0.5274140000000  0.5782820000000 1.0
C      1  0.5114760000000  0.4257080000000  0.5197320000000 1.0
C      1  0.5166200000000  0.5035110000000  0.5914610000000 1.0
C      1  0.4339690000000  0.4844230000000  0.4360560000000 1.0
C      1  0.5024340000000  0.5160280000000  0.4277620000000 1.0
C      1  0.4763960000000  0.4973380000000  0.5619220000000 1.0
C      1  0.5506680000000  0.4678090000000  0.5895130000000 1.0
C      1  0.5143760000000  0.5763820000000  0.4999390000000 1.0
C      1  0.4857740000000  0.4450970000000  0.6054480000000 1.0
C      1  0.4616800000000  0.4584930000000  0.3485340000000 1.0
C      1  0.4742460000000  0.4734400000000  0.3658060000000 1.0
C      1  0.5344240000000  0.5335010000000  0.5536830000000 1.0
C      1  0.4618990000000  0.5268270000000  0.4545410000000 1.0
C      1  0.4118140000000  0.4229530000000  0.3916910000000 1.0
C      1  0.5615400000000  0.5275710000000  0.5470850000000 1.0
C      1  0.4962170000000  0.5027000000000  0.4040240000000 1.0
C      1  0.4252620000000  0.4634670000000  0.4223710000000 1.0
C      1  0.5682970000000  0.5264570000000  0.5192470000000 1.0
C      1  0.5052250000000  0.4576220000000  0.4829560000000 1.0
C      1  0.4903750000000  0.5804760000000  0.4585220000000 1.0
C      1  0.5005480000000  0.4386650000000  0.5421400000000 1.0
C      1  0.4606770000000  0.5582560000000  0.5236640000000 1.0
C      1  0.5656840000000  0.4775330000000  0.5227340000000 1.0
C      1  0.5262970000000  0.5102770000000  0.4413340000000 1.0
C      1  0.4942230000000  0.4878940000000  0.5824130000000 1.0
C      1  0.5674610000000  0.5006920000000  0.5067130000000 1.0
C      1  0.5577480000000  0.5493700000000  0.5053070000000 1.0
C      1  0.4637770000000  0.5225160000000  0.5612590000000 1.0
C      1  0.4897260000000  0.5761590000000  0.4864610000000 1.0
C      1  0.4976180000000  0.4593750000000  0.5854200000000 1.0
C      1  0.5461380000000  0.5037810000000  0.4577920000000 1.0
C      1  0.5189520000000  0.5393890000000  0.5303160000000 1.0
C      1  0.4773590000000  0.4545780000000  0.5373450000000 1.0
C      1  0.4455900000000  0.5055850000000  0.4469550000000 1.0
C      1  0.4586230000000  0.5442450000000  0.5464050000000 1.0
C      1  0.4951890000000  0.4810010000000  0.4914170000000 1.0
C      1  0.4573580000000  0.5413840000000  0.4782300000000 1.0
C      1  0.5562300000000  0.4613510000000  0.5417880000000 1.0
C      1  0.5421740000000  0.4553250000000  0.5654160000000 1.0
C      1  0.5146260000000  0.4470840000000  0.5653610000000 1.0
C      1  0.5385280000000  0.4886460000000  0.6018420000000 1.0
C      1  0.4895260000000  0.4957560000000  0.5146490000000 1.0
C      1  0.4772650000000  0.4828070000000  0.5370270000000 1.0
C      1  0.4863570000000  0.4884400000000  0.3839960000000 1.0
C      1  0.5312310000000  0.5576150000000  0.5117180000000 1.0
C      1  0.5610520000000  0.4994670000000  0.4794040000000 1.0
C      1  0.4678880000000  0.5602200000000  0.4965410000000 1.0
C      1  0.5128470000000  0.4344340000000  0.4942520000000 1.0
C      1  0.5014450000000  0.5204980000000  0.5194840000000 1.0
C      1  0.4182150000000  0.4429430000000  0.4071520000000 1.0
C      1  0.4898510000000  0.5625670000000  0.4384290000000 1.0
C      1  0.4841890000000  0.5349300000000  0.4384620000000 1.0
END
