TITL C-3201379-3821-2313 0.379416506283684 125000 -1100.10851605839 0 0 180 (C1) n - 1
REM
REM in /home/nfs/bkarasulu/CARBON/AIRSS/Generating-Clusters/LCBOP/Higher-Symm/SD-CG/FIRE-CG
REM
REM
REM
REM
REM
REM ./C.cell (b20cbc046b6831c77cfcea5457e17084)
REM AIRSS Version 0.9.1 bugfix July 2018 build 013d7b7c2542+ Fri, 06 Jul 2018 19:26:36 +0100
REM compiler GCC version 9.2.1 20190827 (Red Hat 9.2.1-1)
REM options -cpp -mtune=generic -march=x86-64 -g -O0 -fpre-include=/usr/include/finclude/math-vector-fortran.h
REM seed 136967649 -1970366990 -1221939350 1263360643 1718844655 -1111848079 2134452546 -262429149 -1379899068 -99157279 1125663156 1977373546 -1857285718 -1133229594 449609865 1630518889 1773472997 -170127812 -185577060 1122058342 1191628678 1028622099 -942682753 -729161771 837383368 1108448601 -39633749 1959251965 -1767400968 -2139934919 875871896 2028197174 -778316055
REM
CELL 1.54180   50.00000   50.00000   50.00000   90.00000   90.00000   90.00000
LATT -1
SFAC C  
C      1  0.4945460000000  0.4413770000000  0.4672770000000 1.0
C      1  0.6213020000000  0.4354740000000  0.5457460000000 1.0
C      1  0.4350310000000  0.4169720000000  0.4701000000000 1.0
C      1  0.4055010000000  0.4574520000000  0.4692080000000 1.0
C      1  0.4187550000000  0.4105080000000  0.5279230000000 1.0
C      1  0.3957240000000  0.4982980000000  0.4964450000000 1.0
C      1  0.4721140000000  0.4472410000000  0.5295770000000 1.0
C      1  0.5892580000000  0.4890020000000  0.4499750000000 1.0
C      1  0.4345300000000  0.4844460000000  0.6256850000000 1.0
C      1  0.6257290000000  0.5116830000000  0.5236680000000 1.0
C      1  0.4562180000000  0.5032210000000  0.4047820000000 1.0
C      1  0.6011840000000  0.4255350000000  0.5262100000000 1.0
C      1  0.3850110000000  0.4448160000000  0.5270120000000 1.0
C      1  0.4312040000000  0.5791530000000  0.4508810000000 1.0
C      1  0.4875960000000  0.3759810000000  0.5140680000000 1.0
C      1  0.5326820000000  0.4504970000000  0.3726930000000 1.0
C      1  0.3829620000000  0.4708270000000  0.5384920000000 1.0
C      1  0.4225850000000  0.4963040000000  0.5347130000000 1.0
C      1  0.4008340000000  0.5270250000000  0.5759540000000 1.0
C      1  0.5251900000000  0.4259810000000  0.3832190000000 1.0
C      1  0.6109930000000  0.4251000000000  0.5709960000000 1.0
C      1  0.5001030000000  0.3862720000000  0.4465960000000 1.0
C      1  0.4807990000000  0.5076530000000  0.5718090000000 1.0
C      1  0.4132040000000  0.5530340000000  0.5761230000000 1.0
C      1  0.4644710000000  0.4790690000000  0.4743620000000 1.0
C      1  0.4277260000000  0.4866360000000  0.4384300000000 1.0
C      1  0.4953870000000  0.5456880000000  0.5413100000000 1.0
C      1  0.5319870000000  0.4797010000000  0.5616810000000 1.0
C      1  0.4784450000000  0.5974970000000  0.4575820000000 1.0
C      1  0.6334220000000  0.4663830000000  0.4521860000000 1.0
C      1  0.4817190000000  0.6158480000000  0.4786850000000 1.0
C      1  0.4161780000000  0.5195300000000  0.4950710000000 1.0
C      1  0.4636530000000  0.4330000000000  0.4301120000000 1.0
C      1  0.5021890000000  0.6084310000000  0.5230170000000 1.0
C      1  0.5866000000000  0.4741030000000  0.5230970000000 1.0
C      1  0.4350150000000  0.5515220000000  0.6195650000000 1.0
C      1  0.4123310000000  0.4327770000000  0.4848100000000 1.0
C      1  0.5483850000000  0.5983420000000  0.5353040000000 1.0
C      1  0.5228480000000  0.4735340000000  0.4333010000000 1.0
C      1  0.4334210000000  0.5466410000000  0.6455480000000 1.0
C      1  0.4493620000000  0.4623400000000  0.5200910000000 1.0
C      1  0.5118970000000  0.4681360000000  0.4078330000000 1.0
C      1  0.4753990000000  0.4972630000000  0.5971610000000 1.0
C      1  0.4725060000000  0.5446630000000  0.4053350000000 1.0
C      1  0.5650730000000  0.5411890000000  0.5200170000000 1.0
C      1  0.3904510000000  0.5958240000000  0.5788320000000 1.0
C      1  0.5036300000000  0.5948310000000  0.5694280000000 1.0
C      1  0.5896150000000  0.4476960000000  0.5137080000000 1.0
C      1  0.5284600000000  0.3889240000000  0.4919000000000 1.0
C      1  0.4562240000000  0.5881700000000  0.4145160000000 1.0
C      1  0.4493220000000  0.5590760000000  0.4136470000000 1.0
C      1  0.5222610000000  0.5040810000000  0.3798790000000 1.0
C      1  0.5584720000000  0.4813200000000  0.5636580000000 1.0
C      1  0.6400890000000  0.4540000000000  0.5346620000000 1.0
C      1  0.5391230000000  0.4239040000000  0.5614980000000 1.0
C      1  0.4961940000000  0.5516230000000  0.5884230000000 1.0
C      1  0.4722080000000  0.3846270000000  0.4542950000000 1.0
C      1  0.4680940000000  0.5414070000000  0.4738850000000 1.0
C      1  0.4276100000000  0.5539870000000  0.4348600000000 1.0
C      1  0.4890890000000  0.4680320000000  0.5411460000000 1.0
C      1  0.3732090000000  0.5714860000000  0.4958650000000 1.0
C      1  0.4903700000000  0.4293650000000  0.4412970000000 1.0
C      1  0.5725440000000  0.5062410000000  0.4351780000000 1.0
C      1  0.3949490000000  0.4851500000000  0.4712520000000 1.0
C      1  0.6131360000000  0.5221390000000  0.5479320000000 1.0
C      1  0.4966550000000  0.5754010000000  0.4577480000000 1.0
C      1  0.4892380000000  0.4923240000000  0.4640960000000 1.0
C      1  0.4572320000000  0.5777570000000  0.5856310000000 1.0
C      1  0.4722170000000  0.6006980000000  0.3953290000000 1.0
C      1  0.3853150000000  0.4962810000000  0.6105060000000 1.0
C      1  0.6165500000000  0.5386920000000  0.4488650000000 1.0
C      1  0.4486450000000  0.4822780000000  0.4978910000000 1.0
C      1  0.4951190000000  0.5931060000000  0.3833810000000 1.0
C      1  0.4162400000000  0.5717710000000  0.5129160000000 1.0
C      1  0.5819390000000  0.5860700000000  0.5056110000000 1.0
C      1  0.4645930000000  0.5145050000000  0.5263210000000 1.0
C      1  0.5123650000000  0.4573990000000  0.4838980000000 1.0
C      1  0.5749040000000  0.5916440000000  0.5499220000000 1.0
C      1  0.3970880000000  0.4895500000000  0.5232960000000 1.0
C      1  0.4542240000000  0.5949880000000  0.4427020000000 1.0
C      1  0.4355610000000  0.5604290000000  0.5929530000000 1.0
C      1  0.6106750000000  0.5125460000000  0.4984540000000 1.0
C      1  0.4000730000000  0.5634570000000  0.4896770000000 1.0
C      1  0.3382590000000  0.5030200000000  0.6359680000000 1.0
C      1  0.4777080000000  0.5064860000000  0.3584560000000 1.0
C      1  0.4081900000000  0.4873860000000  0.6239250000000 1.0
C      1  0.4956290000000  0.5499010000000  0.4697120000000 1.0
C      1  0.4561990000000  0.5988070000000  0.5146910000000 1.0
C      1  0.4552430000000  0.3951320000000  0.4755840000000 1.0
C      1  0.4426540000000  0.4783830000000  0.5452320000000 1.0
C      1  0.4057970000000  0.5030380000000  0.4488200000000 1.0
C      1  0.5066790000000  0.4854710000000  0.4858880000000 1.0
C      1  0.5404000000000  0.4329260000000  0.5120520000000 1.0
C      1  0.3716410000000  0.5790040000000  0.5224120000000 1.0
C      1  0.5545770000000  0.5975060000000  0.5047950000000 1.0
C      1  0.4589630000000  0.4884010000000  0.6160320000000 1.0
C      1  0.4499960000000  0.5034190000000  0.4322280000000 1.0
C      1  0.5595400000000  0.4396110000000  0.4311340000000 1.0
C      1  0.5604540000000  0.4161880000000  0.5761930000000 1.0
C      1  0.5641580000000  0.5138040000000  0.5130510000000 1.0
C      1  0.4929110000000  0.5330410000000  0.5674260000000 1.0
C      1  0.4284920000000  0.5317750000000  0.6957220000000 1.0
C      1  0.5558890000000  0.4635240000000  0.4721390000000 1.0
C      1  0.4658060000000  0.3856380000000  0.5007150000000 1.0
C      1  0.5790910000000  0.5580690000000  0.5024500000000 1.0
C      1  0.5519340000000  0.4162320000000  0.4204730000000 1.0
C      1  0.3816360000000  0.6149220000000  0.5942150000000 1.0
C      1  0.5830830000000  0.4823900000000  0.5506190000000 1.0
C      1  0.4440500000000  0.5741160000000  0.5093230000000 1.0
C      1  0.5959370000000  0.5519220000000  0.4342610000000 1.0
C      1  0.5161230000000  0.4626890000000  0.5460510000000 1.0
C      1  0.4091690000000  0.5402270000000  0.4774820000000 1.0
C      1  0.6036720000000  0.5478120000000  0.5564970000000 1.0
C      1  0.5260780000000  0.5200410000000  0.4298610000000 1.0
C      1  0.4033570000000  0.4282920000000  0.5121770000000 1.0
C      1  0.4859240000000  0.4611250000000  0.4003660000000 1.0
C      1  0.6434280000000  0.4889900000000  0.5264320000000 1.0
C      1  0.5478200000000  0.4064010000000  0.5048050000000 1.0
C      1  0.3610330000000  0.4996340000000  0.6237590000000 1.0
C      1  0.4583110000000  0.5229960000000  0.4531770000000 1.0
C      1  0.5275470000000  0.4761160000000  0.3851800000000 1.0
C      1  0.5462820000000  0.4603990000000  0.4447600000000 1.0
C      1  0.5862240000000  0.5681090000000  0.5625130000000 1.0
C      1  0.5446760000000  0.5926590000000  0.4783840000000 1.0
C      1  0.5046580000000  0.5082200000000  0.3578070000000 1.0
C      1  0.6017490000000  0.5001950000000  0.5618960000000 1.0
C      1  0.5102880000000  0.4981270000000  0.4431530000000 1.0
C      1  0.6084890000000  0.5311220000000  0.4760080000000 1.0
C      1  0.5851570000000  0.4952680000000  0.5013860000000 1.0
C      1  0.4006270000000  0.5751040000000  0.5629010000000 1.0
C      1  0.5861620000000  0.4105000000000  0.5660900000000 1.0
C      1  0.6641190000000  0.4871890000000  0.5067900000000 1.0
C      1  0.5301020000000  0.4385470000000  0.5387670000000 1.0
C      1  0.5141830000000  0.5335400000000  0.4835280000000 1.0
C      1  0.4799360000000  0.6112480000000  0.5064180000000 1.0
C      1  0.6118260000000  0.4767660000000  0.4376550000000 1.0
C      1  0.5613870000000  0.3915690000000  0.5262460000000 1.0
C      1  0.3786480000000  0.4816010000000  0.5645500000000 1.0
C      1  0.5184770000000  0.5923570000000  0.5424350000000 1.0
C      1  0.5385920000000  0.4511480000000  0.4908300000000 1.0
C      1  0.4648040000000  0.4456260000000  0.4052280000000 1.0
C      1  0.5778700000000  0.4814580000000  0.4752060000000 1.0
C      1  0.5946770000000  0.5975480000000  0.5284270000000 1.0
C      1  0.4426200000000  0.4085290000000  0.5399760000000 1.0
C      1  0.6574070000000  0.4431010000000  0.5142270000000 1.0
C      1  0.5078930000000  0.5694070000000  0.3846350000000 1.0
C      1  0.3977610000000  0.5769390000000  0.5351330000000 1.0
C      1  0.5184290000000  0.5238950000000  0.4018720000000 1.0
C      1  0.6541050000000  0.4601890000000  0.4677790000000 1.0
C      1  0.4598050000000  0.5036440000000  0.3782610000000 1.0
C      1  0.5199110000000  0.3820480000000  0.4662600000000 1.0
C      1  0.4753870000000  0.5396910000000  0.5224020000000 1.0
C      1  0.4247200000000  0.4588230000000  0.4463210000000 1.0
C      1  0.4310610000000  0.5396560000000  0.6710060000000 1.0
C      1  0.4614210000000  0.5527720000000  0.5008140000000 1.0
C      1  0.5261860000000  0.4130110000000  0.4090390000000 1.0
C      1  0.5833280000000  0.5461600000000  0.4779760000000 1.0
C      1  0.4400640000000  0.4341400000000  0.4456670000000 1.0
C      1  0.6125160000000  0.4748660000000  0.4102570000000 1.0
C      1  0.5525740000000  0.5766370000000  0.4574900000000 1.0
C      1  0.5160050000000  0.3748300000000  0.5149280000000 1.0
C      1  0.5845960000000  0.4040420000000  0.5373360000000 1.0
C      1  0.5184270000000  0.5083450000000  0.4963570000000 1.0
C      1  0.4998740000000  0.5453380000000  0.3970540000000 1.0
C      1  0.4391260000000  0.5083650000000  0.5110170000000 1.0
C      1  0.5057210000000  0.4084730000000  0.4288870000000 1.0
C      1  0.5433330000000  0.5502170000000  0.5349440000000 1.0
C      1  0.6647960000000  0.4616660000000  0.4934750000000 1.0
C      1  0.4708750000000  0.4929350000000  0.5479260000000 1.0
C      1  0.4688470000000  0.4509740000000  0.4742160000000 1.0
C      1  0.5691490000000  0.5521350000000  0.4505820000000 1.0
C      1  0.3876670000000  0.5022120000000  0.5825870000000 1.0
C      1  0.5534260000000  0.5275200000000  0.4386230000000 1.0
C      1  0.5180640000000  0.5620940000000  0.5376510000000 1.0
C      1  0.4857470000000  0.5778460000000  0.5842190000000 1.0
C      1  0.5384040000000  0.5037650000000  0.5145330000000 1.0
C      1  0.4116030000000  0.5330620000000  0.4494840000000 1.0
C      1  0.5393850000000  0.3726620000000  0.5333470000000 1.0
C      1  0.6226810000000  0.4285380000000  0.5953100000000 1.0
C      1  0.4660280000000  0.4218200000000  0.5394200000000 1.0
END
