TITL C-3201377-4638-1011 14671.1666757908 125000 -1172.66632800497 0 0 191 (C1) n - 1
REM
REM in /home/nfs/bkarasulu/CARBON/AIRSS/Generating-Clusters/LCBOP/Higher-Symm/SD-CG/FIRE-CG
REM
REM
REM
REM
REM
REM ./C.cell (b20cbc046b6831c77cfcea5457e17084)
REM AIRSS Version 0.9.1 bugfix July 2018 build 013d7b7c2542+ Fri, 06 Jul 2018 19:26:36 +0100
REM compiler GCC version 9.2.1 20190827 (Red Hat 9.2.1-1)
REM options -cpp -mtune=generic -march=x86-64 -g -O0 -fpre-include=/usr/include/finclude/math-vector-fortran.h
REM seed -1333656247 -1655228044 1932716033 2001924187 -680547603 216177372 1809831619 1755553944 -702200796 -1130323599 -1891943129 1316826417 26842630 -1637102552 -75745153 -314563654 -1813076371 1066676536 -1285044649 -2072881705 -1288011547 -962297899 1505208908 1855204254 -432035389 1882819380 643430443 -1467746593 -1936420747 1440698338 776309178 -180777206 -970788901
REM
CELL 1.54180   50.00000   50.00000   50.00000   90.00000   90.00000   90.00000
LATT -1
SFAC C  
C      1  0.4380170000000  0.4927280000000  0.4626460000000 1.0
C      1  0.5722780000000  0.5228350000000  0.4616830000000 1.0
C      1  0.4862940000000  0.4968240000000  0.5711840000000 1.0
C      1  0.6191330000000  0.5219250000000  0.5400970000000 1.0
C      1  0.4011530000000  0.5187540000000  0.5883410000000 1.0
C      1  0.4806220000000  0.5102220000000  0.3766310000000 1.0
C      1  0.5546080000000  0.5999530000000  0.4703290000000 1.0
C      1  0.5026340000000  0.6021650000000  0.5655310000000 1.0
C      1  0.4468380000000  0.6011710000000  0.4637530000000 1.0
C      1  0.5285480000000  0.4844250000000  0.3841030000000 1.0
C      1  0.5883320000000  0.4913740000000  0.5688560000000 1.0
C      1  0.3878040000000  0.4924690000000  0.5436380000000 1.0
C      1  0.5884790000000  0.4557300000000  0.4512770000000 1.0
C      1  0.4900340000000  0.4419850000000  0.6014210000000 1.0
C      1  0.4102790000000  0.4426180000000  0.4368910000000 1.0
C      1  0.6090590000000  0.5630900000000  0.4786250000000 1.0
C      1  0.4662350000000  0.5543640000000  0.6034880000000 1.0
C      1  0.4349840000000  0.5555750000000  0.4183900000000 1.0
C      1  0.5598510000000  0.4586220000000  0.5479590000000 1.0
C      1  0.4191940000000  0.4475940000000  0.5147050000000 1.0
C      1  0.5162400000000  0.4521470000000  0.4168020000000 1.0
C      1  0.5825150000000  0.4637330000000  0.5638910000000 1.0
C      1  0.3784140000000  0.4659010000000  0.5471310000000 1.0
C      1  0.5244020000000  0.4570370000000  0.3902680000000 1.0
C      1  0.4772910000000  0.4891110000000  0.5966630000000 1.0
C      1  0.4260600000000  0.4893990000000  0.4374600000000 1.0
C      1  0.5944350000000  0.5054800000000  0.4629530000000 1.0
C      1  0.4246200000000  0.4189570000000  0.4367690000000 1.0
C      1  0.5802240000000  0.4315140000000  0.4620410000000 1.0
C      1  0.4821140000000  0.4200420000000  0.5865960000000 1.0
C      1  0.5312570000000  0.5744820000000  0.4168050000000 1.0
C      1  0.5527150000000  0.5698090000000  0.5589700000000 1.0
C      1  0.4267590000000  0.5587090000000  0.5176860000000 1.0
C      1  0.4379340000000  0.3962250000000  0.5291130000000 1.0
C      1  0.4972680000000  0.3944300000000  0.4285020000000 1.0
C      1  0.5561330000000  0.4004780000000  0.5288620000000 1.0
C      1  0.4864780000000  0.6103510000000  0.4402840000000 1.0
C      1  0.5595930000000  0.6143460000000  0.5153200000000 1.0
C      1  0.4640460000000  0.6007370000000  0.5378220000000 1.0
C      1  0.5082220000000  0.6125900000000  0.4585940000000 1.0
C      1  0.5349220000000  0.6227460000000  0.5273450000000 1.0
C      1  0.4668610000000  0.6103600000000  0.5109290000000 1.0
C      1  0.4575770000000  0.4759960000000  0.4741530000000 1.0
C      1  0.5327260000000  0.4814730000000  0.4694060000000 1.0
C      1  0.5019330000000  0.4837770000000  0.5505130000000 1.0
C      1  0.4906370000000  0.5533550000000  0.6175920000000 1.0
C      1  0.4101590000000  0.5555220000000  0.4323170000000 1.0
C      1  0.6086660000000  0.5621650000000  0.4500300000000 1.0
C      1  0.4594240000000  0.5045750000000  0.6134680000000 1.0
C      1  0.4291720000000  0.5033910000000  0.4123830000000 1.0
C      1  0.6173750000000  0.5127340000000  0.4785560000000 1.0
C      1  0.5262280000000  0.5010100000000  0.4915380000000 1.0
C      1  0.4892600000000  0.4904320000000  0.5247350000000 1.0
C      1  0.4827870000000  0.4882240000000  0.4756360000000 1.0
C      1  0.4342000000000  0.3952520000000  0.4987990000000 1.0
C      1  0.5238330000000  0.3951980000000  0.4439480000000 1.0
C      1  0.5301830000000  0.4004090000000  0.5454970000000 1.0
C      1  0.5477750000000  0.3936790000000  0.4014120000000 1.0
C      1  0.5577110000000  0.4041920000000  0.5862870000000 1.0
C      1  0.3860910000000  0.4044670000000  0.5062970000000 1.0
C      1  0.5824300000000  0.5644570000000  0.4094860000000 1.0
C      1  0.5374700000000  0.5568520000000  0.6090640000000 1.0
C      1  0.3924600000000  0.5545150000000  0.4767690000000 1.0
C      1  0.4823310000000  0.5706860000000  0.4063720000000 1.0
C      1  0.5842770000000  0.5654400000000  0.5194810000000 1.0
C      1  0.4427890000000  0.5564240000000  0.5635630000000 1.0
C      1  0.4412810000000  0.5290030000000  0.4072100000000 1.0
C      1  0.6206950000000  0.5387020000000  0.4911250000000 1.0
C      1  0.4483060000000  0.5310860000000  0.6083060000000 1.0
C      1  0.4599650000000  0.5989960000000  0.4384780000000 1.0
C      1  0.5716640000000  0.6010890000000  0.4925820000000 1.0
C      1  0.4760490000000  0.5919560000000  0.5629230000000 1.0
C      1  0.5959380000000  0.4830520000000  0.4442940000000 1.0
C      1  0.4942570000000  0.4695010000000  0.6096840000000 1.0
C      1  0.4034810000000  0.4708480000000  0.4382670000000 1.0
C      1  0.4872120000000  0.5417190000000  0.4123520000000 1.0
C      1  0.5751710000000  0.5395950000000  0.5126030000000 1.0
C      1  0.4488820000000  0.5287530000000  0.5614310000000 1.0
C      1  0.4675670000000  0.5504010000000  0.4659880000000 1.0
C      1  0.5344370000000  0.5297080000000  0.4844420000000 1.0
C      1  0.4926870000000  0.5333310000000  0.5421830000000 1.0
C      1  0.5023710000000  0.4118350000000  0.5436500000000 1.0
C      1  0.4502370000000  0.4042600000000  0.4753380000000 1.0
C      1  0.5351810000000  0.4107890000000  0.4665620000000 1.0
C      1  0.5017100000000  0.4003420000000  0.4003990000000 1.0
C      1  0.5794540000000  0.4048450000000  0.5455220000000 1.0
C      1  0.4140270000000  0.4050800000000  0.5430120000000 1.0
C      1  0.4302190000000  0.4635440000000  0.6767010000000 1.0
C      1  0.4715370000000  0.4690130000000  0.4086240000000 1.0
C      1  0.5917560000000  0.4672320000000  0.5075140000000 1.0
C      1  0.4508270000000  0.4923120000000  0.6373180000000 1.0
C      1  0.4307900000000  0.4848460000000  0.3906020000000 1.0
C      1  0.6306680000000  0.4904430000000  0.4900150000000 1.0
C      1  0.4410290000000  0.4785570000000  0.6577210000000 1.0
C      1  0.4513650000000  0.4671280000000  0.3908910000000 1.0
C      1  0.6179500000000  0.4703340000000  0.5027450000000 1.0
C      1  0.5173930000000  0.5133160000000  0.6281180000000 1.0
C      1  0.3810370000000  0.5166690000000  0.4460050000000 1.0
C      1  0.6082410000000  0.5236120000000  0.4170410000000 1.0
C      1  0.4927510000000  0.4971120000000  0.4505420000000 1.0
C      1  0.5444150000000  0.4936240000000  0.5135260000000 1.0
C      1  0.4644080000000  0.4781120000000  0.5290380000000 1.0
C      1  0.4617040000000  0.5947710000000  0.4872400000000 1.0
C      1  0.5293710000000  0.5930770000000  0.4600880000000 1.0
C      1  0.5232230000000  0.6133880000000  0.5517530000000 1.0
C      1  0.4409650000000  0.4902230000000  0.5361810000000 1.0
C      1  0.5023930000000  0.5234660000000  0.4507330000000 1.0
C      1  0.5448190000000  0.5126160000000  0.5343190000000 1.0
C      1  0.5718900000000  0.5220130000000  0.5345220000000 1.0
C      1  0.4307460000000  0.5090010000000  0.5535540000000 1.0
C      1  0.5145390000000  0.5265420000000  0.4041520000000 1.0
C      1  0.4691310000000  0.3904380000000  0.4345040000000 1.0
C      1  0.5636780000000  0.3995150000000  0.5011230000000 1.0
C      1  0.4595720000000  0.3924110000000  0.5473860000000 1.0
C      1  0.5231540000000  0.4559900000000  0.4638430000000 1.0
C      1  0.5119380000000  0.4578910000000  0.5454110000000 1.0
C      1  0.4544790000000  0.4501000000000  0.4841530000000 1.0
C      1  0.5273040000000  0.4345340000000  0.4814040000000 1.0
C      1  0.4924530000000  0.4385830000000  0.5368020000000 1.0
C      1  0.4663270000000  0.4281500000000  0.4722470000000 1.0
C      1  0.4455910000000  0.4439310000000  0.5099530000000 1.0
C      1  0.5068620000000  0.4480220000000  0.4424910000000 1.0
C      1  0.5368810000000  0.4519880000000  0.5339340000000 1.0
C      1  0.4791040000000  0.5720640000000  0.4827850000000 1.0
C      1  0.5191360000000  0.5703000000000  0.5183330000000 1.0
C      1  0.4785110000000  0.5460100000000  0.5207380000000 1.0
C      1  0.4041180000000  0.5063740000000  0.5629920000000 1.0
C      1  0.5081230000000  0.5053560000000  0.3830710000000 1.0
C      1  0.5943600000000  0.5108730000000  0.5484150000000 1.0
C      1  0.4509460000000  0.5445470000000  0.5101200000000 1.0
C      1  0.5280210000000  0.5686490000000  0.4453690000000 1.0
C      1  0.5320110000000  0.5596350000000  0.5416580000000 1.0
C      1  0.4492880000000  0.5350180000000  0.4828270000000 1.0
C      1  0.5274260000000  0.5388110000000  0.4561590000000 1.0
C      1  0.5236520000000  0.5309630000000  0.5477340000000 1.0
C      1  0.5512640000000  0.5260410000000  0.4408350000000 1.0
C      1  0.5289160000000  0.5227680000000  0.5761570000000 1.0
C      1  0.4303590000000  0.5139390000000  0.4794900000000 1.0
C      1  0.3898540000000  0.4154300000000  0.5322890000000 1.0
C      1  0.5265600000000  0.4071350000000  0.3882220000000 1.0
C      1  0.5799630000000  0.4145930000000  0.5721490000000 1.0
C      1  0.4056150000000  0.5615740000000  0.4991310000000 1.0
C      1  0.5572570000000  0.5729090000000  0.4063260000000 1.0
C      1  0.5489200000000  0.5680280000000  0.5871540000000 1.0
C      1  0.5068240000000  0.6319940000000  0.4781260000000 1.0
C      1  0.5179860000000  0.6375090000000  0.5111890000000 1.0
C      1  0.4827340000000  0.6326010000000  0.5067330000000 1.0
C      1  0.3784980000000  0.4393890000000  0.5421910000000 1.0
C      1  0.5293270000000  0.4328540000000  0.3764680000000 1.0
C      1  0.5916280000000  0.4400960000000  0.5765550000000 1.0
C      1  0.5359430000000  0.3912790000000  0.5730400000000 1.0
C      1  0.4060440000000  0.3898890000000  0.4918490000000 1.0
C      1  0.5451710000000  0.3829860000000  0.4277240000000 1.0
C      1  0.5124960000000  0.4863140000000  0.6251480000000 1.0
C      1  0.3814080000000  0.4893150000000  0.4425520000000 1.0
C      1  0.6051150000000  0.4965320000000  0.4203570000000 1.0
C      1  0.6017630000000  0.5505600000000  0.4247360000000 1.0
C      1  0.5161480000000  0.5413950000000  0.6205530000000 1.0
C      1  0.3926960000000  0.5426910000000  0.4509110000000 1.0
C      1  0.4816840000000  0.5409860000000  0.4428550000000 1.0
C      1  0.5631220000000  0.5334150000000  0.4875100000000 1.0
C      1  0.4761590000000  0.5213740000000  0.5615430000000 1.0
C      1  0.4663460000000  0.4493290000000  0.5286350000000 1.0
C      1  0.4840410000000  0.4340850000000  0.4512120000000 1.0
C      1  0.5347390000000  0.4403070000000  0.5080130000000 1.0
C      1  0.4813180000000  0.4035950000000  0.5621810000000 1.0
C      1  0.4443240000000  0.3994310000000  0.4468630000000 1.0
C      1  0.5639200000000  0.4100950000000  0.4741760000000 1.0
C      1  0.5488190000000  0.5117800000000  0.5903910000000 1.0
C      1  0.4081620000000  0.5089360000000  0.4967320000000 1.0
C      1  0.5420330000000  0.5194910000000  0.4145170000000 1.0
C      1  0.5737240000000  0.5020680000000  0.5905670000000 1.0
C      1  0.3917140000000  0.5016570000000  0.5167490000000 1.0
C      1  0.5505830000000  0.4973830000000  0.3981720000000 1.0
C      1  0.4198710000000  0.5307430000000  0.6041750000000 1.0
C      1  0.4669750000000  0.5269520000000  0.3953790000000 1.0
C      1  0.6278270000000  0.5363490000000  0.5187530000000 1.0
C      1  0.4191420000000  0.4484040000000  0.6948050000000 1.0
C      1  0.4834280000000  0.4843430000000  0.4272080000000 1.0
C      1  0.5673890000000  0.4781880000000  0.5073120000000 1.0
C      1  0.4252120000000  0.5666080000000  0.5444800000000 1.0
C      1  0.5077170000000  0.5829350000000  0.4030740000000 1.0
C      1  0.5770620000000  0.5747700000000  0.5452550000000 1.0
C      1  0.4563460000000  0.5776870000000  0.4187950000000 1.0
C      1  0.5916750000000  0.5801230000000  0.4960660000000 1.0
C      1  0.4622970000000  0.5710680000000  0.5789840000000 1.0
C      1  0.3991820000000  0.3704990000000  0.4737990000000 1.0
C      1  0.5602560000000  0.3620830000000  0.4367410000000 1.0
C      1  0.5229700000000  0.3699590000000  0.5842410000000 1.0
C      1  0.4947770000000  0.5640430000000  0.5053740000000 1.0
C      1  0.4979010000000  0.4953580000000  0.4985350000000 1.0
END
