TITL C-3201379-3821-1687 179.434430265411 125000 -407.963120077904 0 0 70 (C3) n - 1
REM
REM in /home/nfs/bkarasulu/CARBON/AIRSS/Generating-Clusters/LCBOP/Higher-Symm/SD-CG/FIRE-CG
REM
REM
REM
REM
REM
REM ./C.cell (b20cbc046b6831c77cfcea5457e17084)
REM AIRSS Version 0.9.1 bugfix July 2018 build 013d7b7c2542+ Fri, 06 Jul 2018 19:26:36 +0100
REM compiler GCC version 9.2.1 20190827 (Red Hat 9.2.1-1)
REM options -cpp -mtune=generic -march=x86-64 -g -O0 -fpre-include=/usr/include/finclude/math-vector-fortran.h
REM seed 1869485372 1032891121 -1237609227 -317152814 -1587707063 574783666 1693290475 -1426432280 -770588686 -227061113 -1807862865 2140674288 2097257644 -542457869 -1152167017 1398613378 -1767177405 1389999472 804232972 -1732300743 1473116748 -732123677 1113487483 1077646641 1938728215 1951933084 -796980581 -400750467 2077564122 53178206 515655363 -179645156 -771432348
REM
CELL 1.54180   50.00000   50.00000   50.00000   90.00000   90.00000   90.00000
LATT -1
SFAC C  
C      1  0.5044430000000  0.4292880000000  0.5279830000000 1.0
C      1  0.4735610000000  0.4292870000000  0.4892000000000 1.0
C      1  0.5225890000000  0.4292880000000  0.4818470000000 1.0
C      1  0.4960790000000  0.5712000000000  0.5279670000000 1.0
C      1  0.5267560000000  0.5712000000000  0.4890980000000 1.0
C      1  0.4777560000000  0.5711990000000  0.4819650000000 1.0
C      1  0.4554650000000  0.4505970000000  0.5359620000000 1.0
C      1  0.4911400000000  0.4505970000000  0.4427950000000 1.0
C      1  0.5539870000000  0.4505990000000  0.5202740000000 1.0
C      1  0.5474560000000  0.5488820000000  0.5376420000000 1.0
C      1  0.5094460000000  0.5488810000000  0.4397670000000 1.0
C      1  0.4436890000000  0.5488810000000  0.5216220000000 1.0
C      1  0.5658580000000  0.4653320000000  0.4968550000000 1.0
C      1  0.4698100000000  0.4653310000000  0.5579510000000 1.0
C      1  0.4649240000000  0.4653300000000  0.4442240000000 1.0
C      1  0.4329050000000  0.5348140000000  0.4975940000000 1.0
C      1  0.5320390000000  0.5348150000000  0.5589940000000 1.0
C      1  0.5356470000000  0.5348140000000  0.4424420000000 1.0
C      1  0.4560740000000  0.5783150000000  0.4653590000000 1.0
C      1  0.5519780000000  0.5783150000000  0.4786240000000 1.0
C      1  0.4925380000000  0.5783150000000  0.5550460000000 1.0
C      1  0.5440500000000  0.4214770000000  0.4651970000000 1.0
C      1  0.4484110000000  0.4214760000000  0.4789400000000 1.0
C      1  0.5081320000000  0.4214770000000  0.5548940000000 1.0
C      1  0.4438470000000  0.5253840000000  0.5424400000000 1.0
C      1  0.4913380000000  0.5253840000000  0.4294950000000 1.0
C      1  0.5654060000000  0.5253850000000  0.5270960000000 1.0
C      1  0.5546190000000  0.4734480000000  0.5419650000000 1.0
C      1  0.5096090000000  0.4734470000000  0.4314020000000 1.0
C      1  0.4363640000000  0.4734470000000  0.5256640000000 1.0
C      1  0.4725490000000  0.5665890000000  0.5111230000000 1.0
C      1  0.5041080000000  0.5665890000000  0.4700100000000 1.0
C      1  0.5239340000000  0.5665890000000  0.5178970000000 1.0
C      1  0.5280590000000  0.4343550000000  0.5110680000000 1.0
C      1  0.4961320000000  0.4343550000000  0.4698530000000 1.0
C      1  0.4764020000000  0.4343550000000  0.5181100000000 1.0
C      1  0.5670770000000  0.5683710000000  0.4587000000000 1.0
C      1  0.5022440000000  0.5683710000000  0.5780850000000 1.0
C      1  0.4312690000000  0.5683700000000  0.4622450000000 1.0
C      1  0.4331770000000  0.4316130000000  0.4591770000000 1.0
C      1  0.4986340000000  0.4316130000000  0.5779680000000 1.0
C      1  0.5687820000000  0.4316140000000  0.4618860000000 1.0
C      1  0.4525550000000  0.4840830000000  0.5032000000000 1.0
C      1  0.5209670000000  0.4840840000000  0.4566560000000 1.0
C      1  0.5270690000000  0.4840850000000  0.5391750000000 1.0
C      1  0.5492800000000  0.5163870000000  0.5040340000000 1.0
C      1  0.4794290000000  0.5163860000000  0.4549910000000 1.0
C      1  0.4718820000000  0.5163860000000  0.5400060000000 1.0
C      1  0.4728950000000  0.4883230000000  0.4595590000000 1.0
C      1  0.5485910000000  0.4883240000000  0.4960920000000 1.0
C      1  0.4791050000000  0.4883230000000  0.5433800000000 1.0
C      1  0.5276810000000  0.5123280000000  0.4585770000000 1.0
C      1  0.4508620000000  0.5123280000000  0.4964250000000 1.0
C      1  0.5220490000000  0.5123290000000  0.5440280000000 1.0
C      1  0.5231530000000  0.4794500000000  0.5098200000000 1.0
C      1  0.4799350000000  0.4794490000000  0.5144850000000 1.0
C      1  0.4975030000000  0.4794490000000  0.4747250000000 1.0
C      1  0.4761750000000  0.5223270000000  0.5104060000000 1.0
C      1  0.5215000000000  0.5223280000000  0.5151150000000 1.0
C      1  0.5029160000000  0.5223270000000  0.4735080000000 1.0
C      1  0.4404120000000  0.4520680000000  0.4431460000000 1.0
C      1  0.5790470000000  0.4520690000000  0.4761660000000 1.0
C      1  0.4811330000000  0.4520680000000  0.5797180000000 1.0
C      1  0.5600180000000  0.5483290000000  0.4421120000000 1.0
C      1  0.4204340000000  0.5483280000000  0.4766530000000 1.0
C      1  0.5201390000000  0.5483300000000  0.5802650000000 1.0
C      1  0.5006250000000  0.4989790000000  0.4167650000000 1.0
C      1  0.5717870000000  0.4989800000000  0.5415030000000 1.0
C      1  0.4281790000000  0.4989780000000  0.5407620000000 1.0
C      1  0.5001970000000  0.5076150000000  0.4996770000000 1.0
END
