TITL C-3201376-6384-1487 45828.9745317277 125000 -1037.08403499907 0 0 171 (C1) n - 1
REM
REM in /home/nfs/bkarasulu/CARBON/AIRSS/Generating-Clusters/LCBOP/Higher-Symm/SD-CG/FIRE-CG
REM
REM
REM
REM
REM
REM ./C.cell (b20cbc046b6831c77cfcea5457e17084)
REM AIRSS Version 0.9.1 bugfix July 2018 build 013d7b7c2542+ Fri, 06 Jul 2018 19:26:36 +0100
REM compiler GCC version 9.2.1 20190827 (Red Hat 9.2.1-1)
REM options -cpp -mtune=generic -march=x86-64 -g -O0 -fpre-include=/usr/include/finclude/math-vector-fortran.h
REM seed -1294473983 -64738437 -813755104 -565097027 50616483 892847406 1007424375 -824521731 199884111 687561070 -1378255049 1401728778 -2021785554 -1610485604 -1612922242 -1084138718 -674346898 -1241648701 -691483304 -1094435864 -1680953482 896723126 -1930666154 -135960924 1615385565 243584818 979208450 639899045 -1920133875 -1013629267 1921473025 -1018347008 -671920694
REM
CELL 1.54180   50.00000   50.00000   50.00000   90.00000   90.00000   90.00000
LATT -1
SFAC C  
C      1  0.5011800000000  0.4940770000000  0.4716370000000 1.0
C      1  0.4986000000000  0.4939030000000  0.5305200000000 1.0
C      1  0.5277500000000  0.5253940000000  0.4936350000000 1.0
C      1  0.4770370000000  0.5271970000000  0.5101130000000 1.0
C      1  0.4775810000000  0.4443180000000  0.5874130000000 1.0
C      1  0.5145300000000  0.4438400000000  0.4147800000000 1.0
C      1  0.4790550000000  0.5167540000000  0.3825290000000 1.0
C      1  0.5204310000000  0.5095550000000  0.6137560000000 1.0
C      1  0.4340470000000  0.4096440000000  0.4557530000000 1.0
C      1  0.5720820000000  0.4208340000000  0.5433930000000 1.0
C      1  0.5452720000000  0.4144680000000  0.4435140000000 1.0
C      1  0.4495750000000  0.4154760000000  0.5567740000000 1.0
C      1  0.5600270000000  0.3994020000000  0.4927180000000 1.0
C      1  0.4387660000000  0.3961230000000  0.5090700000000 1.0
C      1  0.4801110000000  0.4582800000000  0.5444440000000 1.0
C      1  0.5176910000000  0.4573290000000  0.4578280000000 1.0
C      1  0.5670270000000  0.4140090000000  0.4666680000000 1.0
C      1  0.4305590000000  0.4140360000000  0.5322070000000 1.0
C      1  0.5266070000000  0.5884830000000  0.4129790000000 1.0
C      1  0.4751010000000  0.5862020000000  0.5921630000000 1.0
C      1  0.5173660000000  0.4684080000000  0.4311350000000 1.0
C      1  0.4780390000000  0.4689880000000  0.5709600000000 1.0
C      1  0.5982110000000  0.5137720000000  0.4288730000000 1.0
C      1  0.3977520000000  0.5161290000000  0.5688440000000 1.0
C      1  0.4995930000000  0.4181770000000  0.5562650000000 1.0
C      1  0.4950430000000  0.4179100000000  0.4473920000000 1.0
C      1  0.5892950000000  0.4639250000000  0.5714900000000 1.0
C      1  0.4330600000000  0.4484710000000  0.4213570000000 1.0
C      1  0.5884710000000  0.5137200000000  0.5284830000000 1.0
C      1  0.4047630000000  0.5076430000000  0.4665120000000 1.0
C      1  0.5051780000000  0.6280450000000  0.4979630000000 1.0
C      1  0.4855160000000  0.6251990000000  0.4789040000000 1.0
C      1  0.5383720000000  0.5512790000000  0.6066600000000 1.0
C      1  0.4638490000000  0.5547030000000  0.4050210000000 1.0
C      1  0.3869620000000  0.5529340000000  0.5037940000000 1.0
C      1  0.6107110000000  0.5530390000000  0.4929140000000 1.0
C      1  0.5341240000000  0.4385420000000  0.4982110000000 1.0
C      1  0.4628740000000  0.4405600000000  0.5041070000000 1.0
C      1  0.4908340000000  0.5591050000000  0.3945380000000 1.0
C      1  0.5098780000000  0.5541160000000  0.6109630000000 1.0
C      1  0.4952350000000  0.4405220000000  0.4654360000000 1.0
C      1  0.5018630000000  0.4401080000000  0.5374310000000 1.0
C      1  0.6071530000000  0.4444710000000  0.5256130000000 1.0
C      1  0.4010410000000  0.4400190000000  0.4647530000000 1.0
C      1  0.4781550000000  0.4522960000000  0.4840220000000 1.0
C      1  0.5198150000000  0.4507410000000  0.5188350000000 1.0
C      1  0.4580910000000  0.4567280000000  0.5270370000000 1.0
C      1  0.5399730000000  0.4540910000000  0.4749110000000 1.0
C      1  0.4884400000000  0.5128140000000  0.4544620000000 1.0
C      1  0.5115850000000  0.5158510000000  0.5439640000000 1.0
C      1  0.4738060000000  0.5982050000000  0.4706690000000 1.0
C      1  0.5188700000000  0.6072340000000  0.5126290000000 1.0
C      1  0.3957990000000  0.4654400000000  0.5568440000000 1.0
C      1  0.6014190000000  0.4624010000000  0.4366520000000 1.0
C      1  0.4247130000000  0.4868730000000  0.4686900000000 1.0
C      1  0.5753870000000  0.4877500000000  0.5329950000000 1.0
C      1  0.5849410000000  0.5157620000000  0.4804370000000 1.0
C      1  0.4171990000000  0.5201440000000  0.5182880000000 1.0
C      1  0.4738740000000  0.4977500000000  0.5129160000000 1.0
C      1  0.5265430000000  0.4954790000000  0.4887620000000 1.0
C      1  0.5719660000000  0.5807300000000  0.4969800000000 1.0
C      1  0.4277340000000  0.5778450000000  0.4988050000000 1.0
C      1  0.4819810000000  0.4805990000000  0.4879590000000 1.0
C      1  0.5173880000000  0.4790180000000  0.5148930000000 1.0
C      1  0.4614190000000  0.4908350000000  0.5773410000000 1.0
C      1  0.5344620000000  0.4893980000000  0.4228490000000 1.0
C      1  0.5456980000000  0.5227040000000  0.6029830000000 1.0
C      1  0.4557570000000  0.5261900000000  0.3989250000000 1.0
C      1  0.5692310000000  0.4744540000000  0.5082910000000 1.0
C      1  0.4304370000000  0.4767710000000  0.4941770000000 1.0
C      1  0.5825450000000  0.4878430000000  0.5845810000000 1.0
C      1  0.4268630000000  0.4817910000000  0.4116060000000 1.0
C      1  0.5036090000000  0.5416330000000  0.5514980000000 1.0
C      1  0.4983240000000  0.5381550000000  0.4501810000000 1.0
C      1  0.5517720000000  0.4898530000000  0.5498790000000 1.0
C      1  0.4482270000000  0.4891720000000  0.4524330000000 1.0
C      1  0.4878570000000  0.4313940000000  0.4215510000000 1.0
C      1  0.5039490000000  0.4323880000000  0.5819450000000 1.0
C      1  0.6519780000000  0.4736910000000  0.5206650000000 1.0
C      1  0.3539210000000  0.4646490000000  0.4563230000000 1.0
C      1  0.4673320000000  0.5304210000000  0.6185920000000 1.0
C      1  0.5315810000000  0.5363200000000  0.3795890000000 1.0
C      1  0.4554660000000  0.5738420000000  0.4243720000000 1.0
C      1  0.5561960000000  0.5725430000000  0.6068810000000 1.0
C      1  0.4648140000000  0.5425180000000  0.5297530000000 1.0
C      1  0.5394320000000  0.5390330000000  0.4698820000000 1.0
C      1  0.4022710000000  0.4489510000000  0.5797770000000 1.0
C      1  0.5915430000000  0.4461820000000  0.4147780000000 1.0
C      1  0.5289890000000  0.5170020000000  0.4222970000000 1.0
C      1  0.4702570000000  0.5176760000000  0.5755360000000 1.0
C      1  0.5414160000000  0.5947730000000  0.4985640000000 1.0
C      1  0.4556920000000  0.5899920000000  0.4946300000000 1.0
C      1  0.5395570000000  0.4705180000000  0.5674140000000 1.0
C      1  0.4656570000000  0.4715240000000  0.4389150000000 1.0
C      1  0.4128420000000  0.4915000000000  0.5600210000000 1.0
C      1  0.5840840000000  0.4883370000000  0.4376030000000 1.0
C      1  0.5606960000000  0.4793010000000  0.4191140000000 1.0
C      1  0.4344080000000  0.4816530000000  0.5801800000000 1.0
C      1  0.5017980000000  0.5356830000000  0.3797040000000 1.0
C      1  0.4973510000000  0.5281970000000  0.6195920000000 1.0
C      1  0.4586860000000  0.3771100000000  0.5146890000000 1.0
C      1  0.5387880000000  0.3810130000000  0.4904120000000 1.0
C      1  0.5108110000000  0.5665630000000  0.5401280000000 1.0
C      1  0.4947060000000  0.5536540000000  0.4730740000000 1.0
C      1  0.6061960000000  0.4478000000000  0.4599830000000 1.0
C      1  0.3945080000000  0.4511500000000  0.5326830000000 1.0
C      1  0.4296840000000  0.4527630000000  0.5868500000000 1.0
C      1  0.5634930000000  0.4504980000000  0.4114150000000 1.0
C      1  0.5824280000000  0.5360990000000  0.5696100000000 1.0
C      1  0.4167750000000  0.5313300000000  0.4294760000000 1.0
C      1  0.5535930000000  0.5886000000000  0.4110780000000 1.0
C      1  0.4481620000000  0.5860810000000  0.5893130000000 1.0
C      1  0.5189310000000  0.4015900000000  0.4505440000000 1.0
C      1  0.4760350000000  0.4020180000000  0.5525700000000 1.0
C      1  0.5278530000000  0.5854550000000  0.4735970000000 1.0
C      1  0.4723130000000  0.5877630000000  0.5196810000000 1.0
C      1  0.5106690000000  0.5655040000000  0.4138170000000 1.0
C      1  0.4915200000000  0.5635010000000  0.5913210000000 1.0
C      1  0.4334370000000  0.5615650000000  0.5857520000000 1.0
C      1  0.5678550000000  0.5636890000000  0.4121520000000 1.0
C      1  0.5474490000000  0.5262580000000  0.5152530000000 1.0
C      1  0.4483610000000  0.5309040000000  0.4751480000000 1.0
C      1  0.4468320000000  0.4832240000000  0.5195160000000 1.0
C      1  0.5529600000000  0.4798060000000  0.4822080000000 1.0
C      1  0.5391610000000  0.5140430000000  0.5401450000000 1.0
C      1  0.4606100000000  0.5136670000000  0.4570340000000 1.0
C      1  0.5442260000000  0.5653830000000  0.4619490000000 1.0
C      1  0.4575670000000  0.5686840000000  0.5352330000000 1.0
C      1  0.4084000000000  0.4272850000000  0.4901690000000 1.0
C      1  0.5951560000000  0.4286970000000  0.5042020000000 1.0
C      1  0.5912130000000  0.4299440000000  0.4754190000000 1.0
C      1  0.4092050000000  0.4313090000000  0.5192420000000 1.0
C      1  0.4323330000000  0.5128840000000  0.4115400000000 1.0
C      1  0.5706080000000  0.5153680000000  0.5876300000000 1.0
C      1  0.6007230000000  0.5386060000000  0.4431750000000 1.0
C      1  0.3978050000000  0.5408390000000  0.5542510000000 1.0
C      1  0.3951400000000  0.5367400000000  0.5256960000000 1.0
C      1  0.6040260000000  0.5347940000000  0.4715880000000 1.0
C      1  0.4073280000000  0.5354390000000  0.4572360000000 1.0
C      1  0.5905600000000  0.5393540000000  0.5421060000000 1.0
C      1  0.4068510000000  0.5603610000000  0.4834090000000 1.0
C      1  0.5915840000000  0.5628030000000  0.5135790000000 1.0
C      1  0.5734230000000  0.4942100000000  0.4656010000000 1.0
C      1  0.4266330000000  0.4988090000000  0.5342800000000 1.0
C      1  0.5834230000000  0.5607820000000  0.4375380000000 1.0
C      1  0.4178000000000  0.5608330000000  0.5599200000000 1.0
C      1  0.5736640000000  0.4111600000000  0.5157010000000 1.0
C      1  0.4284430000000  0.4057630000000  0.4839870000000 1.0
C      1  0.5265300000000  0.4506750000000  0.5809910000000 1.0
C      1  0.4627770000000  0.4479720000000  0.4231130000000 1.0
C      1  0.5205810000000  0.3814030000000  0.4703610000000 1.0
C      1  0.4756860000000  0.3794680000000  0.5355790000000 1.0
C      1  0.4205160000000  0.4330960000000  0.4431930000000 1.0
C      1  0.5904000000000  0.4433330000000  0.5504230000000 1.0
C      1  0.4297720000000  0.5723470000000  0.5349470000000 1.0
C      1  0.5715400000000  0.5722250000000  0.4625630000000 1.0
C      1  0.4605410000000  0.5913690000000  0.4444250000000 1.0
C      1  0.5716080000000  0.5935180000000  0.6055860000000 1.0
C      1  0.5424160000000  0.4320190000000  0.4190430000000 1.0
C      1  0.4504230000000  0.4336510000000  0.5807550000000 1.0
C      1  0.4446150000000  0.5412690000000  0.6052280000000 1.0
C      1  0.5551630000000  0.5447810000000  0.3926630000000 1.0
C      1  0.6311110000000  0.4583580000000  0.5235780000000 1.0
C      1  0.3770160000000  0.4532460000000  0.4602850000000 1.0
C      1  0.4997060000000  0.5809100000000  0.4718360000000 1.0
C      1  0.5007330000000  0.5890360000000  0.5259240000000 1.0
C      1  0.5158280000000  0.5414960000000  0.4289820000000 1.0
C      1  0.4855560000000  0.5419470000000  0.5728830000000 1.0
C      1  0.4336150000000  0.5288110000000  0.4973060000000 1.0
C      1  0.5737090000000  0.5217780000000  0.5052020000000 1.0
C      1  0.4997480000000  0.5376270000000  0.4962400000000 1.0
END
