TITL C-3201379-3821-2221 258597.021458365 125000 -1016.84409494177 0 0 172 (C1) n - 1
REM
REM in /home/nfs/bkarasulu/CARBON/AIRSS/Generating-Clusters/LCBOP/Higher-Symm/SD-CG/FIRE-CG
REM
REM
REM
REM
REM
REM ./C.cell (b20cbc046b6831c77cfcea5457e17084)
REM AIRSS Version 0.9.1 bugfix July 2018 build 013d7b7c2542+ Fri, 06 Jul 2018 19:26:36 +0100
REM compiler GCC version 9.2.1 20190827 (Red Hat 9.2.1-1)
REM options -cpp -mtune=generic -march=x86-64 -g -O0 -fpre-include=/usr/include/finclude/math-vector-fortran.h
REM seed -839917853 -1716114461 78395046 -1837408769 -86659096 -566234262 2081475394 1495472823 1472702864 -1671865385 -679557990 -242675201 -721549968 -1629500982 1380391325 1654715952 -1159535022 1953636372 412841589 -1253021762 -1346013618 -1482203136 -1217433292 946765105 -740092189 -410280612 1861887261 1645687017 -1078611379 715391804 1572774315 1910407995 -2046303488
REM
CELL 1.54180   50.00000   50.00000   50.00000   90.00000   90.00000   90.00000
LATT -1
SFAC C  
C      1  0.5403170000000  0.4334980000000  0.5126300000000 1.0
C      1  0.5401410000000  0.5441150000000  0.5579800000000 1.0
C      1  0.5401660000000  0.5236780000000  0.4348580000000 1.0
C      1  0.4423130000000  0.4284710000000  0.4911700000000 1.0
C      1  0.4582630000000  0.5390700000000  0.4478980000000 1.0
C      1  0.4592070000000  0.5228900000000  0.5740970000000 1.0
C      1  0.4833870000000  0.5498520000000  0.4551650000000 1.0
C      1  0.4692700000000  0.4331350000000  0.4836740000000 1.0
C      1  0.4815090000000  0.5108830000000  0.5860500000000 1.0
C      1  0.5140720000000  0.5476080000000  0.5476330000000 1.0
C      1  0.5190430000000  0.4403670000000  0.5300070000000 1.0
C      1  0.5162520000000  0.5069700000000  0.4350710000000 1.0
C      1  0.5287990000000  0.4356960000000  0.5922230000000 1.0
C      1  0.5258240000000  0.6095160000000  0.5075780000000 1.0
C      1  0.5388670000000  0.4414190000000  0.4044090000000 1.0
C      1  0.4755490000000  0.4351790000000  0.4075560000000 1.0
C      1  0.4566220000000  0.6114940000000  0.5009540000000 1.0
C      1  0.4488520000000  0.4382230000000  0.5995870000000 1.0
C      1  0.6021070000000  0.4966600000000  0.5327080000000 1.0
C      1  0.6029090000000  0.5471870000000  0.4810570000000 1.0
C      1  0.6043580000000  0.4652230000000  0.4714330000000 1.0
C      1  0.3953470000000  0.4977810000000  0.4399280000000 1.0
C      1  0.3978810000000  0.5364000000000  0.5207880000000 1.0
C      1  0.4049060000000  0.4706220000000  0.5185680000000 1.0
C      1  0.5029740000000  0.5331410000000  0.4672150000000 1.0
C      1  0.4884440000000  0.4231000000000  0.4994710000000 1.0
C      1  0.4997800000000  0.5100800000000  0.5651180000000 1.0
C      1  0.4924430000000  0.5284070000000  0.5448410000000 1.0
C      1  0.4952940000000  0.4419490000000  0.5173640000000 1.0
C      1  0.4966010000000  0.5076640000000  0.4574580000000 1.0
C      1  0.4373110000000  0.5451090000000  0.4676180000000 1.0
C      1  0.4281560000000  0.4400120000000  0.4682580000000 1.0
C      1  0.4432700000000  0.5027740000000  0.5612430000000 1.0
C      1  0.5602170000000  0.5515070000000  0.5379660000000 1.0
C      1  0.5633850000000  0.4457130000000  0.5258700000000 1.0
C      1  0.5661490000000  0.5072910000000  0.4363410000000 1.0
C      1  0.4806820000000  0.4885490000000  0.5225790000000 1.0
C      1  0.4628260000000  0.5177230000000  0.4960480000000 1.0
C      1  0.4589930000000  0.4768610000000  0.4712290000000 1.0
C      1  0.5462820000000  0.5089110000000  0.4749420000000 1.0
C      1  0.5294610000000  0.5312850000000  0.5094140000000 1.0
C      1  0.5350350000000  0.4826310000000  0.5110900000000 1.0
C      1  0.5246500000000  0.4984440000000  0.5646430000000 1.0
C      1  0.5298960000000  0.5343140000000  0.4800660000000 1.0
C      1  0.5342080000000  0.4844490000000  0.4830760000000 1.0
C      1  0.4731580000000  0.5008660000000  0.4747270000000 1.0
C      1  0.4746370000000  0.5313930000000  0.5201030000000 1.0
C      1  0.4788510000000  0.4618780000000  0.5264640000000 1.0
C      1  0.3554050000000  0.4719760000000  0.4973410000000 1.0
C      1  0.3445940000000  0.5307590000000  0.5243440000000 1.0
C      1  0.3568160000000  0.5333490000000  0.4514470000000 1.0
C      1  0.6575780000000  0.4611610000000  0.4774790000000 1.0
C      1  0.6505210000000  0.5271290000000  0.4670880000000 1.0
C      1  0.6539070000000  0.5103340000000  0.5290890000000 1.0
C      1  0.5348830000000  0.4693120000000  0.6081740000000 1.0
C      1  0.5293610000000  0.6121500000000  0.4700870000000 1.0
C      1  0.5285330000000  0.4208930000000  0.4214360000000 1.0
C      1  0.4753540000000  0.4674220000000  0.3880120000000 1.0
C      1  0.4697770000000  0.6070190000000  0.5279840000000 1.0
C      1  0.4658590000000  0.4183450000000  0.5810680000000 1.0
C      1  0.5722610000000  0.5032820000000  0.4638170000000 1.0
C      1  0.5615050000000  0.4734120000000  0.5196740000000 1.0
C      1  0.5605420000000  0.5355950000000  0.5153720000000 1.0
C      1  0.4469770000000  0.4962170000000  0.5343830000000 1.0
C      1  0.4313600000000  0.4686840000000  0.4674980000000 1.0
C      1  0.4361120000000  0.5278000000000  0.4895440000000 1.0
C      1  0.5529630000000  0.5529630000000  0.5826270000000 1.0
C      1  0.5478490000000  0.5437700000000  0.4149490000000 1.0
C      1  0.5482470000000  0.4072840000000  0.5030750000000 1.0
C      1  0.4482960000000  0.5460560000000  0.4214570000000 1.0
C      1  0.4433240000000  0.5421060000000  0.5873050000000 1.0
C      1  0.4412470000000  0.3997690000000  0.4946800000000 1.0
C      1  0.5025030000000  0.5930990000000  0.5604010000000 1.0
C      1  0.4987470000000  0.5106210000000  0.3784390000000 1.0
C      1  0.5012100000000  0.3963610000000  0.5525620000000 1.0
C      1  0.5050950000000  0.6040560000000  0.4269360000000 1.0
C      1  0.5141320000000  0.5104090000000  0.6287450000000 1.0
C      1  0.4963560000000  0.3994840000000  0.4486920000000 1.0
C      1  0.5166260000000  0.5555440000000  0.5210930000000 1.0
C      1  0.5164510000000  0.4829630000000  0.4199550000000 1.0
C      1  0.5171050000000  0.4539870000000  0.5547260000000 1.0
C      1  0.4886080000000  0.5762220000000  0.4614340000000 1.0
C      1  0.4798940000000  0.4894080000000  0.6036420000000 1.0
C      1  0.4772710000000  0.4554780000000  0.4706610000000 1.0
C      1  0.4049580000000  0.4929400000000  0.4138830000000 1.0
C      1  0.4115220000000  0.4444620000000  0.5279540000000 1.0
C      1  0.4092160000000  0.5577190000000  0.5356570000000 1.0
C      1  0.5926900000000  0.4977760000000  0.5597650000000 1.0
C      1  0.5900490000000  0.4429400000000  0.4614960000000 1.0
C      1  0.5956210000000  0.5699900000000  0.4660120000000 1.0
C      1  0.4384730000000  0.3931700000000  0.4647530000000 1.0
C      1  0.4231500000000  0.5215390000000  0.5992540000000 1.0
C      1  0.4346800000000  0.5724770000000  0.4300770000000 1.0
C      1  0.5640980000000  0.3992160000000  0.5276850000000 1.0
C      1  0.5600380000000  0.5238280000000  0.3947700000000 1.0
C      1  0.5623130000000  0.5805410000000  0.5723810000000 1.0
C      1  0.4361310000000  0.4624360000000  0.5864630000000 1.0
C      1  0.4429560000000  0.5888040000000  0.4873100000000 1.0
C      1  0.4485870000000  0.4339930000000  0.4225870000000 1.0
C      1  0.5433150000000  0.4690800000000  0.4158400000000 1.0
C      1  0.5508230000000  0.5938960000000  0.5157270000000 1.0
C      1  0.5581890000000  0.4354110000000  0.5720000000000 1.0
C      1  0.6287910000000  0.5034480000000  0.5279640000000 1.0
C      1  0.6277060000000  0.5353270000000  0.4766710000000 1.0
C      1  0.6321870000000  0.4647290000000  0.4727940000000 1.0
C      1  0.3740870000000  0.5148590000000  0.4451970000000 1.0
C      1  0.3702570000000  0.5328770000000  0.5202990000000 1.0
C      1  0.3790160000000  0.4738070000000  0.5082360000000 1.0
C      1  0.4424170000000  0.4626750000000  0.4218500000000 1.0
C      1  0.4433230000000  0.4554180000000  0.5591800000000 1.0
C      1  0.4461850000000  0.5693360000000  0.5087160000000 1.0
C      1  0.5611540000000  0.4642080000000  0.5701370000000 1.0
C      1  0.5489170000000  0.4600500000000  0.4454590000000 1.0
C      1  0.5560980000000  0.5792230000000  0.4906170000000 1.0
C      1  0.4970100000000  0.5695300000000  0.5073410000000 1.0
C      1  0.4948720000000  0.4684190000000  0.4312210000000 1.0
C      1  0.4923790000000  0.4567270000000  0.5695350000000 1.0
C      1  0.5067420000000  0.5774020000000  0.4824720000000 1.0
C      1  0.4880940000000  0.4649710000000  0.5959920000000 1.0
C      1  0.5015700000000  0.4584180000000  0.4570730000000 1.0
C      1  0.4296350000000  0.4827240000000  0.4060530000000 1.0
C      1  0.4304130000000  0.4340160000000  0.5457550000000 1.0
C      1  0.4325290000000  0.5728560000000  0.5334680000000 1.0
C      1  0.5750420000000  0.4873560000000  0.5791790000000 1.0
C      1  0.5646580000000  0.4371370000000  0.4515610000000 1.0
C      1  0.5716330000000  0.5839300000000  0.4667400000000 1.0
C      1  0.4719280000000  0.5588320000000  0.5120930000000 1.0
C      1  0.4676260000000  0.4748770000000  0.4298840000000 1.0
C      1  0.4702190000000  0.4573670000000  0.5526040000000 1.0
C      1  0.5331280000000  0.5648400000000  0.4798020000000 1.0
C      1  0.5356950000000  0.4735940000000  0.5608220000000 1.0
C      1  0.5279810000000  0.4649700000000  0.4645140000000 1.0
C      1  0.5005800000000  0.4152010000000  0.5789830000000 1.0
C      1  0.4997520000000  0.6064740000000  0.5324930000000 1.0
C      1  0.4949710000000  0.4832910000000  0.3764480000000 1.0
C      1  0.5000630000000  0.4163370000000  0.4245390000000 1.0
C      1  0.5107540000000  0.6180000000000  0.4501800000000 1.0
C      1  0.5203880000000  0.4834950000000  0.6271570000000 1.0
C      1  0.4362970000000  0.4197540000000  0.4463750000000 1.0
C      1  0.4281120000000  0.4924620000000  0.5857000000000 1.0
C      1  0.4335900000000  0.5747130000000  0.4618140000000 1.0
C      1  0.5679680000000  0.4235440000000  0.5465280000000 1.0
C      1  0.5648350000000  0.4967720000000  0.4091930000000 1.0
C      1  0.5613370000000  0.5809080000000  0.5413990000000 1.0
C      1  0.5101480000000  0.3928830000000  0.4743400000000 1.0
C      1  0.5205060000000  0.5335100000000  0.6125730000000 1.0
C      1  0.5137550000000  0.5792210000000  0.4148390000000 1.0
C      1  0.4860770000000  0.3888260000000  0.5271740000000 1.0
C      1  0.4864440000000  0.5332990000000  0.3916720000000 1.0
C      1  0.4892830000000  0.5743690000000  0.5808020000000 1.0
C      1  0.4564640000000  0.3950810000000  0.5271880000000 1.0
C      1  0.4596420000000  0.5715380000000  0.5755170000000 1.0
C      1  0.4589320000000  0.5266040000000  0.4008010000000 1.0
C      1  0.5383580000000  0.4012620000000  0.4753070000000 1.0
C      1  0.5409560000000  0.5716540000000  0.4240920000000 1.0
C      1  0.5475920000000  0.5298580000000  0.6006650000000 1.0
C      1  0.5851470000000  0.4872250000000  0.5112170000000 1.0
C      1  0.5836200000000  0.5370180000000  0.4991940000000 1.0
C      1  0.5894410000000  0.4875560000000  0.4817850000000 1.0
C      1  0.4101770000000  0.4853530000000  0.4602780000000 1.0
C      1  0.4156750000000  0.5186820000000  0.5070490000000 1.0
C      1  0.4226270000000  0.4935160000000  0.5194050000000 1.0
C      1  0.4508480000000  0.5861900000000  0.5510350000000 1.0
C      1  0.4512260000000  0.4969640000000  0.3945970000000 1.0
C      1  0.4479760000000  0.4110260000000  0.5507500000000 1.0
C      1  0.5516020000000  0.5900710000000  0.4477050000000 1.0
C      1  0.5570440000000  0.4994580000000  0.5982540000000 1.0
C      1  0.5477160000000  0.4141260000000  0.4502440000000 1.0
C      1  0.5036330000000  0.5559170000000  0.6004240000000 1.0
C      1  0.4988670000000  0.5585200000000  0.4001490000000 1.0
C      1  0.4965390000000  0.3959290000000  0.5003520000000 1.0
C      1  0.5138690000000  0.5005030000000  0.5183470000000 1.0
END
