TITL C-3201378-2706-1324 -0.553851101370489 125000 -1141.79563873129 0 0 184 (C1) n - 1
REM
REM in /home/nfs/bkarasulu/CARBON/AIRSS/Generating-Clusters/LCBOP/Higher-Symm/SD-CG/FIRE-CG
REM
REM
REM
REM
REM
REM ./C.cell (b20cbc046b6831c77cfcea5457e17084)
REM AIRSS Version 0.9.1 bugfix July 2018 build 013d7b7c2542+ Fri, 06 Jul 2018 19:26:36 +0100
REM compiler GCC version 9.2.1 20190827 (Red Hat 9.2.1-1)
REM options -cpp -mtune=generic -march=x86-64 -g -O0 -fpre-include=/usr/include/finclude/math-vector-fortran.h
REM seed 2114407014 -1771946830 -2013877224 1783711107 -1425006938 733757399 -1969254370 -736939501 443752355 1672667457 -111991527 -1659913323 -549993481 -925514357 1974478645 -451558579 -1772956117 -1607923019 -524454918 1962430734 1577063100 333919032 -538613338 1708872438 937384880 608993688 -10161279 -1583792565 331204232 -522860539 2062447015 -2005369486 1318465859
REM
CELL 1.54180   50.00000   50.00000   50.00000   90.00000   90.00000   90.00000
LATT -1
SFAC C  
C      1  0.4413440000000  0.6481550000000  0.5660950000000 1.0
C      1  0.5329480000000  0.6686460000000  0.4297750000000 1.0
C      1  0.5210600000000  0.3528710000000  0.5820680000000 1.0
C      1  0.4780180000000  0.3280920000000  0.4200290000000 1.0
C      1  0.5654840000000  0.6763270000000  0.4973530000000 1.0
C      1  0.4077290000000  0.6713090000000  0.5021790000000 1.0
C      1  0.5771580000000  0.3552160000000  0.5345180000000 1.0
C      1  0.4211170000000  0.3314200000000  0.4673060000000 1.0
C      1  0.5061390000000  0.6737750000000  0.5751550000000 1.0
C      1  0.4647090000000  0.6884180000000  0.4249120000000 1.0
C      1  0.4530890000000  0.3328010000000  0.5590900000000 1.0
C      1  0.5485750000000  0.3296700000000  0.4437050000000 1.0
C      1  0.5281180000000  0.6808360000000  0.5610720000000 1.0
C      1  0.4417650000000  0.6911250000000  0.4389530000000 1.0
C      1  0.5655200000000  0.3344990000000  0.4641830000000 1.0
C      1  0.4345230000000  0.3298550000000  0.5396700000000 1.0
C      1  0.4320160000000  0.3266460000000  0.4435620000000 1.0
C      1  0.5672320000000  0.3551030000000  0.5591600000000 1.0
C      1  0.5640090000000  0.6759140000000  0.4708510000000 1.0
C      1  0.4099720000000  0.6640470000000  0.5276200000000 1.0
C      1  0.4524370000000  0.3253530000000  0.4266240000000 1.0
C      1  0.5469600000000  0.3541820000000  0.5763100000000 1.0
C      1  0.4216200000000  0.6553240000000  0.5498280000000 1.0
C      1  0.5526880000000  0.6727630000000  0.4470450000000 1.0
C      1  0.5738370000000  0.4428750000000  0.5590530000000 1.0
C      1  0.3854690000000  0.4202960000000  0.3956610000000 1.0
C      1  0.4023100000000  0.5533310000000  0.5427840000000 1.0
C      1  0.5974410000000  0.5431540000000  0.4766100000000 1.0
C      1  0.5696440000000  0.4370460000000  0.5865460000000 1.0
C      1  0.4024090000000  0.4230660000000  0.3752720000000 1.0
C      1  0.5714550000000  0.5471300000000  0.4657300000000 1.0
C      1  0.4306680000000  0.5547600000000  0.5424900000000 1.0
C      1  0.4734570000000  0.3523600000000  0.5584830000000 1.0
C      1  0.5246240000000  0.3440940000000  0.4398250000000 1.0
C      1  0.4940200000000  0.6483250000000  0.5725610000000 1.0
C      1  0.4801810000000  0.6647310000000  0.4250290000000 1.0
C      1  0.5609590000000  0.3540930000000  0.4839930000000 1.0
C      1  0.4335300000000  0.3463370000000  0.5167460000000 1.0
C      1  0.5409370000000  0.6634850000000  0.5428300000000 1.0
C      1  0.4309390000000  0.6701240000000  0.4543950000000 1.0
C      1  0.3813130000000  0.5390720000000  0.5517580000000 1.0
C      1  0.6186420000000  0.5265930000000  0.4776410000000 1.0
C      1  0.5989170000000  0.4360630000000  0.5471150000000 1.0
C      1  0.3715630000000  0.4313410000000  0.4155390000000 1.0
C      1  0.5694160000000  0.5590180000000  0.4398190000000 1.0
C      1  0.4441530000000  0.5673530000000  0.5643260000000 1.0
C      1  0.5732540000000  0.4463300000000  0.6115680000000 1.0
C      1  0.4176520000000  0.4390140000000  0.3602960000000 1.0
C      1  0.4773330000000  0.5148460000000  0.5920690000000 1.0
C      1  0.5472090000000  0.5074480000000  0.4024730000000 1.0
C      1  0.5860310000000  0.5129580000000  0.6219960000000 1.0
C      1  0.4448990000000  0.4981320000000  0.3846620000000 1.0
C      1  0.6115100000000  0.4608450000000  0.4591120000000 1.0
C      1  0.3907230000000  0.4742440000000  0.5711540000000 1.0
C      1  0.6250880000000  0.4974730000000  0.5338210000000 1.0
C      1  0.3878900000000  0.4903660000000  0.4504060000000 1.0
C      1  0.5033530000000  0.3345350000000  0.4246440000000 1.0
C      1  0.4952880000000  0.3520300000000  0.5757510000000 1.0
C      1  0.5078290000000  0.6654200000000  0.4218310000000 1.0
C      1  0.4664210000000  0.6451650000000  0.5742870000000 1.0
C      1  0.4215790000000  0.3383980000000  0.4929120000000 1.0
C      1  0.5749360000000  0.3547530000000  0.5080650000000 1.0
C      1  0.4148500000000  0.6741510000000  0.4767610000000 1.0
C      1  0.5574940000000  0.6725720000000  0.5223800000000 1.0
C      1  0.6176070000000  0.4740580000000  0.4050020000000 1.0
C      1  0.4088790000000  0.4893880000000  0.6217250000000 1.0
C      1  0.3782100000000  0.5222720000000  0.4051730000000 1.0
C      1  0.6502390000000  0.5023240000000  0.5851330000000 1.0
C      1  0.4335050000000  0.5005170000000  0.6264750000000 1.0
C      1  0.5988840000000  0.4872390000000  0.3899110000000 1.0
C      1  0.3959090000000  0.5252010000000  0.3844730000000 1.0
C      1  0.6402790000000  0.5064590000000  0.6103600000000 1.0
C      1  0.5688470000000  0.5261340000000  0.3988710000000 1.0
C      1  0.4605180000000  0.5356280000000  0.6030000000000 1.0
C      1  0.4254090000000  0.4900030000000  0.3660670000000 1.0
C      1  0.5985720000000  0.4883810000000  0.6308240000000 1.0
C      1  0.3779310000000  0.4971370000000  0.5834170000000 1.0
C      1  0.6304370000000  0.4817750000000  0.4525380000000 1.0
C      1  0.3696210000000  0.4810290000000  0.4311950000000 1.0
C      1  0.6356100000000  0.4738240000000  0.5466240000000 1.0
C      1  0.5899650000000  0.4910690000000  0.5819890000000 1.0
C      1  0.4478310000000  0.4763270000000  0.4287020000000 1.0
C      1  0.4483260000000  0.5145280000000  0.5558300000000 1.0
C      1  0.5579530000000  0.5077290000000  0.4478220000000 1.0
C      1  0.5850990000000  0.4870500000000  0.5548500000000 1.0
C      1  0.4366500000000  0.4797400000000  0.4548720000000 1.0
C      1  0.5827240000000  0.4952120000000  0.4502540000000 1.0
C      1  0.4241370000000  0.5054290000000  0.5664950000000 1.0
C      1  0.5374720000000  0.5093430000000  0.5442470000000 1.0
C      1  0.4730510000000  0.5261700000000  0.4673080000000 1.0
C      1  0.5152090000000  0.4661930000000  0.5525490000000 1.0
C      1  0.5040610000000  0.4859150000000  0.4681330000000 1.0
C      1  0.5469430000000  0.5197120000000  0.5183240000000 1.0
C      1  0.4502750000000  0.5336420000000  0.4851190000000 1.0
C      1  0.5271770000000  0.4870580000000  0.4863650000000 1.0
C      1  0.4455750000000  0.4887380000000  0.5033700000000 1.0
C      1  0.5364470000000  0.4685030000000  0.4375860000000 1.0
C      1  0.4675170000000  0.4731880000000  0.5603470000000 1.0
C      1  0.4468560000000  0.5236980000000  0.4273940000000 1.0
C      1  0.5709980000000  0.5312440000000  0.5727020000000 1.0
C      1  0.4404860000000  0.4674950000000  0.5490270000000 1.0
C      1  0.5567400000000  0.4589390000000  0.4587810000000 1.0
C      1  0.4238070000000  0.5247290000000  0.4468330000000 1.0
C      1  0.5850450000000  0.5317550000000  0.5452110000000 1.0
C      1  0.5062410000000  0.4385060000000  0.4607180000000 1.0
C      1  0.4828440000000  0.4390660000000  0.5279730000000 1.0
C      1  0.4625060000000  0.5668160000000  0.4421550000000 1.0
C      1  0.5340010000000  0.5571840000000  0.5564610000000 1.0
C      1  0.4579060000000  0.4419560000000  0.5136940000000 1.0
C      1  0.5221500000000  0.4380070000000  0.4853230000000 1.0
C      1  0.4375770000000  0.5701600000000  0.4569430000000 1.0
C      1  0.5509260000000  0.5647620000000  0.5338860000000 1.0
C      1  0.5989770000000  0.5068150000000  0.5394430000000 1.0
C      1  0.4143330000000  0.4984580000000  0.4538830000000 1.0
C      1  0.4171470000000  0.4781060000000  0.5620440000000 1.0
C      1  0.5840960000000  0.4675240000000  0.4569640000000 1.0
C      1  0.5816280000000  0.5154600000000  0.5941740000000 1.0
C      1  0.4495510000000  0.4996790000000  0.4121300000000 1.0
C      1  0.5425490000000  0.4949860000000  0.4273790000000 1.0
C      1  0.4700870000000  0.5009410000000  0.5684570000000 1.0
C      1  0.6467940000000  0.4556770000000  0.5915790000000 1.0
C      1  0.3586150000000  0.4852420000000  0.3832390000000 1.0
C      1  0.3903530000000  0.5324100000000  0.6161100000000 1.0
C      1  0.6372340000000  0.5153460000000  0.4166870000000 1.0
C      1  0.6366760000000  0.4598470000000  0.6167000000000 1.0
C      1  0.3762640000000  0.4881990000000  0.3625190000000 1.0
C      1  0.6185120000000  0.5285520000000  0.4016610000000 1.0
C      1  0.4148790000000  0.5435660000000  0.6210990000000 1.0
C      1  0.5527090000000  0.5909900000000  0.5251430000000 1.0
C      1  0.4255990000000  0.5949530000000  0.4599370000000 1.0
C      1  0.4462210000000  0.4196540000000  0.5016350000000 1.0
C      1  0.5195730000000  0.4164730000000  0.5032810000000 1.0
C      1  0.5165670000000  0.5756060000000  0.5678050000000 1.0
C      1  0.4759170000000  0.5890180000000  0.4321490000000 1.0
C      1  0.4984940000000  0.4145550000000  0.4489250000000 1.0
C      1  0.4990120000000  0.4161870000000  0.5229790000000 1.0
C      1  0.4765790000000  0.6155280000000  0.4294440000000 1.0
C      1  0.5088460000000  0.6010730000000  0.5693650000000 1.0
C      1  0.5053300000000  0.3888370000000  0.4474270000000 1.0
C      1  0.4904380000000  0.3917970000000  0.5339610000000 1.0
C      1  0.4274000000000  0.6211940000000  0.4562760000000 1.0
C      1  0.5460650000000  0.6163500000000  0.5295000000000 1.0
C      1  0.4428150000000  0.3933370000000  0.5041300000000 1.0
C      1  0.5329880000000  0.3927000000000  0.4966140000000 1.0
C      1  0.4002880000000  0.5034590000000  0.3662750000000 1.0
C      1  0.6265440000000  0.4855670000000  0.6245970000000 1.0
C      1  0.5946190000000  0.5155350000000  0.3924670000000 1.0
C      1  0.4390570000000  0.5280240000000  0.6203610000000 1.0
C      1  0.3641470000000  0.4975010000000  0.4085930000000 1.0
C      1  0.6482590000000  0.4767900000000  0.5721290000000 1.0
C      1  0.3877290000000  0.5045670000000  0.6094570000000 1.0
C      1  0.6333850000000  0.4879690000000  0.4245980000000 1.0
C      1  0.5329200000000  0.6359780000000  0.5445070000000 1.0
C      1  0.4412700000000  0.6440980000000  0.4481810000000 1.0
C      1  0.4492170000000  0.3702230000000  0.5186250000000 1.0
C      1  0.5387970000000  0.3716620000000  0.4789870000000 1.0
C      1  0.5114000000000  0.6280520000000  0.5621920000000 1.0
C      1  0.4662950000000  0.6412520000000  0.4339100000000 1.0
C      1  0.5223780000000  0.3680600000000  0.4554170000000 1.0
C      1  0.4714500000000  0.3714130000000  0.5371080000000 1.0
C      1  0.4453900000000  0.5179170000000  0.5084010000000 1.0
C      1  0.5408070000000  0.5117990000000  0.4921260000000 1.0
C      1  0.5641660000000  0.4686960000000  0.5502960000000 1.0
C      1  0.4550800000000  0.4833610000000  0.4765170000000 1.0
C      1  0.5527050000000  0.5251800000000  0.4696050000000 1.0
C      1  0.4442430000000  0.5308720000000  0.5334870000000 1.0
C      1  0.5384190000000  0.4809130000000  0.5487370000000 1.0
C      1  0.4792330000000  0.4983530000000  0.4700730000000 1.0
C      1  0.5095500000000  0.4645260000000  0.4487170000000 1.0
C      1  0.4888720000000  0.4582380000000  0.5484950000000 1.0
C      1  0.4685340000000  0.5385280000000  0.4407620000000 1.0
C      1  0.5422520000000  0.5306370000000  0.5649250000000 1.0
C      1  0.4433300000000  0.4656530000000  0.5204740000000 1.0
C      1  0.5407750000000  0.4603010000000  0.4840070000000 1.0
C      1  0.4296280000000  0.5446690000000  0.4675790000000 1.0
C      1  0.5655320000000  0.5414630000000  0.5253480000000 1.0
C      1  0.6220160000000  0.4491570000000  0.5416670000000 1.0
C      1  0.3649400000000  0.4534160000000  0.4289830000000 1.0
C      1  0.3710560000000  0.5185900000000  0.5659290000000 1.0
C      1  0.6314940000000  0.5040560000000  0.4703500000000 1.0
C      1  0.5828230000000  0.4646680000000  0.6288350000000 1.0
C      1  0.4264680000000  0.4638260000000  0.3558970000000 1.0
C      1  0.5678190000000  0.5501380000000  0.4142920000000 1.0
C      1  0.4564580000000  0.5589290000000  0.5869460000000 1.0
END
