TITL C-3201374-830-276 89.6264873469437 125000 -1177.17858258685 0 0 194 (C1) n - 1
REM
REM in /home/nfs/bkarasulu/CARBON/AIRSS/Generating-Clusters/LCBOP/Higher-Symm/SD-CG/FIRE-CG
REM
REM
REM
REM
REM
REM ./C.cell (b20cbc046b6831c77cfcea5457e17084)
REM AIRSS Version 0.9.1 bugfix July 2018 build 013d7b7c2542+ Fri, 06 Jul 2018 19:26:36 +0100
REM compiler GCC version 9.2.1 20190827 (Red Hat 9.2.1-1)
REM options -cpp -mtune=generic -march=x86-64 -g -O0 -fpre-include=/usr/include/finclude/math-vector-fortran.h
REM seed 1488499826 1952798225 -1090635975 -2043051543 -1551464682 -2143953689 -754546187 1816865264 -687530506 494306864 899658880 -1720746748 -2100036046 1322538877 1003162287 -1978676338 1765201972 163785721 1542366840 294623038 885071890 473202635 -2061273922 318880236 1835930243 340523652 869758825 -1860469710 85845601 -754507787 -1031752401 1110681583 -1259059654
REM
CELL 1.54180   50.00000   50.00000   50.00000   90.00000   90.00000   90.00000
LATT -1
SFAC C  
C      1  0.3900630000000  0.4891290000000  0.5570650000000 1.0
C      1  0.4976470000000  0.4723330000000  0.3897850000000 1.0
C      1  0.6023050000000  0.4705170000000  0.5518240000000 1.0
C      1  0.5638040000000  0.5467120000000  0.5122060000000 1.0
C      1  0.4554900000000  0.5472970000000  0.5692370000000 1.0
C      1  0.4753330000000  0.5453020000000  0.4367390000000 1.0
C      1  0.5657080000000  0.4267600000000  0.5747190000000 1.0
C      1  0.4092070000000  0.4280890000000  0.5175460000000 1.0
C      1  0.5359130000000  0.4277470000000  0.4056480000000 1.0
C      1  0.5272200000000  0.4326420000000  0.4787120000000 1.0
C      1  0.5060970000000  0.4423460000000  0.5269430000000 1.0
C      1  0.4813220000000  0.4309270000000  0.4848520000000 1.0
C      1  0.5215590000000  0.5210560000000  0.4938830000000 1.0
C      1  0.4855040000000  0.5151710000000  0.5308200000000 1.0
C      1  0.4740110000000  0.5190210000000  0.4845170000000 1.0
C      1  0.5087210000000  0.5402940000000  0.4483380000000 1.0
C      1  0.5358450000000  0.5478350000000  0.5352750000000 1.0
C      1  0.4420180000000  0.5465070000000  0.5070020000000 1.0
C      1  0.5784350000000  0.4813840000000  0.4968670000000 1.0
C      1  0.4561570000000  0.4780860000000  0.5732260000000 1.0
C      1  0.4611380000000  0.4786380000000  0.4311170000000 1.0
C      1  0.4354310000000  0.5170470000000  0.4396420000000 1.0
C      1  0.5841900000000  0.5087280000000  0.4869840000000 1.0
C      1  0.4760230000000  0.5136180000000  0.5937370000000 1.0
C      1  0.4530300000000  0.5219770000000  0.5799240000000 1.0
C      1  0.4615130000000  0.5219720000000  0.4304960000000 1.0
C      1  0.5763450000000  0.5219010000000  0.5136260000000 1.0
C      1  0.6089250000000  0.5613350000000  0.5138880000000 1.0
C      1  0.4248240000000  0.5740030000000  0.5868210000000 1.0
C      1  0.4623730000000  0.5625480000000  0.3955250000000 1.0
C      1  0.5095420000000  0.5100540000000  0.5572660000000 1.0
C      1  0.4458200000000  0.5045650000000  0.4896290000000 1.0
C      1  0.5359940000000  0.5059690000000  0.4695960000000 1.0
C      1  0.5719660000000  0.4548460000000  0.5827540000000 1.0
C      1  0.3951230000000  0.4616750000000  0.5138890000000 1.0
C      1  0.5409210000000  0.4561850000000  0.4009340000000 1.0
C      1  0.5010510000000  0.4472250000000  0.4693040000000 1.0
C      1  0.5266870000000  0.4372890000000  0.5082150000000 1.0
C      1  0.4796660000000  0.4415270000000  0.5118210000000 1.0
C      1  0.5622850000000  0.5178450000000  0.4683480000000 1.0
C      1  0.4999860000000  0.5241280000000  0.5805940000000 1.0
C      1  0.4308620000000  0.5162310000000  0.4672270000000 1.0
C      1  0.4058160000000  0.5571620000000  0.5716540000000 1.0
C      1  0.4845770000000  0.5476280000000  0.3840640000000 1.0
C      1  0.6098300000000  0.5492690000000  0.5401670000000 1.0
C      1  0.4000840000000  0.4657860000000  0.4864420000000 1.0
C      1  0.5432010000000  0.4713010000000  0.4252270000000 1.0
C      1  0.5503290000000  0.4737570000000  0.5793040000000 1.0
C      1  0.6055230000000  0.5010860000000  0.4649460000000 1.0
C      1  0.4878320000000  0.4961670000000  0.6147240000000 1.0
C      1  0.4129200000000  0.5056360000000  0.4256640000000 1.0
C      1  0.5332850000000  0.4733440000000  0.6014910000000 1.0
C      1  0.3871900000000  0.4747810000000  0.4614820000000 1.0
C      1  0.5945070000000  0.4683920000000  0.4221460000000 1.0
C      1  0.6063310000000  0.4973450000000  0.5423820000000 1.0
C      1  0.4071080000000  0.5045640000000  0.5739820000000 1.0
C      1  0.4827570000000  0.4963990000000  0.3916390000000 1.0
C      1  0.4631370000000  0.4576780000000  0.5920120000000 1.0
C      1  0.4419820000000  0.4641340000000  0.4162800000000 1.0
C      1  0.5994660000000  0.4626470000000  0.4929730000000 1.0
C      1  0.4800330000000  0.5813530000000  0.5909950000000 1.0
C      1  0.4320180000000  0.5696430000000  0.4377350000000 1.0
C      1  0.5856570000000  0.5644200000000  0.4693980000000 1.0
C      1  0.6096810000000  0.4715900000000  0.4673670000000 1.0
C      1  0.4856780000000  0.4670710000000  0.6086150000000 1.0
C      1  0.4152960000000  0.4767060000000  0.4200810000000 1.0
C      1  0.4548580000000  0.4376850000000  0.4176450000000 1.0
C      1  0.5894090000000  0.4374280000000  0.5039530000000 1.0
C      1  0.4623250000000  0.4339890000000  0.5734200000000 1.0
C      1  0.4886530000000  0.4204130000000  0.5713000000000 1.0
C      1  0.4423440000000  0.4255950000000  0.4409800000000 1.0
C      1  0.5775500000000  0.4206270000000  0.4810460000000 1.0
C      1  0.5512810000000  0.4035820000000  0.5302370000000 1.0
C      1  0.4492740000000  0.3982790000000  0.5290690000000 1.0
C      1  0.5046480000000  0.3997680000000  0.4317870000000 1.0
C      1  0.4387670000000  0.6014350000000  0.5467720000000 1.0
C      1  0.4917310000000  0.5973250000000  0.4300930000000 1.0
C      1  0.5681460000000  0.5981800000000  0.5220930000000 1.0
C      1  0.5110230000000  0.4557550000000  0.6003130000000 1.0
C      1  0.4015380000000  0.4608030000000  0.4398280000000 1.0
C      1  0.5949720000000  0.4563090000000  0.4475500000000 1.0
C      1  0.5256660000000  0.4759950000000  0.3853250000000 1.0
C      1  0.5938770000000  0.4736670000000  0.5793750000000 1.0
C      1  0.3877440000000  0.4872830000000  0.5285200000000 1.0
C      1  0.4746140000000  0.3892960000000  0.5245340000000 1.0
C      1  0.5021370000000  0.3957300000000  0.4603840000000 1.0
C      1  0.5269360000000  0.3946520000000  0.5152440000000 1.0
C      1  0.5412090000000  0.5077140000000  0.3900140000000 1.0
C      1  0.5832060000000  0.5072660000000  0.5914250000000 1.0
C      1  0.3834670000000  0.5143890000000  0.5147700000000 1.0
C      1  0.5231440000000  0.5648540000000  0.4371200000000 1.0
C      1  0.5413710000000  0.5744070000000  0.5491080000000 1.0
C      1  0.4346250000000  0.5743520000000  0.5087380000000 1.0
C      1  0.5057750000000  0.4803580000000  0.5597120000000 1.0
C      1  0.4497350000000  0.4747650000000  0.4850170000000 1.0
C      1  0.5370530000000  0.4769950000000  0.4776140000000 1.0
C      1  0.5303060000000  0.5005090000000  0.5148860000000 1.0
C      1  0.4794210000000  0.4866380000000  0.5256290000000 1.0
C      1  0.4888320000000  0.4965160000000  0.4676280000000 1.0
C      1  0.5735060000000  0.4419670000000  0.4599460000000 1.0
C      1  0.5102030000000  0.4394820000000  0.5763080000000 1.0
C      1  0.4224210000000  0.4435420000000  0.4524000000000 1.0
C      1  0.6207720000000  0.5223860000000  0.5436970000000 1.0
C      1  0.3996420000000  0.5310850000000  0.5811300000000 1.0
C      1  0.4826720000000  0.5202340000000  0.3760710000000 1.0
C      1  0.5272450000000  0.5593570000000  0.5965660000000 1.0
C      1  0.4003400000000  0.5642040000000  0.4689950000000 1.0
C      1  0.5758420000000  0.5570970000000  0.4261600000000 1.0
C      1  0.5489160000000  0.4069310000000  0.5865010000000 1.0
C      1  0.4091750000000  0.4111180000000  0.4944290000000 1.0
C      1  0.5548520000000  0.4100420000000  0.4179450000000 1.0
C      1  0.4675690000000  0.6045230000000  0.4816080000000 1.0
C      1  0.5330770000000  0.5888700000000  0.4804320000000 1.0
C      1  0.4910140000000  0.6059410000000  0.5368400000000 1.0
C      1  0.4715900000000  0.5002620000000  0.4168410000000 1.0
C      1  0.5792920000000  0.5056340000000  0.5373350000000 1.0
C      1  0.4365280000000  0.5005950000000  0.5683140000000 1.0
C      1  0.5848650000000  0.5617480000000  0.4976190000000 1.0
C      1  0.4538740000000  0.5712110000000  0.5844170000000 1.0
C      1  0.4570320000000  0.5647840000000  0.4240870000000 1.0
C      1  0.4039120000000  0.5614100000000  0.5428440000000 1.0
C      1  0.5103150000000  0.5559950000000  0.3941490000000 1.0
C      1  0.5879250000000  0.5586260000000  0.5573530000000 1.0
C      1  0.5040770000000  0.3972610000000  0.5612900000000 1.0
C      1  0.4494980000000  0.4053220000000  0.4604210000000 1.0
C      1  0.5586310000000  0.3990540000000  0.4698340000000 1.0
C      1  0.4648570000000  0.6087690000000  0.5495310000000 1.0
C      1  0.4798900000000  0.6048820000000  0.4542770000000 1.0
C      1  0.5508190000000  0.5997640000000  0.5004580000000 1.0
C      1  0.5083580000000  0.5795720000000  0.5838840000000 1.0
C      1  0.4246060000000  0.5802500000000  0.4628290000000 1.0
C      1  0.5687670000000  0.5736300000000  0.4492670000000 1.0
C      1  0.6001910000000  0.5134080000000  0.4387890000000 1.0
C      1  0.5144440000000  0.5112320000000  0.6209280000000 1.0
C      1  0.3910150000000  0.5196150000000  0.4404060000000 1.0
C      1  0.4348950000000  0.4973300000000  0.5372680000000 1.0
C      1  0.5181250000000  0.4805560000000  0.4348460000000 1.0
C      1  0.5550750000000  0.4913190000000  0.5519280000000 1.0
C      1  0.5419030000000  0.5800810000000  0.4536000000000 1.0
C      1  0.5163400000000  0.5895590000000  0.5568250000000 1.0
C      1  0.4409140000000  0.5899790000000  0.4846710000000 1.0
C      1  0.5058940000000  0.4741870000000  0.4828330000000 1.0
C      1  0.5049540000000  0.4814490000000  0.5115620000000 1.0
C      1  0.4612840000000  0.4661710000000  0.5123910000000 1.0
C      1  0.4265110000000  0.4575330000000  0.4776840000000 1.0
C      1  0.5473210000000  0.4514530000000  0.4662850000000 1.0
C      1  0.5173790000000  0.4546680000000  0.5514400000000 1.0
C      1  0.3911750000000  0.5439200000000  0.5206000000000 1.0
C      1  0.5347230000000  0.5376560000000  0.3939300000000 1.0
C      1  0.5776200000000  0.5417460000000  0.5800030000000 1.0
C      1  0.5174680000000  0.5455610000000  0.4773730000000 1.0
C      1  0.5069790000000  0.5513360000000  0.5336480000000 1.0
C      1  0.4641960000000  0.5480220000000  0.4865110000000 1.0
C      1  0.5275880000000  0.3926090000000  0.5771560000000 1.0
C      1  0.4273300000000  0.3992730000000  0.4778290000000 1.0
C      1  0.5609110000000  0.3965030000000  0.4408130000000 1.0
C      1  0.3901120000000  0.5587520000000  0.4948420000000 1.0
C      1  0.5583940000000  0.5513830000000  0.4047880000000 1.0
C      1  0.5557100000000  0.5554440000000  0.5934460000000 1.0
C      1  0.5342040000000  0.5116770000000  0.5425530000000 1.0
C      1  0.4375060000000  0.5176500000000  0.5156470000000 1.0
C      1  0.5124030000000  0.5073710000000  0.4489000000000 1.0
C      1  0.3793800000000  0.5025400000000  0.4614150000000 1.0
C      1  0.5895220000000  0.4961190000000  0.4175830000000 1.0
C      1  0.5383310000000  0.4955420000000  0.6183460000000 1.0
C      1  0.4763920000000  0.4064130000000  0.4710170000000 1.0
C      1  0.5285850000000  0.4017650000000  0.4791680000000 1.0
C      1  0.5022420000000  0.3911240000000  0.5324420000000 1.0
C      1  0.4892640000000  0.4445440000000  0.4135100000000 1.0
C      1  0.5794800000000  0.4468970000000  0.5327950000000 1.0
C      1  0.4425100000000  0.4408330000000  0.5505250000000 1.0
C      1  0.3730810000000  0.5119200000000  0.4875530000000 1.0
C      1  0.5690340000000  0.5029810000000  0.3987750000000 1.0
C      1  0.5652960000000  0.5052530000000  0.6140230000000 1.0
C      1  0.4309190000000  0.4196750000000  0.5353190000000 1.0
C      1  0.5080750000000  0.4204980000000  0.4117470000000 1.0
C      1  0.5681840000000  0.4220190000000  0.5461490000000 1.0
C      1  0.4230470000000  0.5818790000000  0.5331630000000 1.0
C      1  0.5085780000000  0.5771620000000  0.4157420000000 1.0
C      1  0.5694040000000  0.5808190000000  0.5460180000000 1.0
C      1  0.4778890000000  0.4783160000000  0.5540790000000 1.0
C      1  0.4660100000000  0.4782100000000  0.4587640000000 1.0
C      1  0.5501260000000  0.4797620000000  0.5055320000000 1.0
C      1  0.5004820000000  0.4571070000000  0.4398130000000 1.0
C      1  0.5530210000000  0.4655370000000  0.5326830000000 1.0
C      1  0.4400990000000  0.4660810000000  0.5341140000000 1.0
C      1  0.5955900000000  0.5410570000000  0.4377370000000 1.0
C      1  0.5148510000000  0.5346290000000  0.6027080000000 1.0
C      1  0.3980840000000  0.5478970000000  0.4459310000000 1.0
C      1  0.5107050000000  0.5714880000000  0.4860190000000 1.0
C      1  0.4862150000000  0.5647170000000  0.5244210000000 1.0
C      1  0.4842770000000  0.5669320000000  0.4964660000000 1.0
C      1  0.4938810000000  0.5223630000000  0.5056310000000 1.0
C      1  0.4844820000000  0.6106060000000  0.5069700000000 1.0
END
