TITL C-3201376-6384-766 12032.1658423398 125000 -805.484703960363 0 0 128 (C1) n - 1
REM
REM in /home/nfs/bkarasulu/CARBON/AIRSS/Generating-Clusters/LCBOP/Higher-Symm/SD-CG/FIRE-CG
REM
REM
REM
REM
REM
REM ./C.cell (b20cbc046b6831c77cfcea5457e17084)
REM AIRSS Version 0.9.1 bugfix July 2018 build 013d7b7c2542+ Fri, 06 Jul 2018 19:26:36 +0100
REM compiler GCC version 9.2.1 20190827 (Red Hat 9.2.1-1)
REM options -cpp -mtune=generic -march=x86-64 -g -O0 -fpre-include=/usr/include/finclude/math-vector-fortran.h
REM seed 994710174 -678923309 -254194600 -1946137153 -13332789 -1227680879 434479159 -1236621842 53306004 -690833062 1627301810 1139350474 -663740180 703948241 -2092517209 -635068057 -1771139027 -1969826868 1947245445 -313930816 1657341177 -1825871386 -1413179109 -974460502 1049159080 -597614220 -593292076 883623424 1204730166 -647056581 -55399511 647952387 -1531756869
REM
CELL 1.54180   50.00000   50.00000   50.00000   90.00000   90.00000   90.00000
LATT -1
SFAC C  
C      1  0.5280440000000  0.4657350000000  0.5154150000000 1.0
C      1  0.4776750000000  0.4769270000000  0.5111480000000 1.0
C      1  0.4994200000000  0.4774100000000  0.4713550000000 1.0
C      1  0.5389520000000  0.5394010000000  0.5159860000000 1.0
C      1  0.4760960000000  0.5388540000000  0.5180210000000 1.0
C      1  0.4908530000000  0.5437050000000  0.4558320000000 1.0
C      1  0.5248790000000  0.4688770000000  0.4848490000000 1.0
C      1  0.4741990000000  0.4692630000000  0.4829050000000 1.0
C      1  0.4995660000000  0.4694790000000  0.5288540000000 1.0
C      1  0.5274470000000  0.5373930000000  0.4887500000000 1.0
C      1  0.4665840000000  0.5428690000000  0.4693950000000 1.0
C      1  0.4938330000000  0.5406610000000  0.5417070000000 1.0
C      1  0.5226850000000  0.3896380000000  0.4875980000000 1.0
C      1  0.4998210000000  0.3904920000000  0.5262680000000 1.0
C      1  0.4747200000000  0.4056500000000  0.4849870000000 1.0
C      1  0.5225580000000  0.5871860000000  0.4864230000000 1.0
C      1  0.5004330000000  0.5880660000000  0.5291670000000 1.0
C      1  0.4744320000000  0.5896770000000  0.4844510000000 1.0
C      1  0.5259490000000  0.3985940000000  0.5153950000000 1.0
C      1  0.5001010000000  0.3992750000000  0.4712280000000 1.0
C      1  0.4747890000000  0.4002760000000  0.5141300000000 1.0
C      1  0.5248110000000  0.5873910000000  0.5149680000000 1.0
C      1  0.4991040000000  0.5898480000000  0.4703050000000 1.0
C      1  0.4766460000000  0.5883140000000  0.5130180000000 1.0
C      1  0.5865330000000  0.4366340000000  0.5263410000000 1.0
C      1  0.4360010000000  0.4375100000000  0.5629380000000 1.0
C      1  0.4794440000000  0.4375940000000  0.4180330000000 1.0
C      1  0.5885370000000  0.5638170000000  0.5267290000000 1.0
C      1  0.4382240000000  0.5635180000000  0.5627380000000 1.0
C      1  0.4753400000000  0.5639510000000  0.4087250000000 1.0
C      1  0.5784760000000  0.4381580000000  0.4795930000000 1.0
C      1  0.4370180000000  0.4370490000000  0.4398160000000 1.0
C      1  0.4789800000000  0.4369890000000  0.5816760000000 1.0
C      1  0.5847180000000  0.5635200000000  0.4778550000000 1.0
C      1  0.4323910000000  0.5637380000000  0.4336280000000 1.0
C      1  0.4788220000000  0.5633760000000  0.5904080000000 1.0
C      1  0.4380680000000  0.4352250000000  0.4687780000000 1.0
C      1  0.5532080000000  0.4361000000000  0.4653590000000 1.0
C      1  0.5016050000000  0.4351850000000  0.5624820000000 1.0
C      1  0.4289560000000  0.5693020000000  0.4630570000000 1.0
C      1  0.5606510000000  0.5669510000000  0.4610520000000 1.0
C      1  0.5058490000000  0.5683030000000  0.5783300000000 1.0
C      1  0.4394260000000  0.4336280000000  0.5341480000000 1.0
C      1  0.5615880000000  0.4335790000000  0.5408120000000 1.0
C      1  0.5055960000000  0.4341290000000  0.4303730000000 1.0
C      1  0.4353410000000  0.5677550000000  0.5335100000000 1.0
C      1  0.5645570000000  0.5680510000000  0.5440510000000 1.0
C      1  0.5029480000000  0.5700900000000  0.4198230000000 1.0
C      1  0.4271080000000  0.5251380000000  0.5286710000000 1.0
C      1  0.5102560000000  0.5258520000000  0.4162800000000 1.0
C      1  0.5644710000000  0.5236250000000  0.5521450000000 1.0
C      1  0.4327450000000  0.4778670000000  0.5292180000000 1.0
C      1  0.5090540000000  0.4791530000000  0.4241920000000 1.0
C      1  0.5627890000000  0.4770650000000  0.5487500000000 1.0
C      1  0.4230010000000  0.5248960000000  0.4678180000000 1.0
C      1  0.5131050000000  0.5239110000000  0.5813050000000 1.0
C      1  0.5609740000000  0.5241430000000  0.4518760000000 1.0
C      1  0.4270330000000  0.4781610000000  0.4699730000000 1.0
C      1  0.5112180000000  0.4768440000000  0.5758450000000 1.0
C      1  0.5617930000000  0.4781960000000  0.4536410000000 1.0
C      1  0.4675860000000  0.4649550000000  0.5874210000000 1.0
C      1  0.4392820000000  0.4646090000000  0.4267380000000 1.0
C      1  0.5910810000000  0.4651930000000  0.4871930000000 1.0
C      1  0.4674200000000  0.5346460000000  0.5908410000000 1.0
C      1  0.4370060000000  0.5349390000000  0.4231330000000 1.0
C      1  0.5929610000000  0.5353480000000  0.4867080000000 1.0
C      1  0.4661770000000  0.4647440000000  0.4130170000000 1.0
C      1  0.4407950000000  0.4655790000000  0.5738940000000 1.0
C      1  0.5947200000000  0.4647150000000  0.5171070000000 1.0
C      1  0.4639570000000  0.5351090000000  0.4077270000000 1.0
C      1  0.4420400000000  0.5350590000000  0.5736130000000 1.0
C      1  0.5953670000000  0.5352510000000  0.5172780000000 1.0
C      1  0.5369100000000  0.5648940000000  0.4769950000000 1.0
C      1  0.4999770000000  0.5681070000000  0.5499640000000 1.0
C      1  0.4558550000000  0.5702310000000  0.4737370000000 1.0
C      1  0.5237950000000  0.4387550000000  0.4776000000000 1.0
C      1  0.4926090000000  0.4394620000000  0.5319170000000 1.0
C      1  0.4642970000000  0.4329670000000  0.4784830000000 1.0
C      1  0.5426640000000  0.5670780000000  0.5251470000000 1.0
C      1  0.4989460000000  0.5711750000000  0.4485210000000 1.0
C      1  0.4609880000000  0.5661850000000  0.5207260000000 1.0
C      1  0.5403160000000  0.4299480000000  0.5235530000000 1.0
C      1  0.5088720000000  0.4220730000000  0.4557430000000 1.0
C      1  0.4656720000000  0.4238960000000  0.5286670000000 1.0
C      1  0.4515410000000  0.5188440000000  0.4738780000000 1.0
C      1  0.5403470000000  0.5163730000000  0.4717230000000 1.0
C      1  0.5049640000000  0.5177170000000  0.5536660000000 1.0
C      1  0.4531170000000  0.4900600000000  0.4752670000000 1.0
C      1  0.5427770000000  0.4884710000000  0.4730280000000 1.0
C      1  0.5044540000000  0.4896480000000  0.5504520000000 1.0
C      1  0.4542000000000  0.5186030000000  0.5199200000000 1.0
C      1  0.5448690000000  0.5163240000000  0.5311820000000 1.0
C      1  0.5030550000000  0.5209940000000  0.4444670000000 1.0
C      1  0.4563600000000  0.4911350000000  0.5205950000000 1.0
C      1  0.5438270000000  0.4878100000000  0.5291330000000 1.0
C      1  0.5033170000000  0.4933330000000  0.4488130000000 1.0
C      1  0.4270680000000  0.4530680000000  0.5155430000000 1.0
C      1  0.5251900000000  0.4555220000000  0.4265340000000 1.0
C      1  0.5530660000000  0.4527630000000  0.5608040000000 1.0
C      1  0.4187240000000  0.5497210000000  0.5166690000000 1.0
C      1  0.5258530000000  0.5504310000000  0.4174090000000 1.0
C      1  0.5560010000000  0.5485550000000  0.5654650000000 1.0
C      1  0.4233350000000  0.4538580000000  0.4855790000000 1.0
C      1  0.5250650000000  0.4519010000000  0.5709280000000 1.0
C      1  0.5508590000000  0.4545210000000  0.4415970000000 1.0
C      1  0.4156410000000  0.5495620000000  0.4815650000000 1.0
C      1  0.5287850000000  0.5487890000000  0.5811990000000 1.0
C      1  0.5543150000000  0.5487830000000  0.4384700000000 1.0
C      1  0.4281080000000  0.5153520000000  0.5573130000000 1.0
C      1  0.4850380000000  0.5150170000000  0.4034120000000 1.0
C      1  0.5897800000000  0.5149140000000  0.5377020000000 1.0
C      1  0.4295440000000  0.4861770000000  0.5573630000000 1.0
C      1  0.4851330000000  0.4859090000000  0.4075040000000 1.0
C      1  0.5888610000000  0.4855420000000  0.5365490000000 1.0
C      1  0.4225160000000  0.5147140000000  0.4390940000000 1.0
C      1  0.4880920000000  0.5142410000000  0.5955050000000 1.0
C      1  0.5861850000000  0.5153640000000  0.4666450000000 1.0
C      1  0.4242520000000  0.4852820000000  0.4407540000000 1.0
C      1  0.4878140000000  0.4849630000000  0.5926430000000 1.0
C      1  0.5872770000000  0.4859770000000  0.4672190000000 1.0
C      1  0.4563940000000  0.5790270000000  0.5795380000000 1.0
C      1  0.4548750000000  0.4213210000000  0.5782220000000 1.0
C      1  0.4520540000000  0.5792950000000  0.4181990000000 1.0
C      1  0.4568910000000  0.4211670000000  0.4258110000000 1.0
C      1  0.5898950000000  0.5793490000000  0.5018170000000 1.0
C      1  0.5867180000000  0.4213060000000  0.5015410000000 1.0
C      1  0.4979820000000  0.5337990000000  0.4968250000000 1.0
C      1  0.5033100000000  0.4327260000000  0.5016730000000 1.0
END
