TITL C-3201379-3821-1372 44856.3609635361 125000 -1033.34558882542 0 0 170 (C1) n - 1
REM
REM in /home/nfs/bkarasulu/CARBON/AIRSS/Generating-Clusters/LCBOP/Higher-Symm/SD-CG/FIRE-CG
REM
REM
REM
REM
REM
REM ./C.cell (b20cbc046b6831c77cfcea5457e17084)
REM AIRSS Version 0.9.1 bugfix July 2018 build 013d7b7c2542+ Fri, 06 Jul 2018 19:26:36 +0100
REM compiler GCC version 9.2.1 20190827 (Red Hat 9.2.1-1)
REM options -cpp -mtune=generic -march=x86-64 -g -O0 -fpre-include=/usr/include/finclude/math-vector-fortran.h
REM seed 913181302 1503177862 -1631487877 -1341513543 1518229982 -1077420937 1135288176 -1324803579 1227814235 1200140972 816684537 189274294 753969284 -1098120996 99794596 692984767 -2047555616 1356042673 -1864364464 672080682 432946371 1115812821 -174402623 -1359737909 -1464890362 -543359346 756278587 -1389842691 -734043302 7032596 1040871809 -883371291 1842108316
REM
CELL 1.54180   50.00000   50.00000   50.00000   90.00000   90.00000   90.00000
LATT -1
SFAC C  
C      1  0.5204360000000  0.4053780000000  0.4495880000000 1.0
C      1  0.4099830000000  0.5220700000000  0.4356300000000 1.0
C      1  0.5736720000000  0.5719210000000  0.4592290000000 1.0
C      1  0.4532030000000  0.5420350000000  0.4277170000000 1.0
C      1  0.5663270000000  0.5329480000000  0.4294990000000 1.0
C      1  0.4903790000000  0.4321220000000  0.4261470000000 1.0
C      1  0.4508670000000  0.5090120000000  0.4987830000000 1.0
C      1  0.5467010000000  0.5475320000000  0.4928770000000 1.0
C      1  0.5243090000000  0.4474560000000  0.4977880000000 1.0
C      1  0.5555900000000  0.5506830000000  0.5178020000000 1.0
C      1  0.5293070000000  0.4336980000000  0.5226130000000 1.0
C      1  0.4254620000000  0.5207890000000  0.5032070000000 1.0
C      1  0.6333180000000  0.5830680000000  0.5390250000000 1.0
C      1  0.5054820000000  0.3563480000000  0.5652010000000 1.0
C      1  0.3506590000000  0.5570110000000  0.5353430000000 1.0
C      1  0.4526890000000  0.4405780000000  0.5170530000000 1.0
C      1  0.4602770000000  0.5511560000000  0.5117590000000 1.0
C      1  0.5774220000000  0.4826220000000  0.4967330000000 1.0
C      1  0.4648180000000  0.5018080000000  0.3958120000000 1.0
C      1  0.5155580000000  0.5179000000000  0.3916740000000 1.0
C      1  0.5119420000000  0.4921340000000  0.3783720000000 1.0
C      1  0.4727340000000  0.4545380000000  0.4657630000000 1.0
C      1  0.4792640000000  0.5403310000000  0.4669290000000 1.0
C      1  0.5534980000000  0.4960580000000  0.4572330000000 1.0
C      1  0.5130160000000  0.4904540000000  0.5715930000000 1.0
C      1  0.4909200000000  0.5088140000000  0.5641350000000 1.0
C      1  0.5030620000000  0.5342370000000  0.5676730000000 1.0
C      1  0.5700250000000  0.4553150000000  0.4872150000000 1.0
C      1  0.4422530000000  0.4697740000000  0.5161630000000 1.0
C      1  0.5205790000000  0.5849910000000  0.4894660000000 1.0
C      1  0.4892190000000  0.4437210000000  0.3996150000000 1.0
C      1  0.4682580000000  0.5562900000000  0.4088530000000 1.0
C      1  0.5594360000000  0.5246170000000  0.4025570000000 1.0
C      1  0.4617380000000  0.4463330000000  0.3903970000000 1.0
C      1  0.4924410000000  0.5642470000000  0.3999380000000 1.0
C      1  0.5580090000000  0.4936180000000  0.3990290000000 1.0
C      1  0.5911060000000  0.4402960000000  0.4747720000000 1.0
C      1  0.3920070000000  0.4663590000000  0.4759590000000 1.0
C      1  0.5102630000000  0.6108940000000  0.4871150000000 1.0
C      1  0.5530310000000  0.5825330000000  0.4412830000000 1.0
C      1  0.5400020000000  0.4213810000000  0.4325780000000 1.0
C      1  0.4157630000000  0.5011600000000  0.4161110000000 1.0
C      1  0.4440730000000  0.4823270000000  0.4905150000000 1.0
C      1  0.5242970000000  0.5590320000000  0.4806180000000 1.0
C      1  0.5439370000000  0.4528150000000  0.4774450000000 1.0
C      1  0.5750990000000  0.5016920000000  0.4756070000000 1.0
C      1  0.4677980000000  0.4323310000000  0.4840400000000 1.0
C      1  0.4586810000000  0.5524630000000  0.4832060000000 1.0
C      1  0.4262080000000  0.4255380000000  0.5188640000000 1.0
C      1  0.4712820000000  0.5972170000000  0.5313650000000 1.0
C      1  0.6043670000000  0.4774000000000  0.5085160000000 1.0
C      1  0.5258930000000  0.3937020000000  0.4751590000000 1.0
C      1  0.3914770000000  0.5123530000000  0.4545180000000 1.0
C      1  0.5766800000000  0.5859800000000  0.4853420000000 1.0
C      1  0.4555750000000  0.4768620000000  0.4654570000000 1.0
C      1  0.5071560000000  0.5447550000000  0.4627590000000 1.0
C      1  0.5393760000000  0.4706380000000  0.4542350000000 1.0
C      1  0.5702390000000  0.5512160000000  0.5628780000000 1.0
C      1  0.5180800000000  0.4280010000000  0.5705460000000 1.0
C      1  0.4250450000000  0.5192170000000  0.5779310000000 1.0
C      1  0.4424590000000  0.5911950000000  0.4633530000000 1.0
C      1  0.6144110000000  0.5040190000000  0.4502460000000 1.0
C      1  0.4407280000000  0.4087450000000  0.4540100000000 1.0
C      1  0.5296270000000  0.5152040000000  0.6128840000000 1.0
C      1  0.4987610000000  0.4802120000000  0.6237540000000 1.0
C      1  0.4875630000000  0.5261500000000  0.6141530000000 1.0
C      1  0.4364710000000  0.5628880000000  0.4653530000000 1.0
C      1  0.5945760000000  0.5204600000000  0.4633330000000 1.0
C      1  0.4682950000000  0.4095080000000  0.4637540000000 1.0
C      1  0.4635760000000  0.4385800000000  0.5693200000000 1.0
C      1  0.4476810000000  0.5544970000000  0.5595040000000 1.0
C      1  0.5669010000000  0.5045960000000  0.5522920000000 1.0
C      1  0.5124420000000  0.6271920000000  0.5100020000000 1.0
C      1  0.6068370000000  0.4237310000000  0.4913030000000 1.0
C      1  0.3773650000000  0.4540860000000  0.4969090000000 1.0
C      1  0.4603210000000  0.4969700000000  0.4455520000000 1.0
C      1  0.5195780000000  0.5294100000000  0.4420470000000 1.0
C      1  0.5146300000000  0.4700730000000  0.4398070000000 1.0
C      1  0.5049740000000  0.5980390000000  0.4409930000000 1.0
C      1  0.5831510000000  0.4490630000000  0.4286230000000 1.0
C      1  0.4107640000000  0.4551440000000  0.4310940000000 1.0
C      1  0.4654250000000  0.5082200000000  0.6065840000000 1.0
C      1  0.5335000000000  0.5426570000000  0.6029510000000 1.0
C      1  0.5142780000000  0.4565370000000  0.6169660000000 1.0
C      1  0.5558980000000  0.4437220000000  0.4191600000000 1.0
C      1  0.4202340000000  0.4725250000000  0.4111130000000 1.0
C      1  0.5274400000000  0.5829600000000  0.4278710000000 1.0
C      1  0.4934790000000  0.4522370000000  0.4461190000000 1.0
C      1  0.4663340000000  0.5249440000000  0.4470730000000 1.0
C      1  0.5456590000000  0.5200020000000  0.4451300000000 1.0
C      1  0.6178030000000  0.4769540000000  0.4590910000000 1.0
C      1  0.4190190000000  0.4225610000000  0.4669970000000 1.0
C      1  0.4644110000000  0.6039450000000  0.4766030000000 1.0
C      1  0.5860480000000  0.5767990000000  0.5541480000000 1.0
C      1  0.5127680000000  0.4032200000000  0.5543160000000 1.0
C      1  0.3793960000000  0.5225750000000  0.5171540000000 1.0
C      1  0.5660120000000  0.5949310000000  0.5401440000000 1.0
C      1  0.5210210000000  0.4061580000000  0.5261350000000 1.0
C      1  0.3988440000000  0.5111030000000  0.5007230000000 1.0
C      1  0.4772630000000  0.4539370000000  0.5894980000000 1.0
C      1  0.4619780000000  0.5511900000000  0.5848530000000 1.0
C      1  0.5581400000000  0.5092420000000  0.5792670000000 1.0
C      1  0.5344220000000  0.4977420000000  0.5898980000000 1.0
C      1  0.4736290000000  0.4793870000000  0.6062500000000 1.0
C      1  0.4996100000000  0.5520160000000  0.5880910000000 1.0
C      1  0.5343700000000  0.4460150000000  0.5507170000000 1.0
C      1  0.4250810000000  0.4938030000000  0.5642870000000 1.0
C      1  0.5452170000000  0.5550540000000  0.5457010000000 1.0
C      1  0.5093710000000  0.5155710000000  0.4197230000000 1.0
C      1  0.5007210000000  0.4901430000000  0.4254560000000 1.0
C      1  0.4728580000000  0.4902150000000  0.4207570000000 1.0
C      1  0.3813360000000  0.4419390000000  0.5204610000000 1.0
C      1  0.5089020000000  0.6223830000000  0.5366090000000 1.0
C      1  0.6147080000000  0.4312450000000  0.5162090000000 1.0
C      1  0.4066950000000  0.4464750000000  0.5607730000000 1.0
C      1  0.5105150000000  0.5821390000000  0.5668990000000 1.0
C      1  0.5881590000000  0.4536100000000  0.5495680000000 1.0
C      1  0.5443460000000  0.4652960000000  0.4014370000000 1.0
C      1  0.4392260000000  0.4647660000000  0.3899270000000 1.0
C      1  0.5211650000000  0.5646850000000  0.4048610000000 1.0
C      1  0.4713050000000  0.4438550000000  0.5421990000000 1.0
C      1  0.4602290000000  0.5396160000000  0.5380370000000 1.0
C      1  0.5476320000000  0.4924950000000  0.5350190000000 1.0
C      1  0.5393080000000  0.5839250000000  0.5519910000000 1.0
C      1  0.5632310000000  0.4475310000000  0.5570540000000 1.0
C      1  0.4109720000000  0.4707420000000  0.5712110000000 1.0
C      1  0.4486800000000  0.4890750000000  0.3782880000000 1.0
C      1  0.5351980000000  0.5399080000000  0.3928850000000 1.0
C      1  0.5159330000000  0.4646970000000  0.3897910000000 1.0
C      1  0.3928210000000  0.4956450000000  0.4771450000000 1.0
C      1  0.5712330000000  0.5963330000000  0.5107310000000 1.0
C      1  0.5223090000000  0.3914550000000  0.5019640000000 1.0
C      1  0.5580650000000  0.5387570000000  0.5871930000000 1.0
C      1  0.5051800000000  0.4422640000000  0.5931740000000 1.0
C      1  0.4476280000000  0.5263980000000  0.5949300000000 1.0
C      1  0.6057710000000  0.4557720000000  0.5278560000000 1.0
C      1  0.4044980000000  0.4350770000000  0.5353540000000 1.0
C      1  0.4940450000000  0.6004750000000  0.5490200000000 1.0
C      1  0.5025470000000  0.4651120000000  0.4949140000000 1.0
C      1  0.4786510000000  0.5051520000000  0.5067130000000 1.0
C      1  0.5232440000000  0.5055730000000  0.4896400000000 1.0
C      1  0.6244230000000  0.4771310000000  0.4876000000000 1.0
C      1  0.4171850000000  0.4148670000000  0.4941540000000 1.0
C      1  0.4631660000000  0.6032230000000  0.5059030000000 1.0
C      1  0.6097710000000  0.5391200000000  0.5392840000000 1.0
C      1  0.4706490000000  0.3892570000000  0.5727300000000 1.0
C      1  0.3957520000000  0.5509920000000  0.5517760000000 1.0
C      1  0.4666460000000  0.5111620000000  0.5474850000000 1.0
C      1  0.5155620000000  0.5283150000000  0.5254320000000 1.0
C      1  0.4916060000000  0.4645740000000  0.5386410000000 1.0
C      1  0.4565180000000  0.4119540000000  0.5752770000000 1.0
C      1  0.4200610000000  0.5442820000000  0.5630910000000 1.0
C      1  0.5854750000000  0.5271200000000  0.5481620000000 1.0
C      1  0.5202610000000  0.4721730000000  0.5496560000000 1.0
C      1  0.4451840000000  0.4910050000000  0.5436060000000 1.0
C      1  0.5216620000000  0.5396330000000  0.5484550000000 1.0
C      1  0.4868180000000  0.4779140000000  0.5147920000000 1.0
C      1  0.5020790000000  0.5206190000000  0.5038750000000 1.0
C      1  0.5421650000000  0.5016290000000  0.5102060000000 1.0
C      1  0.4965170000000  0.3820910000000  0.5641330000000 1.0
C      1  0.3744630000000  0.5437040000000  0.5350060000000 1.0
C      1  0.6115400000000  0.5675510000000  0.5437220000000 1.0
C      1  0.6005210000000  0.4540580000000  0.4510260000000 1.0
C      1  0.4066730000000  0.4477550000000  0.4581110000000 1.0
C      1  0.4912820000000  0.6083380000000  0.4652050000000 1.0
C      1  0.4913040000000  0.4086210000000  0.4435840000000 1.0
C      1  0.4274730000000  0.5456760000000  0.4413420000000 1.0
C      1  0.5834060000000  0.5448650000000  0.4504700000000 1.0
C      1  0.5064830000000  0.5082560000000  0.6264030000000 1.0
C      1  0.5079120000000  0.4863410000000  0.4779040000000 1.0
END
