TITL C-3201375-1262-758 -15740.6280434278 125000 -1160.31273232064 0 0 191 (C1) n - 1
REM
REM in /home/nfs/bkarasulu/CARBON/AIRSS/Generating-Clusters/LCBOP/Higher-Symm/SD-CG/FIRE-CG
REM
REM
REM
REM
REM
REM ./C.cell (b20cbc046b6831c77cfcea5457e17084)
REM AIRSS Version 0.9.1 bugfix July 2018 build 013d7b7c2542+ Fri, 06 Jul 2018 19:26:36 +0100
REM compiler GCC version 9.2.1 20190827 (Red Hat 9.2.1-1)
REM options -cpp -mtune=generic -march=x86-64 -g -O0 -fpre-include=/usr/include/finclude/math-vector-fortran.h
REM seed -1661081912 -1363026741 849899189 -1274033213 743577062 -640006889 -101610389 781814153 -328509925 -1533254648 1063528236 1682502188 -538473370 200812608 -1161643271 553111884 9977398 -630582328 1513002364 -1309670738 -1757967700 -297436592 1957497748 -2078849651 1620522933 1329180397 1242836996 71510905 967394069 608592295 2035282696 1832123114 -421098137
REM
CELL 1.54180   50.00000   50.00000   50.00000   90.00000   90.00000   90.00000
LATT -1
SFAC C  
C      1  0.4634490000000  0.5506220000000  0.4118140000000 1.0
C      1  0.4748210000000  0.4646440000000  0.4111370000000 1.0
C      1  0.5270410000000  0.5737060000000  0.5920310000000 1.0
C      1  0.4961390000000  0.4505580000000  0.6060710000000 1.0
C      1  0.5385710000000  0.4276910000000  0.4802490000000 1.0
C      1  0.5249510000000  0.5683270000000  0.4640460000000 1.0
C      1  0.4667130000000  0.5241680000000  0.5058770000000 1.0
C      1  0.4514770000000  0.4768410000000  0.5088620000000 1.0
C      1  0.4110770000000  0.4275160000000  0.5133140000000 1.0
C      1  0.4161010000000  0.5588620000000  0.5487600000000 1.0
C      1  0.5165540000000  0.5503960000000  0.4113170000000 1.0
C      1  0.5277760000000  0.4652630000000  0.4269630000000 1.0
C      1  0.4399650000000  0.5912410000000  0.5151210000000 1.0
C      1  0.4495460000000  0.4007810000000  0.4985870000000 1.0
C      1  0.4892230000000  0.5455570000000  0.4054690000000 1.0
C      1  0.5022420000000  0.4665060000000  0.4155310000000 1.0
C      1  0.4154580000000  0.5483220000000  0.5738150000000 1.0
C      1  0.3853760000000  0.4258840000000  0.5173180000000 1.0
C      1  0.4934640000000  0.4054580000000  0.4772230000000 1.0
C      1  0.4780360000000  0.5996970000000  0.4819860000000 1.0
C      1  0.5013040000000  0.5398710000000  0.5035370000000 1.0
C      1  0.5082260000000  0.4599040000000  0.5039840000000 1.0
C      1  0.4608600000000  0.5622050000000  0.5975810000000 1.0
C      1  0.4239720000000  0.4341150000000  0.5764810000000 1.0
C      1  0.4084780000000  0.4375410000000  0.4009980000000 1.0
C      1  0.4158680000000  0.5564630000000  0.4696350000000 1.0
C      1  0.5511440000000  0.5815130000000  0.4255070000000 1.0
C      1  0.5699800000000  0.4423700000000  0.4141940000000 1.0
C      1  0.5566030000000  0.5349730000000  0.5234230000000 1.0
C      1  0.6013010000000  0.4753900000000  0.4888490000000 1.0
C      1  0.5438980000000  0.4313730000000  0.6151570000000 1.0
C      1  0.5834480000000  0.5620810000000  0.5856560000000 1.0
C      1  0.5078690000000  0.4590230000000  0.5617300000000 1.0
C      1  0.5200850000000  0.5470550000000  0.5517630000000 1.0
C      1  0.4851870000000  0.4396650000000  0.5077940000000 1.0
C      1  0.4916030000000  0.5652880000000  0.5069780000000 1.0
C      1  0.4925660000000  0.4150440000000  0.5268240000000 1.0
C      1  0.5008740000000  0.5869520000000  0.5224850000000 1.0
C      1  0.5337820000000  0.4855890000000  0.4460690000000 1.0
C      1  0.5343360000000  0.5315070000000  0.4245690000000 1.0
C      1  0.5671730000000  0.4619090000000  0.5863120000000 1.0
C      1  0.6062780000000  0.5156620000000  0.6139000000000 1.0
C      1  0.6065390000000  0.4723900000000  0.5411830000000 1.0
C      1  0.5940290000000  0.5165200000000  0.5505270000000 1.0
C      1  0.5433040000000  0.4522990000000  0.5974720000000 1.0
C      1  0.5647530000000  0.5496420000000  0.5699420000000 1.0
C      1  0.4158970000000  0.5548990000000  0.4965230000000 1.0
C      1  0.3824290000000  0.4383250000000  0.4003650000000 1.0
C      1  0.5792430000000  0.5384470000000  0.4521660000000 1.0
C      1  0.6024000000000  0.4526590000000  0.4702610000000 1.0
C      1  0.4817130000000  0.4703310000000  0.5549570000000 1.0
C      1  0.4897140000000  0.5257620000000  0.5576850000000 1.0
C      1  0.4493850000000  0.4345930000000  0.5670870000000 1.0
C      1  0.4686260000000  0.5685870000000  0.5715470000000 1.0
C      1  0.4549220000000  0.6060890000000  0.4977770000000 1.0
C      1  0.4709910000000  0.3894730000000  0.4856830000000 1.0
C      1  0.4863120000000  0.5906710000000  0.5700670000000 1.0
C      1  0.4708530000000  0.4177280000000  0.5755740000000 1.0
C      1  0.5370050000000  0.5564830000000  0.5289780000000 1.0
C      1  0.5273920000000  0.4430850000000  0.5483850000000 1.0
C      1  0.5686330000000  0.5739290000000  0.4951130000000 1.0
C      1  0.5971320000000  0.4346930000000  0.5113330000000 1.0
C      1  0.4736380000000  0.4535410000000  0.4622430000000 1.0
C      1  0.4801420000000  0.5426030000000  0.4649120000000 1.0
C      1  0.4740290000000  0.4812630000000  0.4650470000000 1.0
C      1  0.4583820000000  0.5249510000000  0.4758130000000 1.0
C      1  0.4692870000000  0.5474600000000  0.5518160000000 1.0
C      1  0.4600400000000  0.4522080000000  0.5477860000000 1.0
C      1  0.5053650000000  0.6118690000000  0.4861180000000 1.0
C      1  0.5201890000000  0.4072020000000  0.4892360000000 1.0
C      1  0.4573900000000  0.4483480000000  0.5177500000000 1.0
C      1  0.4551300000000  0.5441050000000  0.5263520000000 1.0
C      1  0.5654620000000  0.5358370000000  0.4233130000000 1.0
C      1  0.6091100000000  0.4511120000000  0.4434550000000 1.0
C      1  0.5366950000000  0.5540980000000  0.5743760000000 1.0
C      1  0.5170250000000  0.4658790000000  0.5900680000000 1.0
C      1  0.5953710000000  0.4449300000000  0.4214930000000 1.0
C      1  0.5688550000000  0.5639010000000  0.4123040000000 1.0
C      1  0.5720810000000  0.5627310000000  0.4680860000000 1.0
C      1  0.5906320000000  0.4295980000000  0.4838110000000 1.0
C      1  0.4589070000000  0.5931280000000  0.4314070000000 1.0
C      1  0.4788400000000  0.4166110000000  0.4067350000000 1.0
C      1  0.4624150000000  0.4393800000000  0.4065410000000 1.0
C      1  0.4469640000000  0.5677810000000  0.4273600000000 1.0
C      1  0.5365000000000  0.4211770000000  0.5352720000000 1.0
C      1  0.5447000000000  0.5800210000000  0.5114660000000 1.0
C      1  0.5729890000000  0.5340570000000  0.5468570000000 1.0
C      1  0.6030640000000  0.4626400000000  0.5155650000000 1.0
C      1  0.4349260000000  0.4372420000000  0.4025100000000 1.0
C      1  0.4264060000000  0.5601440000000  0.4451670000000 1.0
C      1  0.5427890000000  0.4420610000000  0.4197780000000 1.0
C      1  0.5231770000000  0.5773330000000  0.4189230000000 1.0
C      1  0.4837290000000  0.4273030000000  0.5990010000000 1.0
C      1  0.5068760000000  0.5913660000000  0.5893990000000 1.0
C      1  0.5482170000000  0.5244260000000  0.4975180000000 1.0
C      1  0.5425100000000  0.4791120000000  0.4730250000000 1.0
C      1  0.4844770000000  0.5975910000000  0.4383720000000 1.0
C      1  0.5039890000000  0.4085570000000  0.4105670000000 1.0
C      1  0.5654170000000  0.4207660000000  0.4759820000000 1.0
C      1  0.5512940000000  0.5763650000000  0.4542600000000 1.0
C      1  0.5191720000000  0.4066080000000  0.5179650000000 1.0
C      1  0.5222820000000  0.5988580000000  0.5065630000000 1.0
C      1  0.4911850000000  0.6002750000000  0.5446100000000 1.0
C      1  0.4838720000000  0.4067880000000  0.5526530000000 1.0
C      1  0.5076500000000  0.5826470000000  0.4432900000000 1.0
C      1  0.5282600000000  0.4182510000000  0.4159300000000 1.0
C      1  0.4818950000000  0.4321770000000  0.4779010000000 1.0
C      1  0.4804280000000  0.5702110000000  0.4801010000000 1.0
C      1  0.4308270000000  0.5623880000000  0.5218380000000 1.0
C      1  0.4386940000000  0.4251710000000  0.5095900000000 1.0
C      1  0.5312060000000  0.4553390000000  0.4860900000000 1.0
C      1  0.5254870000000  0.5410120000000  0.4873660000000 1.0
C      1  0.3733570000000  0.5111070000000  0.5847500000000 1.0
C      1  0.5920070000000  0.4811530000000  0.3796890000000 1.0
C      1  0.4250680000000  0.4872420000000  0.5101650000000 1.0
C      1  0.3856860000000  0.5144430000000  0.6319900000000 1.0
C      1  0.3380660000000  0.4932490000000  0.4550510000000 1.0
C      1  0.5215090000000  0.4967150000000  0.5864150000000 1.0
C      1  0.4015280000000  0.4885070000000  0.4934300000000 1.0
C      1  0.5262970000000  0.5114260000000  0.3792890000000 1.0
C      1  0.5192920000000  0.4719410000000  0.3559520000000 1.0
C      1  0.5471670000000  0.4654150000000  0.3552710000000 1.0
C      1  0.3825070000000  0.5113220000000  0.3967720000000 1.0
C      1  0.6450670000000  0.4962680000000  0.4055510000000 1.0
C      1  0.4604310000000  0.4888850000000  0.4103030000000 1.0
C      1  0.3863990000000  0.4917300000000  0.4682970000000 1.0
C      1  0.6708730000000  0.5169610000000  0.4608760000000 1.0
C      1  0.3802520000000  0.4900900000000  0.5141490000000 1.0
C      1  0.4187560000000  0.4959780000000  0.5381780000000 1.0
C      1  0.4169800000000  0.5033140000000  0.4263060000000 1.0
C      1  0.4062380000000  0.5093910000000  0.6487100000000 1.0
C      1  0.4627420000000  0.5379580000000  0.6114370000000 1.0
C      1  0.4373660000000  0.5262300000000  0.6161430000000 1.0
C      1  0.3925510000000  0.4986400000000  0.4412740000000 1.0
C      1  0.5135570000000  0.4537170000000  0.6784910000000 1.0
C      1  0.5647620000000  0.4824080000000  0.3698300000000 1.0
C      1  0.4967440000000  0.5154890000000  0.5848220000000 1.0
C      1  0.4422390000000  0.5010680000000  0.5537960000000 1.0
C      1  0.5585630000000  0.4999490000000  0.4858120000000 1.0
C      1  0.5120690000000  0.5217370000000  0.6264170000000 1.0
C      1  0.5599760000000  0.5038660000000  0.6227120000000 1.0
C      1  0.4733540000000  0.4846920000000  0.6648890000000 1.0
C      1  0.3898260000000  0.4963590000000  0.5405610000000 1.0
C      1  0.5836950000000  0.5018860000000  0.6067180000000 1.0
C      1  0.5960800000000  0.5166440000000  0.4599010000000 1.0
C      1  0.4734950000000  0.4994660000000  0.5474540000000 1.0
C      1  0.5307010000000  0.4981270000000  0.5556140000000 1.0
C      1  0.5214970000000  0.4972430000000  0.5297570000000 1.0
C      1  0.5012610000000  0.5199360000000  0.4589740000000 1.0
C      1  0.3442920000000  0.4995670000000  0.4296130000000 1.0
C      1  0.4109680000000  0.5110980000000  0.3983780000000 1.0
C      1  0.3423270000000  0.5001410000000  0.5488080000000 1.0
C      1  0.4439260000000  0.4983840000000  0.4324540000000 1.0
C      1  0.5843040000000  0.4838920000000  0.5845230000000 1.0
C      1  0.4583730000000  0.5013420000000  0.3844770000000 1.0
C      1  0.5661460000000  0.4984050000000  0.6766280000000 1.0
C      1  0.5869070000000  0.4984520000000  0.4801740000000 1.0
C      1  0.5730870000000  0.5151380000000  0.4034700000000 1.0
C      1  0.5011570000000  0.4893000000000  0.5068360000000 1.0
C      1  0.4711220000000  0.5093120000000  0.3388930000000 1.0
C      1  0.4733080000000  0.4973940000000  0.5167410000000 1.0
C      1  0.6924330000000  0.4997200000000  0.4210230000000 1.0
C      1  0.6442800000000  0.5171830000000  0.4584070000000 1.0
C      1  0.5066350000000  0.4948400000000  0.3673180000000 1.0
C      1  0.6716940000000  0.4943430000000  0.4048100000000 1.0
C      1  0.6203730000000  0.5028620000000  0.4174980000000 1.0
C      1  0.5562740000000  0.4437570000000  0.3413600000000 1.0
C      1  0.5232940000000  0.5125870000000  0.4419970000000 1.0
C      1  0.3345630000000  0.4953630000000  0.5232060000000 1.0
C      1  0.3572720000000  0.4909590000000  0.4752570000000 1.0
C      1  0.5628060000000  0.5007890000000  0.6504560000000 1.0
C      1  0.4881470000000  0.5253640000000  0.6106190000000 1.0
C      1  0.4322390000000  0.5117360000000  0.3801360000000 1.0
C      1  0.3688840000000  0.5021200000000  0.5590290000000 1.0
C      1  0.5974040000000  0.5000060000000  0.4014180000000 1.0
C      1  0.3707080000000  0.5034590000000  0.4214960000000 1.0
C      1  0.4789080000000  0.5016030000000  0.3642390000000 1.0
C      1  0.5972060000000  0.4905110000000  0.5600910000000 1.0
C      1  0.4541660000000  0.5010690000000  0.4588150000000 1.0
C      1  0.4331390000000  0.5115320000000  0.6404690000000 1.0
C      1  0.5339220000000  0.5078830000000  0.6124490000000 1.0
C      1  0.5693030000000  0.4958590000000  0.7023790000000 1.0
C      1  0.3538460000000  0.4909100000000  0.5034050000000 1.0
C      1  0.4537100000000  0.4990530000000  0.6544160000000 1.0
C      1  0.4938110000000  0.4696270000000  0.6724480000000 1.0
C      1  0.6920760000000  0.5098390000000  0.4459870000000 1.0
C      1  0.5535130000000  0.5056940000000  0.3840400000000 1.0
C      1  0.6200210000000  0.5120530000000  0.4450120000000 1.0
C      1  0.4150420000000  0.5325120000000  0.5978520000000 1.0
C      1  0.4963590000000  0.4962080000000  0.4764000000000 1.0
C      1  0.3896640000000  0.5207980000000  0.6048570000000 1.0
END
