TITL C-3201378-2706-2140 1.02761174272065 125000 -1164.96649319646 0 0 189 (C1) n - 1
REM
REM in /home/nfs/bkarasulu/CARBON/AIRSS/Generating-Clusters/LCBOP/Higher-Symm/SD-CG/FIRE-CG
REM
REM
REM
REM
REM
REM ./C.cell (b20cbc046b6831c77cfcea5457e17084)
REM AIRSS Version 0.9.1 bugfix July 2018 build 013d7b7c2542+ Fri, 06 Jul 2018 19:26:36 +0100
REM compiler GCC version 9.2.1 20190827 (Red Hat 9.2.1-1)
REM options -cpp -mtune=generic -march=x86-64 -g -O0 -fpre-include=/usr/include/finclude/math-vector-fortran.h
REM seed 786146517 -915583594 1730702917 -7780008 -874962440 1012162211 2135129059 -1436459818 105787314 -1398860968 1308211318 -209636317 2003987128 1605803867 263139918 750442061 -630178000 -507677439 -2048617061 978476108 -233744142 1656499104 1214893819 115249328 1214100315 1554192793 -1055583476 2035521452 1764919805 -312165699 -352050698 943794489 -1022619343
REM
CELL 1.54180   50.00000   50.00000   50.00000   90.00000   90.00000   90.00000
LATT -1
SFAC C  
C      1  0.4958590000000  0.3762740000000  0.4856270000000 1.0
C      1  0.5005550000000  0.5878620000000  0.4157870000000 1.0
C      1  0.5031500000000  0.4377770000000  0.3880690000000 1.0
C      1  0.5441970000000  0.4267310000000  0.5736050000000 1.0
C      1  0.2660510000000  0.6035740000000  0.3464020000000 1.0
C      1  0.5432840000000  0.5204660000000  0.5681610000000 1.0
C      1  0.4639440000000  0.4196070000000  0.5934070000000 1.0
C      1  0.4330220000000  0.4733140000000  0.4431500000000 1.0
C      1  0.4716510000000  0.5080590000000  0.4956710000000 1.0
C      1  0.4630850000000  0.3928930000000  0.5402650000000 1.0
C      1  0.5004480000000  0.4834290000000  0.4234850000000 1.0
C      1  0.5529420000000  0.4650260000000  0.4601790000000 1.0
C      1  0.5892390000000  0.4740020000000  0.4161660000000 1.0
C      1  0.5457690000000  0.5366940000000  0.5192910000000 1.0
C      1  0.5331120000000  0.5364090000000  0.5469190000000 1.0
C      1  0.5843590000000  0.5364320000000  0.4219940000000 1.0
C      1  0.5021350000000  0.6369730000000  0.4422770000000 1.0
C      1  0.5393960000000  0.5619570000000  0.5033170000000 1.0
C      1  0.4405150000000  0.5254190000000  0.4146990000000 1.0
C      1  0.4768000000000  0.6355380000000  0.4332220000000 1.0
C      1  0.5867870000000  0.4204150000000  0.4523760000000 1.0
C      1  0.5142150000000  0.5429340000000  0.4316560000000 1.0
C      1  0.4440490000000  0.4263240000000  0.6636320000000 1.0
C      1  0.4962050000000  0.4205240000000  0.5233130000000 1.0
C      1  0.6026570000000  0.4427280000000  0.4487890000000 1.0
C      1  0.6149850000000  0.5148690000000  0.5034320000000 1.0
C      1  0.5061920000000  0.5035840000000  0.3782160000000 1.0
C      1  0.5119860000000  0.4431660000000  0.5162300000000 1.0
C      1  0.5370310000000  0.4702330000000  0.6332420000000 1.0
C      1  0.5274520000000  0.6306600000000  0.4489340000000 1.0
C      1  0.4900550000000  0.5780120000000  0.3893110000000 1.0
C      1  0.4684430000000  0.3743780000000  0.4939740000000 1.0
C      1  0.5543360000000  0.3885630000000  0.5050600000000 1.0
C      1  0.5546260000000  0.5272460000000  0.6405040000000 1.0
C      1  0.5310100000000  0.3874290000000  0.5445840000000 1.0
C      1  0.4981980000000  0.5673050000000  0.5710610000000 1.0
C      1  0.5393080000000  0.4924780000000  0.5661120000000 1.0
C      1  0.5809900000000  0.5824970000000  0.5048660000000 1.0
C      1  0.4541250000000  0.6246870000000  0.4233990000000 1.0
C      1  0.4325240000000  0.5234020000000  0.4427610000000 1.0
C      1  0.5264800000000  0.4412870000000  0.4900750000000 1.0
C      1  0.4895730000000  0.4651980000000  0.6419690000000 1.0
C      1  0.5038090000000  0.3933450000000  0.4420760000000 1.0
C      1  0.5824000000000  0.5147550000000  0.4652510000000 1.0
C      1  0.5380950000000  0.5435140000000  0.4480060000000 1.0
C      1  0.5751260000000  0.5507150000000  0.5917080000000 1.0
C      1  0.4333140000000  0.5222290000000  0.5283760000000 1.0
C      1  0.3395190000000  0.6035280000000  0.3756510000000 1.0
C      1  0.5011710000000  0.5745410000000  0.4770020000000 1.0
C      1  0.5823420000000  0.4450890000000  0.4954900000000 1.0
C      1  0.3641400000000  0.6035120000000  0.3854530000000 1.0
C      1  0.5104020000000  0.4646320000000  0.5368090000000 1.0
C      1  0.3148990000000  0.6035440000000  0.3658490000000 1.0
C      1  0.4166280000000  0.4385870000000  0.6256940000000 1.0
C      1  0.4384970000000  0.5539770000000  0.5258720000000 1.0
C      1  0.5960890000000  0.4702310000000  0.4970960000000 1.0
C      1  0.5630910000000  0.4644430000000  0.4110690000000 1.0
C      1  0.5485660000000  0.4763310000000  0.5878640000000 1.0
C      1  0.5127970000000  0.5878130000000  0.5828580000000 1.0
C      1  0.5618620000000  0.4519190000000  0.5801020000000 1.0
C      1  0.4916200000000  0.4681080000000  0.5851940000000 1.0
C      1  0.2902730000000  0.6035590000000  0.3560450000000 1.0
C      1  0.6147200000000  0.4898250000000  0.4859100000000 1.0
C      1  0.5929880000000  0.5576440000000  0.5128170000000 1.0
C      1  0.5754730000000  0.4892220000000  0.5097360000000 1.0
C      1  0.5359760000000  0.5666390000000  0.3970370000000 1.0
C      1  0.5397780000000  0.3709770000000  0.5228250000000 1.0
C      1  0.4667800000000  0.4187370000000  0.5255610000000 1.0
C      1  0.4679530000000  0.4293700000000  0.4249020000000 1.0
C      1  0.5504480000000  0.6145460000000  0.4518170000000 1.0
C      1  0.4788740000000  0.4956990000000  0.4329220000000 1.0
C      1  0.4361920000000  0.4477990000000  0.4556010000000 1.0
C      1  0.5777370000000  0.5707490000000  0.4579740000000 1.0
C      1  0.4835430000000  0.5146890000000  0.4524290000000 1.0
C      1  0.4764620000000  0.4600430000000  0.4901960000000 1.0
C      1  0.4454810000000  0.5735680000000  0.5825200000000 1.0
C      1  0.4710270000000  0.4799500000000  0.6285550000000 1.0
C      1  0.5485620000000  0.4748110000000  0.3892690000000 1.0
C      1  0.5612790000000  0.4156250000000  0.4659730000000 1.0
C      1  0.5085660000000  0.5494030000000  0.5503370000000 1.0
C      1  0.4216640000000  0.5732030000000  0.5691130000000 1.0
C      1  0.4776360000000  0.5511360000000  0.3876150000000 1.0
C      1  0.4032990000000  0.4504770000000  0.6060010000000 1.0
C      1  0.4387960000000  0.4251360000000  0.6362180000000 1.0
C      1  0.5446810000000  0.3945240000000  0.4778050000000 1.0
C      1  0.5741870000000  0.4526410000000  0.5375590000000 1.0
C      1  0.4177820000000  0.4764540000000  0.5205330000000 1.0
C      1  0.4531990000000  0.5593480000000  0.4721570000000 1.0
C      1  0.3616130000000  0.4856430000000  0.5586320000000 1.0
C      1  0.5083020000000  0.4500040000000  0.6000710000000 1.0
C      1  0.4817630000000  0.4563490000000  0.3857980000000 1.0
C      1  0.4203560000000  0.4271810000000  0.4663230000000 1.0
C      1  0.5336330000000  0.4861930000000  0.4614530000000 1.0
C      1  0.4896890000000  0.5930470000000  0.4957060000000 1.0
C      1  0.5111800000000  0.4398990000000  0.4636450000000 1.0
C      1  0.5213920000000  0.5409570000000  0.4019790000000 1.0
C      1  0.6072980000000  0.5424520000000  0.4923910000000 1.0
C      1  0.5511900000000  0.4072490000000  0.5515410000000 1.0
C      1  0.5771160000000  0.5361620000000  0.5265860000000 1.0
C      1  0.5204590000000  0.5021350000000  0.4817930000000 1.0
C      1  0.5250690000000  0.4383120000000  0.4358370000000 1.0
C      1  0.4456480000000  0.4343260000000  0.5771390000000 1.0
C      1  0.4133600000000  0.6032920000000  0.4050670000000 1.0
C      1  0.6021600000000  0.4708580000000  0.4411940000000 1.0
C      1  0.4835570000000  0.4458650000000  0.4679970000000 1.0
C      1  0.5580220000000  0.5307340000000  0.4275400000000 1.0
C      1  0.5518360000000  0.6133440000000  0.5967200000000 1.0
C      1  0.4222920000000  0.6008960000000  0.5293930000000 1.0
C      1  0.4627930000000  0.4388430000000  0.4510890000000 1.0
C      1  0.3887590000000  0.6034930000000  0.3952550000000 1.0
C      1  0.4529050000000  0.5769600000000  0.4189740000000 1.0
C      1  0.5343150000000  0.4794470000000  0.5412090000000 1.0
C      1  0.4274430000000  0.4536870000000  0.5349160000000 1.0
C      1  0.5839970000000  0.4619900000000  0.5625280000000 1.0
C      1  0.5065630000000  0.3993970000000  0.5405510000000 1.0
C      1  0.4891310000000  0.4699920000000  0.5566480000000 1.0
C      1  0.5434640000000  0.5203150000000  0.4039430000000 1.0
C      1  0.5162220000000  0.3871350000000  0.4679720000000 1.0
C      1  0.4980440000000  0.5307980000000  0.3854010000000 1.0
C      1  0.4732210000000  0.4827630000000  0.6016040000000 1.0
C      1  0.4493600000000  0.5671290000000  0.4991130000000 1.0
C      1  0.5653550000000  0.5067960000000  0.4876270000000 1.0
C      1  0.5269430000000  0.5609760000000  0.4774160000000 1.0
C      1  0.5397680000000  0.5157290000000  0.4976140000000 1.0
C      1  0.4445820000000  0.6106360000000  0.5169530000000 1.0
C      1  0.5314950000000  0.6081910000000  0.5781270000000 1.0
C      1  0.4470270000000  0.3840500000000  0.4780450000000 1.0
C      1  0.4926810000000  0.5070110000000  0.4777350000000 1.0
C      1  0.4559750000000  0.4101240000000  0.6190860000000 1.0
C      1  0.4903270000000  0.5400800000000  0.4451170000000 1.0
C      1  0.4839560000000  0.4050570000000  0.4267550000000 1.0
C      1  0.4326100000000  0.5468780000000  0.4579670000000 1.0
C      1  0.5959310000000  0.4894150000000  0.5546300000000 1.0
C      1  0.4250990000000  0.4488130000000  0.5632760000000 1.0
C      1  0.5537030000000  0.5846970000000  0.5129100000000 1.0
C      1  0.4884930000000  0.4816820000000  0.3747080000000 1.0
C      1  0.4693540000000  0.5680350000000  0.5688300000000 1.0
C      1  0.4872960000000  0.5421740000000  0.5325010000000 1.0
C      1  0.5354630000000  0.6155190000000  0.5513600000000 1.0
C      1  0.4404280000000  0.4994420000000  0.4021840000000 1.0
C      1  0.5305790000000  0.5855860000000  0.4180620000000 1.0
C      1  0.4892190000000  0.4105550000000  0.5820530000000 1.0
C      1  0.4778210000000  0.5182880000000  0.5214050000000 1.0
C      1  0.4436010000000  0.5014720000000  0.4864190000000 1.0
C      1  0.5434060000000  0.6054170000000  0.5280910000000 1.0
C      1  0.4203640000000  0.5744060000000  0.5404640000000 1.0
C      1  0.4575260000000  0.5083310000000  0.5395680000000 1.0
C      1  0.4390850000000  0.6016810000000  0.4153410000000 1.0
C      1  0.4734770000000  0.3616040000000  0.6352530000000 1.0
C      1  0.4028160000000  0.4573630000000  0.5788040000000 1.0
C      1  0.5514080000000  0.5886840000000  0.4387490000000 1.0
C      1  0.4344780000000  0.4984950000000  0.4581820000000 1.0
C      1  0.5837710000000  0.5917560000000  0.4778790000000 1.0
C      1  0.4610560000000  0.4513790000000  0.4055730000000 1.0
C      1  0.4779250000000  0.5818600000000  0.4336380000000 1.0
C      1  0.4455400000000  0.4362890000000  0.5220730000000 1.0
C      1  0.5907150000000  0.5433510000000  0.4668750000000 1.0
C      1  0.5537150000000  0.5147470000000  0.6162050000000 1.0
C      1  0.4647000000000  0.3848940000000  0.6275300000000 1.0
C      1  0.5802910000000  0.4315460000000  0.5203760000000 1.0
C      1  0.4423440000000  0.4733320000000  0.4146250000000 1.0
C      1  0.4534390000000  0.5501840000000  0.4048620000000 1.0
C      1  0.4856200000000  0.3940750000000  0.5591290000000 1.0
C      1  0.4625820000000  0.5929250000000  0.5043370000000 1.0
C      1  0.5737520000000  0.5997280000000  0.6039050000000 1.0
C      1  0.5562770000000  0.4430630000000  0.4802910000000 1.0
C      1  0.4617820000000  0.3714320000000  0.5216960000000 1.0
C      1  0.4645040000000  0.5569390000000  0.5426220000000 1.0
C      1  0.5489230000000  0.4868950000000  0.6139990000000 1.0
C      1  0.5153900000000  0.4257450000000  0.5859530000000 1.0
C      1  0.4800930000000  0.5644110000000  0.4580100000000 1.0
C      1  0.5720940000000  0.6167140000000  0.4701100000000 1.0
C      1  0.4276580000000  0.4019200000000  0.4727390000000 1.0
C      1  0.5663360000000  0.4080080000000  0.5253200000000 1.0
C      1  0.5165870000000  0.4302170000000  0.4101130000000 1.0
C      1  0.4506340000000  0.4275580000000  0.6892630000000 1.0
C      1  0.3815590000000  0.4717190000000  0.5679880000000 1.0
C      1  0.4575800000000  0.4289460000000  0.7143510000000 1.0
C      1  0.5570330000000  0.5294310000000  0.5916550000000 1.0
C      1  0.4655080000000  0.4839540000000  0.5499100000000 1.0
C      1  0.6032730000000  0.4939300000000  0.4590120000000 1.0
C      1  0.5500210000000  0.4532080000000  0.4338270000000 1.0
C      1  0.5341740000000  0.4987680000000  0.3870110000000 1.0
C      1  0.5930930000000  0.5083760000000  0.5274390000000 1.0
C      1  0.5572440000000  0.4732190000000  0.5263910000000 1.0
C      1  0.5128400000000  0.4567190000000  0.6279410000000 1.0
C      1  0.5234340000000  0.4890520000000  0.4355330000000 1.0
C      1  0.4248830000000  0.5017800000000  0.5089230000000 1.0
C      1  0.5827520000000  0.5749500000000  0.5996180000000 1.0
END
