TITL C-3201374-830-341 -1.30981975420657e-06 125000 -972.060051985131 0 0 158 (C1) n - 1
REM
REM in /home/nfs/bkarasulu/CARBON/AIRSS/Generating-Clusters/LCBOP/Higher-Symm/SD-CG/FIRE-CG
REM
REM
REM
REM
REM
REM ./C.cell (b20cbc046b6831c77cfcea5457e17084)
REM AIRSS Version 0.9.1 bugfix July 2018 build 013d7b7c2542+ Fri, 06 Jul 2018 19:26:36 +0100
REM compiler GCC version 9.2.1 20190827 (Red Hat 9.2.1-1)
REM options -cpp -mtune=generic -march=x86-64 -g -O0 -fpre-include=/usr/include/finclude/math-vector-fortran.h
REM seed -363656467 -362828310 -745048062 -1216361239 1082188324 -1403633017 -564418117 590567465 -829150756 1716238131 1238713935 -606797086 1469272757 -1087590601 921226379 -1910454686 1913523186 -1226071980 1995331162 1210683738 1350216428 919898057 -190385953 1280214461 983232631 -382119462 452753382 1698242108 2127584603 1874227846 1327903600 1280582685 -2009743355
REM
CELL 1.54180   50.00000   50.00000   50.00000   90.00000   90.00000   90.00000
LATT -1
SFAC C  
C      1  0.4609030000000  0.4891760000000  0.3710130000000 1.0
C      1  0.4146550000000  0.5706050000000  0.5440260000000 1.0
C      1  0.3882210000000  0.5451530000000  0.4991940000000 1.0
C      1  0.5333260000000  0.4689550000000  0.5366340000000 1.0
C      1  0.5895010000000  0.5772500000000  0.4311450000000 1.0
C      1  0.4707860000000  0.5239340000000  0.4668540000000 1.0
C      1  0.4854530000000  0.3943040000000  0.5217170000000 1.0
C      1  0.5482660000000  0.4463450000000  0.4355770000000 1.0
C      1  0.5397010000000  0.4914140000000  0.3854070000000 1.0
C      1  0.5266970000000  0.4338160000000  0.5022230000000 1.0
C      1  0.5322170000000  0.5774230000000  0.5742990000000 1.0
C      1  0.4980370000000  0.4616270000000  0.4501160000000 1.0
C      1  0.5303800000000  0.4072780000000  0.5445240000000 1.0
C      1  0.5644490000000  0.5149170000000  0.4235740000000 1.0
C      1  0.4825010000000  0.4520140000000  0.4984130000000 1.0
C      1  0.5103080000000  0.4481170000000  0.3890400000000 1.0
C      1  0.4849190000000  0.4862790000000  0.6027710000000 1.0
C      1  0.4693150000000  0.5649670000000  0.5198750000000 1.0
C      1  0.5570730000000  0.5453510000000  0.6051130000000 1.0
C      1  0.3868060000000  0.4574050000000  0.5431540000000 1.0
C      1  0.5081440000000  0.4171590000000  0.4318420000000 1.0
C      1  0.5225490000000  0.4934080000000  0.4291490000000 1.0
C      1  0.4345770000000  0.5762060000000  0.4210870000000 1.0
C      1  0.4791270000000  0.4331060000000  0.6028160000000 1.0
C      1  0.4735340000000  0.5103520000000  0.4140790000000 1.0
C      1  0.4259980000000  0.5350130000000  0.5830330000000 1.0
C      1  0.4673340000000  0.4696930000000  0.5480100000000 1.0
C      1  0.3860030000000  0.4686430000000  0.4670920000000 1.0
C      1  0.5013880000000  0.4288650000000  0.4064540000000 1.0
C      1  0.5513790000000  0.5190850000000  0.6085760000000 1.0
C      1  0.5407300000000  0.4127310000000  0.5708420000000 1.0
C      1  0.4818850000000  0.6116060000000  0.4855260000000 1.0
C      1  0.4486850000000  0.5238000000000  0.5972840000000 1.0
C      1  0.4299350000000  0.5886540000000  0.4444120000000 1.0
C      1  0.4164910000000  0.5050870000000  0.5242150000000 1.0
C      1  0.4568000000000  0.4951330000000  0.5979680000000 1.0
C      1  0.5966380000000  0.4452410000000  0.4475830000000 1.0
C      1  0.5258210000000  0.5526550000000  0.5173660000000 1.0
C      1  0.3892420000000  0.5085100000000  0.5335540000000 1.0
C      1  0.4445760000000  0.4595430000000  0.5618680000000 1.0
C      1  0.5438720000000  0.6294550000000  0.4819470000000 1.0
C      1  0.4720090000000  0.5367550000000  0.5554340000000 1.0
C      1  0.5381880000000  0.5049680000000  0.4710350000000 1.0
C      1  0.5225260000000  0.4656240000000  0.4359950000000 1.0
C      1  0.4422630000000  0.4418600000000  0.4204680000000 1.0
C      1  0.5043500000000  0.5979180000000  0.4741630000000 1.0
C      1  0.6107920000000  0.5659010000000  0.5380800000000 1.0
C      1  0.4892220000000  0.5850220000000  0.5238320000000 1.0
C      1  0.6164680000000  0.4504650000000  0.5310890000000 1.0
C      1  0.4848410000000  0.5118880000000  0.5540610000000 1.0
C      1  0.5452730000000  0.5052370000000  0.4421040000000 1.0
C      1  0.5074690000000  0.5026530000000  0.5950220000000 1.0
C      1  0.5916130000000  0.4016960000000  0.5845840000000 1.0
C      1  0.5876670000000  0.5538490000000  0.5367290000000 1.0
C      1  0.4903390000000  0.3951770000000  0.5692770000000 1.0
C      1  0.4617130000000  0.4056880000000  0.5118660000000 1.0
C      1  0.5656950000000  0.6241320000000  0.4976690000000 1.0
C      1  0.4455360000000  0.6651960000000  0.4536430000000 1.0
C      1  0.4943130000000  0.4131120000000  0.4583800000000 1.0
C      1  0.3999720000000  0.4611620000000  0.4455380000000 1.0
C      1  0.4493510000000  0.4055370000000  0.4849360000000 1.0
C      1  0.4800740000000  0.4999110000000  0.5095910000000 1.0
C      1  0.5181180000000  0.5247060000000  0.4749270000000 1.0
C      1  0.4510300000000  0.4181660000000  0.4349820000000 1.0
C      1  0.3793670000000  0.4837350000000  0.5441270000000 1.0
C      1  0.5241410000000  0.5339630000000  0.5613530000000 1.0
C      1  0.5701720000000  0.4525930000000  0.4574710000000 1.0
C      1  0.4338080000000  0.6125320000000  0.5289330000000 1.0
C      1  0.5223600000000  0.4241460000000  0.5891330000000 1.0
C      1  0.5304790000000  0.4631420000000  0.5083270000000 1.0
C      1  0.4647530000000  0.4105210000000  0.4597580000000 1.0
C      1  0.4251220000000  0.5404180000000  0.4653080000000 1.0
C      1  0.4214210000000  0.5879820000000  0.5218210000000 1.0
C      1  0.5705950000000  0.5976070000000  0.5082640000000 1.0
C      1  0.5951920000000  0.5022920000000  0.5005700000000 1.0
C      1  0.4050200000000  0.4220460000000  0.5101990000000 1.0
C      1  0.5500390000000  0.5854860000000  0.4677840000000 1.0
C      1  0.5112960000000  0.5576360000000  0.5737350000000 1.0
C      1  0.5464480000000  0.4162660000000  0.5203050000000 1.0
C      1  0.4588920000000  0.6222800000000  0.5273220000000 1.0
C      1  0.5398350000000  0.5373970000000  0.5374890000000 1.0
C      1  0.5144540000000  0.4144740000000  0.4809980000000 1.0
C      1  0.4361170000000  0.5255040000000  0.5255730000000 1.0
C      1  0.4734140000000  0.4679190000000  0.4388160000000 1.0
C      1  0.4359700000000  0.5956660000000  0.4714510000000 1.0
C      1  0.4513430000000  0.4288570000000  0.5262040000000 1.0
C      1  0.4571030000000  0.5435020000000  0.5327960000000 1.0
C      1  0.5479830000000  0.4725090000000  0.5612120000000 1.0
C      1  0.4056350000000  0.4372310000000  0.5353440000000 1.0
C      1  0.5679820000000  0.4442650000000  0.4101760000000 1.0
C      1  0.5520940000000  0.5693580000000  0.5931880000000 1.0
C      1  0.5366630000000  0.3948730000000  0.4776200000000 1.0
C      1  0.5572230000000  0.4479950000000  0.3850050000000 1.0
C      1  0.4443400000000  0.5536510000000  0.4098310000000 1.0
C      1  0.5310110000000  0.6070750000000  0.4701270000000 1.0
C      1  0.4965300000000  0.5231810000000  0.4556590000000 1.0
C      1  0.5030690000000  0.3967000000000  0.5436350000000 1.0
C      1  0.5874860000000  0.4743680000000  0.5001010000000 1.0
C      1  0.5389620000000  0.4715380000000  0.5886130000000 1.0
C      1  0.5040510000000  0.5697130000000  0.4776390000000 1.0
C      1  0.4267390000000  0.4590830000000  0.4388770000000 1.0
C      1  0.4325960000000  0.4379450000000  0.5465080000000 1.0
C      1  0.5682260000000  0.5340230000000  0.5397810000000 1.0
C      1  0.4484350000000  0.4728690000000  0.4526450000000 1.0
C      1  0.5921270000000  0.4527270000000  0.5186620000000 1.0
C      1  0.5336710000000  0.4635390000000  0.3824610000000 1.0
C      1  0.5861460000000  0.5546610000000  0.4459660000000 1.0
C      1  0.4166190000000  0.5537790000000  0.5654590000000 1.0
C      1  0.4208180000000  0.4114630000000  0.4900520000000 1.0
C      1  0.5162670000000  0.5779060000000  0.5288310000000 1.0
C      1  0.5583420000000  0.5111420000000  0.3953720000000 1.0
C      1  0.5868280000000  0.5278500000000  0.4349430000000 1.0
C      1  0.4223660000000  0.5807970000000  0.4931990000000 1.0
C      1  0.4568130000000  0.4507130000000  0.5087170000000 1.0
C      1  0.4693920000000  0.5439080000000  0.6007360000000 1.0
C      1  0.4634230000000  0.4618290000000  0.4120750000000 1.0
C      1  0.5475300000000  0.3969090000000  0.4517440000000 1.0
C      1  0.4493630000000  0.4838770000000  0.4776410000000 1.0
C      1  0.5726610000000  0.4853890000000  0.5580760000000 1.0
C      1  0.4485000000000  0.5318260000000  0.4515180000000 1.0
C      1  0.4564200000000  0.6160400000000  0.4733450000000 1.0
C      1  0.5349300000000  0.4969160000000  0.6024530000000 1.0
C      1  0.4953740000000  0.4127590000000  0.5904380000000 1.0
C      1  0.5667610000000  0.4062360000000  0.5781930000000 1.0
C      1  0.4970920000000  0.4583240000000  0.4773880000000 1.0
C      1  0.5174490000000  0.5479850000000  0.4906220000000 1.0
C      1  0.4108790000000  0.5552560000000  0.4851960000000 1.0
C      1  0.4657140000000  0.4870430000000  0.3978410000000 1.0
C      1  0.5718600000000  0.4329540000000  0.5236860000000 1.0
C      1  0.5958320000000  0.5242980000000  0.4822120000000 1.0
C      1  0.4785410000000  0.4921280000000  0.5362350000000 1.0
C      1  0.4987390000000  0.5100660000000  0.4298100000000 1.0
C      1  0.3924270000000  0.4768200000000  0.4917260000000 1.0
C      1  0.6191600000000  0.4412330000000  0.4621680000000 1.0
C      1  0.4665060000000  0.5043190000000  0.4858290000000 1.0
C      1  0.5945310000000  0.4418810000000  0.4194380000000 1.0
C      1  0.3775750000000  0.5300840000000  0.5192020000000 1.0
C      1  0.5705070000000  0.5764210000000  0.4868800000000 1.0
C      1  0.4831500000000  0.5529900000000  0.5772480000000 1.0
C      1  0.4508480000000  0.6414630000000  0.4630020000000 1.0
C      1  0.6018640000000  0.5141570000000  0.4550830000000 1.0
C      1  0.5513540000000  0.3929220000000  0.5017160000000 1.0
C      1  0.5708880000000  0.5273530000000  0.3770250000000 1.0
C      1  0.5369290000000  0.4178520000000  0.4360560000000 1.0
C      1  0.5853020000000  0.5532850000000  0.4763790000000 1.0
C      1  0.4386780000000  0.4696390000000  0.4990400000000 1.0
C      1  0.5676430000000  0.4685380000000  0.4803940000000 1.0
C      1  0.5424190000000  0.4805970000000  0.4870320000000 1.0
C      1  0.5781810000000  0.5098600000000  0.5496250000000 1.0
C      1  0.4154070000000  0.4819020000000  0.5074630000000 1.0
C      1  0.5082840000000  0.5119040000000  0.5683410000000 1.0
C      1  0.4927690000000  0.4586090000000  0.6048120000000 1.0
C      1  0.4400460000000  0.4748580000000  0.5855240000000 1.0
C      1  0.5603470000000  0.5948220000000  0.5348330000000 1.0
C      1  0.4808770000000  0.6104120000000  0.5142110000000 1.0
C      1  0.5358390000000  0.5884710000000  0.5476910000000 1.0
C      1  0.4537310000000  0.5305000000000  0.4229710000000 1.0
C      1  0.5208680000000  0.4515560000000  0.5969650000000 1.0
END
