TITL C-3201378-2706-2027 -22.9322470729562 125000 -554.226535207121 0 0 93 (C1) n - 1
REM
REM in /home/nfs/bkarasulu/CARBON/AIRSS/Generating-Clusters/LCBOP/Higher-Symm/SD-CG/FIRE-CG
REM
REM
REM
REM
REM
REM ./C.cell (b20cbc046b6831c77cfcea5457e17084)
REM AIRSS Version 0.9.1 bugfix July 2018 build 013d7b7c2542+ Fri, 06 Jul 2018 19:26:36 +0100
REM compiler GCC version 9.2.1 20190827 (Red Hat 9.2.1-1)
REM options -cpp -mtune=generic -march=x86-64 -g -O0 -fpre-include=/usr/include/finclude/math-vector-fortran.h
REM seed -1289627346 -1754767583 2089770329 1282907666 -1251959321 -1613082320 1567117693 1970109672 1365382598 -83663564 1189145783 1721915912 1033809701 1537360911 2336253 -1663052974 1696353333 -88993626 1133299189 -1474891591 -1693316384 951450352 883543520 -32777122 -2107761208 14606868 1061940503 526462087 -223500355 970845185 235670624 301081366 -713600960
REM
CELL 1.54180   50.00000   50.00000   50.00000   90.00000   90.00000   90.00000
LATT -1
SFAC C  
C      1  0.4784720000000  0.4710370000000  0.5381730000000 1.0
C      1  0.4784090000000  0.4609720000000  0.4708400000000 1.0
C      1  0.4783970000000  0.5286450000000  0.4605060000000 1.0
C      1  0.4786610000000  0.5390400000000  0.5282260000000 1.0
C      1  0.4532960000000  0.5372940000000  0.5428410000000 1.0
C      1  0.4531770000000  0.4563220000000  0.5366260000000 1.0
C      1  0.4530330000000  0.4628160000000  0.4562630000000 1.0
C      1  0.4530860000000  0.5433640000000  0.4622310000000 1.0
C      1  0.4875840000000  0.4345510000000  0.4606250000000 1.0
C      1  0.4876870000000  0.5387270000000  0.4341110000000 1.0
C      1  0.4879030000000  0.5653960000000  0.5384080000000 1.0
C      1  0.4877570000000  0.4610430000000  0.5646700000000 1.0
C      1  0.5584750000000  0.5484240000000  0.5474120000000 1.0
C      1  0.5583820000000  0.4516400000000  0.5485320000000 1.0
C      1  0.5582920000000  0.4505090000000  0.4513510000000 1.0
C      1  0.5583270000000  0.5487510000000  0.4499000000000 1.0
C      1  0.4348430000000  0.4746480000000  0.5002230000000 1.0
C      1  0.4353600000000  0.4994090000000  0.4757440000000 1.0
C      1  0.4356530000000  0.5230700000000  0.4984830000000 1.0
C      1  0.4354160000000  0.5012140000000  0.5227700000000 1.0
C      1  0.4422650000000  0.5445780000000  0.4350780000000 1.0
C      1  0.4424550000000  0.5644170000000  0.5441830000000 1.0
C      1  0.4423290000000  0.4553230000000  0.5637700000000 1.0
C      1  0.4421460000000  0.4356480000000  0.4551150000000 1.0
C      1  0.5075860000000  0.5556150000000  0.5572770000000 1.0
C      1  0.5073890000000  0.4420470000000  0.5551070000000 1.0
C      1  0.5072600000000  0.4441810000000  0.4417200000000 1.0
C      1  0.5072210000000  0.5577540000000  0.4437150000000 1.0
C      1  0.5305580000000  0.6043920000000  0.4961150000000 1.0
C      1  0.5306070000000  0.5028990000000  0.6036740000000 1.0
C      1  0.5309630000000  0.3958200000000  0.5024290000000 1.0
C      1  0.5310610000000  0.4971230000000  0.3960540000000 1.0
C      1  0.4937450000000  0.5301070000000  0.5065660000000 1.0
C      1  0.4934340000000  0.4928360000000  0.5293290000000 1.0
C      1  0.4934610000000  0.4697700000000  0.4924670000000 1.0
C      1  0.4931680000000  0.5068150000000  0.4696600000000 1.0
C      1  0.4634900000000  0.5799900000000  0.5293470000000 1.0
C      1  0.4634170000000  0.4701980000000  0.5792260000000 1.0
C      1  0.4633080000000  0.4199690000000  0.4697750000000 1.0
C      1  0.4633140000000  0.5297380000000  0.4195090000000 1.0
C      1  0.5102680000000  0.4519780000000  0.5062620000000 1.0
C      1  0.5101610000000  0.4929820000000  0.4519510000000 1.0
C      1  0.5104050000000  0.5480450000000  0.4926700000000 1.0
C      1  0.5102140000000  0.5065860000000  0.5474330000000 1.0
C      1  0.5033560000000  0.6065740000000  0.4920530000000 1.0
C      1  0.5034340000000  0.5071420000000  0.6059520000000 1.0
C      1  0.5037990000000  0.3933410000000  0.5065780000000 1.0
C      1  0.5039040000000  0.4930050000000  0.3934060000000 1.0
C      1  0.5722060000000  0.5234700000000  0.5451410000000 1.0
C      1  0.5722400000000  0.4542200000000  0.5236820000000 1.0
C      1  0.5722260000000  0.4752920000000  0.4542720000000 1.0
C      1  0.5722190000000  0.5463620000000  0.4747430000000 1.0
C      1  0.5723300000000  0.4289700000000  0.5093860000000 1.0
C      1  0.5723600000000  0.4898930000000  0.4292000000000 1.0
C      1  0.5721200000000  0.5716440000000  0.4889770000000 1.0
C      1  0.5721320000000  0.5094500000000  0.5705650000000 1.0
C      1  0.5476620000000  0.4187910000000  0.4991110000000 1.0
C      1  0.5477230000000  0.5002920000000  0.4190850000000 1.0
C      1  0.5474750000000  0.5815830000000  0.4994940000000 1.0
C      1  0.5473960000000  0.4993680000000  0.5808000000000 1.0
C      1  0.5760730000000  0.4880430000000  0.4796760000000 1.0
C      1  0.5762310000000  0.5214080000000  0.4877500000000 1.0
C      1  0.5760430000000  0.5099930000000  0.5201040000000 1.0
C      1  0.5759730000000  0.4795450000000  0.5104660000000 1.0
C      1  0.4848800000000  0.4845860000000  0.4135820000000 1.0
C      1  0.4846790000000  0.5859860000000  0.4839490000000 1.0
C      1  0.4847180000000  0.5154140000000  0.5854520000000 1.0
C      1  0.4849320000000  0.4136730000000  0.5148790000000 1.0
C      1  0.5350360000000  0.5565070000000  0.4385150000000 1.0
C      1  0.5355120000000  0.5602350000000  0.5555820000000 1.0
C      1  0.5352620000000  0.4435160000000  0.5600510000000 1.0
C      1  0.5351150000000  0.4391390000000  0.4431760000000 1.0
C      1  0.4459960000000  0.5499450000000  0.4892440000000 1.0
C      1  0.4460400000000  0.5103550000000  0.5494640000000 1.0
C      1  0.4459020000000  0.4490060000000  0.5099830000000 1.0
C      1  0.4459660000000  0.4897600000000  0.4493350000000 1.0
C      1  0.4609440000000  0.5758080000000  0.4995640000000 1.0
C      1  0.4609260000000  0.4999290000000  0.5752100000000 1.0
C      1  0.4609680000000  0.4236370000000  0.4995550000000 1.0
C      1  0.4609420000000  0.4999760000000  0.4236040000000 1.0
C      1  0.4192800000000  0.4265610000000  0.4439340000000 1.0
C      1  0.4195040000000  0.5559280000000  0.4259360000000 1.0
C      1  0.4197210000000  0.5735310000000  0.5556020000000 1.0
C      1  0.4195260000000  0.4441150000000  0.5729820000000 1.0
C      1  0.5004210000000  0.4347920000000  0.5274160000000 1.0
C      1  0.5003640000000  0.4719240000000  0.4346310000000 1.0
C      1  0.5003440000000  0.5649790000000  0.4714180000000 1.0
C      1  0.5004170000000  0.5279200000000  0.5644530000000 1.0
C      1  0.5322630000000  0.5585560000000  0.5061100000000 1.0
C      1  0.5319870000000  0.4929420000000  0.5578300000000 1.0
C      1  0.5322100000000  0.4417480000000  0.4927580000000 1.0
C      1  0.5322340000000  0.5065270000000  0.4420480000000 1.0
C      1  0.4936130000000  0.5010290000000  0.4997480000000 1.0
END
