TITL C-3201379-3821-786 0.000462150724319591 125000 -468.952282393955 0 0 78 (C1) n - 1
REM
REM in /home/nfs/bkarasulu/CARBON/AIRSS/Generating-Clusters/LCBOP/Higher-Symm/SD-CG/FIRE-CG
REM
REM
REM
REM
REM
REM ./C.cell (b20cbc046b6831c77cfcea5457e17084)
REM AIRSS Version 0.9.1 bugfix July 2018 build 013d7b7c2542+ Fri, 06 Jul 2018 19:26:36 +0100
REM compiler GCC version 9.2.1 20190827 (Red Hat 9.2.1-1)
REM options -cpp -mtune=generic -march=x86-64 -g -O0 -fpre-include=/usr/include/finclude/math-vector-fortran.h
REM seed 179148899 1441294922 -1573276087 -583196604 -1005484123 1191843862 -1763974767 -607612276 2104505498 -517309321 -2010311116 607727321 622091493 -1149151328 -1534184401 -1289059007 214614472 500125532 1612074553 616163459 1737539821 1977019165 -1834313077 -1337855276 1085931802 -623664703 901281281 130326690 -27889448 -1997991939 -1501700838 1061730301 -1481474044
REM
CELL 1.54180   50.00000   50.00000   50.00000   90.00000   90.00000   90.00000
LATT -1
SFAC C  
C      1  0.4465940000000  0.4454880000000  0.5083570000000 1.0
C      1  0.5975740000000  0.5173970000000  0.4978450000000 1.0
C      1  0.4652390000000  0.4384090000000  0.4885780000000 1.0
C      1  0.4446850000000  0.5499340000000  0.5145970000000 1.0
C      1  0.4407330000000  0.4933840000000  0.5710350000000 1.0
C      1  0.4445420000000  0.4561910000000  0.4238040000000 1.0
C      1  0.4764010000000  0.4913550000000  0.6427020000000 1.0
C      1  0.4473340000000  0.4340000000000  0.4405630000000 1.0
C      1  0.5135010000000  0.4646140000000  0.5861460000000 1.0
C      1  0.5075940000000  0.5288940000000  0.5241000000000 1.0
C      1  0.5034830000000  0.4542680000000  0.4335660000000 1.0
C      1  0.4928510000000  0.4452210000000  0.4941220000000 1.0
C      1  0.5226070000000  0.5226860000000  0.4825180000000 1.0
C      1  0.5840110000000  0.4745900000000  0.5225320000000 1.0
C      1  0.5001060000000  0.4723340000000  0.4929940000000 1.0
C      1  0.5109990000000  0.4298590000000  0.4766070000000 1.0
C      1  0.5287590000000  0.4746780000000  0.4928980000000 1.0
C      1  0.5804520000000  0.4540440000000  0.5025370000000 1.0
C      1  0.4395540000000  0.4577540000000  0.5313010000000 1.0
C      1  0.4338210000000  0.5125030000000  0.4616890000000 1.0
C      1  0.4420650000000  0.5025850000000  0.4366190000000 1.0
C      1  0.5356060000000  0.4886320000000  0.5166700000000 1.0
C      1  0.5421510000000  0.5313740000000  0.4418960000000 1.0
C      1  0.4855760000000  0.5516710000000  0.5760760000000 1.0
C      1  0.4788470000000  0.5441850000000  0.4735610000000 1.0
C      1  0.4669430000000  0.4307410000000  0.4602130000000 1.0
C      1  0.4240830000000  0.5069510000000  0.4146340000000 1.0
C      1  0.5895150000000  0.5032260000000  0.5208630000000 1.0
C      1  0.5424250000000  0.5375250000000  0.4695860000000 1.0
C      1  0.5219780000000  0.4713390000000  0.5619270000000 1.0
C      1  0.5520520000000  0.4667830000000  0.4439330000000 1.0
C      1  0.4521700000000  0.5380170000000  0.5399750000000 1.0
C      1  0.5266380000000  0.5143100000000  0.4274050000000 1.0
C      1  0.5779830000000  0.4696500000000  0.4343610000000 1.0
C      1  0.5967400000000  0.5216910000000  0.5653560000000 1.0
C      1  0.4586690000000  0.5093220000000  0.6340630000000 1.0
C      1  0.5598600000000  0.5490410000000  0.4899390000000 1.0
C      1  0.4864430000000  0.4974660000000  0.4938970000000 1.0
C      1  0.4954230000000  0.4327380000000  0.4512740000000 1.0
C      1  0.4655610000000  0.5555830000000  0.4960390000000 1.0
C      1  0.5404030000000  0.4765900000000  0.5418650000000 1.0
C      1  0.5380980000000  0.5389850000000  0.5633550000000 1.0
C      1  0.5483040000000  0.5531310000000  0.5173720000000 1.0
C      1  0.4853820000000  0.5104180000000  0.5198070000000 1.0
C      1  0.4486670000000  0.5193860000000  0.6115020000000 1.0
C      1  0.5673990000000  0.4690640000000  0.5451000000000 1.0
C      1  0.4611370000000  0.5119730000000  0.5322400000000 1.0
C      1  0.4218460000000  0.5393840000000  0.5014820000000 1.0
C      1  0.4607400000000  0.5390860000000  0.5676110000000 1.0
C      1  0.4885770000000  0.5179610000000  0.3988670000000 1.0
C      1  0.5184940000000  0.5561710000000  0.5219280000000 1.0
C      1  0.5312860000000  0.4558030000000  0.4284340000000 1.0
C      1  0.4490150000000  0.5177770000000  0.5835670000000 1.0
C      1  0.5060280000000  0.5802130000000  0.5238810000000 1.0
C      1  0.5867800000000  0.5402450000000  0.4882390000000 1.0
C      1  0.4148150000000  0.5214220000000  0.4807730000000 1.0
C      1  0.5069330000000  0.4647450000000  0.6118660000000 1.0
C      1  0.4831930000000  0.5758970000000  0.5890750000000 1.0
C      1  0.5025440000000  0.5022060000000  0.4178210000000 1.0
C      1  0.4247990000000  0.4609660000000  0.4040520000000 1.0
C      1  0.4771870000000  0.5421850000000  0.4010640000000 1.0
C      1  0.5284780000000  0.5146740000000  0.5099500000000 1.0
C      1  0.6026590000000  0.4735320000000  0.4269390000000 1.0
C      1  0.4730610000000  0.5578790000000  0.4223680000000 1.0
C      1  0.4757970000000  0.5569920000000  0.4488540000000 1.0
C      1  0.4945150000000  0.5201340000000  0.4764270000000 1.0
C      1  0.5446010000000  0.4747940000000  0.4698270000000 1.0
C      1  0.5579430000000  0.5387810000000  0.5418020000000 1.0
C      1  0.5626350000000  0.4355630000000  0.4927960000000 1.0
C      1  0.5384450000000  0.4263320000000  0.4838350000000 1.0
C      1  0.4597770000000  0.4799190000000  0.4316340000000 1.0
C      1  0.4380760000000  0.4732220000000  0.5533140000000 1.0
C      1  0.5124110000000  0.5416430000000  0.5723660000000 1.0
C      1  0.3890250000000  0.5122880000000  0.4791910000000 1.0
C      1  0.4885460000000  0.4788830000000  0.4284510000000 1.0
C      1  0.5810030000000  0.5211020000000  0.5427040000000 1.0
C      1  0.4153100000000  0.4860800000000  0.3994360000000 1.0
C      1  0.4945220000000  0.4741450000000  0.6334270000000 1.0
END
