TITL C-3201375-1262-154 0.00418050961083339 125000 -844.560788801036 0 0 138 (C1) n - 1
REM
REM in /home/nfs/bkarasulu/CARBON/AIRSS/Generating-Clusters/LCBOP/Higher-Symm/SD-CG/FIRE-CG
REM
REM
REM
REM
REM
REM ./C.cell (b20cbc046b6831c77cfcea5457e17084)
REM AIRSS Version 0.9.1 bugfix July 2018 build 013d7b7c2542+ Fri, 06 Jul 2018 19:26:36 +0100
REM compiler GCC version 9.2.1 20190827 (Red Hat 9.2.1-1)
REM options -cpp -mtune=generic -march=x86-64 -g -O0 -fpre-include=/usr/include/finclude/math-vector-fortran.h
REM seed -626548215 -2097351076 -1839750543 624325598 -2128608341 -427467147 -903711580 129255444 1449512489 -155941313 -1556470759 182325929 1113609491 -726223363 -915598675 -1090885178 -1600334027 922923976 434076483 988055369 -1581417074 1791955988 -184583731 -1032883262 -1477140462 -524056657 1919556253 677908216 -1810769160 -47470991 -1047650921 17147633 715732200
REM
CELL 1.54180   50.00000   50.00000   50.00000   90.00000   90.00000   90.00000
LATT -1
SFAC C  
C      1  0.5077790000000  0.4597010000000  0.4979860000000 1.0
C      1  0.5548830000000  0.4793730000000  0.5018920000000 1.0
C      1  0.4781040000000  0.4164690000000  0.4748470000000 1.0
C      1  0.4257340000000  0.4783960000000  0.4360140000000 1.0
C      1  0.4899790000000  0.4678810000000  0.4775750000000 1.0
C      1  0.5347670000000  0.5082590000000  0.5859340000000 1.0
C      1  0.4812990000000  0.5748930000000  0.5180200000000 1.0
C      1  0.5560670000000  0.5507840000000  0.5124830000000 1.0
C      1  0.5920100000000  0.4946880000000  0.4838210000000 1.0
C      1  0.5161210000000  0.4587200000000  0.3942420000000 1.0
C      1  0.5448550000000  0.5184640000000  0.4401250000000 1.0
C      1  0.5345510000000  0.6006640000000  0.4046910000000 1.0
C      1  0.5360900000000  0.5134290000000  0.6144210000000 1.0
C      1  0.4411120000000  0.5017520000000  0.5578600000000 1.0
C      1  0.4089930000000  0.4715070000000  0.4833650000000 1.0
C      1  0.5025760000000  0.5286150000000  0.5322760000000 1.0
C      1  0.4755630000000  0.4598980000000  0.5294810000000 1.0
C      1  0.4144060000000  0.5202040000000  0.5292930000000 1.0
C      1  0.4670410000000  0.4121870000000  0.5028880000000 1.0
C      1  0.5667790000000  0.5562620000000  0.4649040000000 1.0
C      1  0.6273810000000  0.4268130000000  0.5549130000000 1.0
C      1  0.4234010000000  0.5056670000000  0.4331380000000 1.0
C      1  0.5480190000000  0.5329750000000  0.4683470000000 1.0
C      1  0.3936390000000  0.4480040000000  0.4826770000000 1.0
C      1  0.5047820000000  0.5951410000000  0.4601030000000 1.0
C      1  0.5487240000000  0.5785350000000  0.5153220000000 1.0
C      1  0.4196500000000  0.4356390000000  0.5199240000000 1.0
C      1  0.4396360000000  0.5500750000000  0.4295040000000 1.0
C      1  0.5214540000000  0.6393720000000  0.5809160000000 1.0
C      1  0.5399860000000  0.4273760000000  0.5398600000000 1.0
C      1  0.5750440000000  0.5095730000000  0.4352550000000 1.0
C      1  0.5131940000000  0.6242520000000  0.5613650000000 1.0
C      1  0.5423800000000  0.4826290000000  0.5762310000000 1.0
C      1  0.4399910000000  0.4508770000000  0.5614820000000 1.0
C      1  0.5324350000000  0.5415090000000  0.3813520000000 1.0
C      1  0.4566810000000  0.4634910000000  0.5833280000000 1.0
C      1  0.4269050000000  0.5221530000000  0.5730810000000 1.0
C      1  0.5658730000000  0.4945830000000  0.5251490000000 1.0
C      1  0.4789020000000  0.6005190000000  0.4727430000000 1.0
C      1  0.4585360000000  0.5568280000000  0.5685870000000 1.0
C      1  0.4930250000000  0.4158720000000  0.5164210000000 1.0
C      1  0.5939860000000  0.4310800000000  0.5909480000000 1.0
C      1  0.4380740000000  0.4695950000000  0.4829290000000 1.0
C      1  0.5322740000000  0.5975100000000  0.5008610000000 1.0
C      1  0.4990700000000  0.4092500000000  0.5677200000000 1.0
C      1  0.4726380000000  0.4108180000000  0.5636280000000 1.0
C      1  0.4644420000000  0.5196490000000  0.3763840000000 1.0
C      1  0.5028230000000  0.4927090000000  0.4295950000000 1.0
C      1  0.4648240000000  0.5274410000000  0.4810420000000 1.0
C      1  0.5799400000000  0.4963750000000  0.4105340000000 1.0
C      1  0.5231940000000  0.4050470000000  0.4526010000000 1.0
C      1  0.4962980000000  0.5066410000000  0.4517940000000 1.0
C      1  0.5829480000000  0.5399890000000  0.5072440000000 1.0
C      1  0.5695380000000  0.4228250000000  0.5029660000000 1.0
C      1  0.5446990000000  0.5235990000000  0.3658630000000 1.0
C      1  0.4443590000000  0.5217020000000  0.4200020000000 1.0
C      1  0.5108040000000  0.5378810000000  0.5070870000000 1.0
C      1  0.5046270000000  0.5411910000000  0.5590220000000 1.0
C      1  0.4466090000000  0.5433790000000  0.4979400000000 1.0
C      1  0.4893180000000  0.5841850000000  0.5437020000000 1.0
C      1  0.6188020000000  0.4300370000000  0.5803160000000 1.0
C      1  0.4514920000000  0.4244430000000  0.5508860000000 1.0
C      1  0.5693000000000  0.4242230000000  0.5497840000000 1.0
C      1  0.5303900000000  0.4912000000000  0.4264350000000 1.0
C      1  0.4475420000000  0.5378810000000  0.5872780000000 1.0
C      1  0.5246960000000  0.4198280000000  0.5650960000000 1.0
C      1  0.5761460000000  0.4697070000000  0.4856060000000 1.0
C      1  0.4825540000000  0.4967400000000  0.4738310000000 1.0
C      1  0.5366740000000  0.5358740000000  0.4957580000000 1.0
C      1  0.4948680000000  0.5599220000000  0.5002840000000 1.0
C      1  0.4892690000000  0.5869870000000  0.3990790000000 1.0
C      1  0.5922090000000  0.5059150000000  0.4576980000000 1.0
C      1  0.5321770000000  0.4655930000000  0.5082210000000 1.0
C      1  0.4369540000000  0.5693480000000  0.4862310000000 1.0
C      1  0.5156150000000  0.5809040000000  0.4034450000000 1.0
C      1  0.5161690000000  0.4052400000000  0.5016730000000 1.0
C      1  0.4642100000000  0.5167300000000  0.5989200000000 1.0
C      1  0.4613430000000  0.4929560000000  0.5792220000000 1.0
C      1  0.5309140000000  0.5934120000000  0.4719010000000 1.0
C      1  0.5533740000000  0.5807990000000  0.4600290000000 1.0
C      1  0.4863980000000  0.5634530000000  0.5632250000000 1.0
C      1  0.4902060000000  0.4685090000000  0.5527470000000 1.0
C      1  0.4833050000000  0.4898940000000  0.4090010000000 1.0
C      1  0.4716680000000  0.4450000000000  0.4159370000000 1.0
C      1  0.4993440000000  0.5345840000000  0.4468900000000 1.0
C      1  0.4866170000000  0.6166240000000  0.4957840000000 1.0
C      1  0.5896440000000  0.5530530000000  0.4820970000000 1.0
C      1  0.5305880000000  0.4596450000000  0.5916320000000 1.0
C      1  0.5615330000000  0.4853350000000  0.3917480000000 1.0
C      1  0.5054830000000  0.4039950000000  0.4742890000000 1.0
C      1  0.5054030000000  0.4613550000000  0.6072510000000 1.0
C      1  0.5053120000000  0.4800730000000  0.6290200000000 1.0
C      1  0.4937430000000  0.4439880000000  0.5164670000000 1.0
C      1  0.5067610000000  0.5174040000000  0.5779400000000 1.0
C      1  0.4552400000000  0.5833980000000  0.4676530000000 1.0
C      1  0.4422930000000  0.4646510000000  0.4537840000000 1.0
C      1  0.4547250000000  0.4998940000000  0.5308910000000 1.0
C      1  0.5416820000000  0.4142840000000  0.5114970000000 1.0
C      1  0.4074160000000  0.4928240000000  0.5233600000000 1.0
C      1  0.5101500000000  0.6124790000000  0.5127670000000 1.0
C      1  0.5223210000000  0.5393050000000  0.4293610000000 1.0
C      1  0.4792200000000  0.4435380000000  0.4643990000000 1.0
C      1  0.4640140000000  0.5101840000000  0.4022610000000 1.0
C      1  0.4882130000000  0.4960090000000  0.5632050000000 1.0
C      1  0.4816240000000  0.5099460000000  0.5363690000000 1.0
C      1  0.5096950000000  0.5078970000000  0.6253490000000 1.0
C      1  0.5690130000000  0.4292560000000  0.5785030000000 1.0
C      1  0.4585840000000  0.5630700000000  0.4464710000000 1.0
C      1  0.4422040000000  0.5578320000000  0.5448170000000 1.0
C      1  0.5664290000000  0.4313630000000  0.4555630000000 1.0
C      1  0.4082660000000  0.5687130000000  0.4874240000000 1.0
C      1  0.5861960000000  0.5112140000000  0.5097650000000 1.0
C      1  0.5380770000000  0.4749150000000  0.4041800000000 1.0
C      1  0.4194170000000  0.4613640000000  0.5378020000000 1.0
C      1  0.5574790000000  0.5000650000000  0.3680690000000 1.0
C      1  0.5744000000000  0.4412320000000  0.4807700000000 1.0
C      1  0.4554550000000  0.4759130000000  0.5138160000000 1.0
C      1  0.6140210000000  0.4235400000000  0.5316590000000 1.0
C      1  0.3995170000000  0.4954600000000  0.4945790000000 1.0
C      1  0.4917100000000  0.5200370000000  0.6055450000000 1.0
C      1  0.3989500000000  0.4298280000000  0.5019000000000 1.0
C      1  0.4625820000000  0.4486140000000  0.4425200000000 1.0
C      1  0.4761010000000  0.5444860000000  0.4588980000000 1.0
C      1  0.4879070000000  0.4624840000000  0.4004660000000 1.0
C      1  0.4342480000000  0.5401510000000  0.5239860000000 1.0
C      1  0.5518900000000  0.4797400000000  0.5490060000000 1.0
C      1  0.3969850000000  0.5196260000000  0.4774530000000 1.0
C      1  0.4791250000000  0.4526980000000  0.5983380000000 1.0
C      1  0.5236500000000  0.5536420000000  0.4051240000000 1.0
C      1  0.5046430000000  0.6078470000000  0.5407800000000 1.0
C      1  0.5864990000000  0.4226120000000  0.5266650000000 1.0
C      1  0.4121360000000  0.5486620000000  0.4393140000000 1.0
C      1  0.4446500000000  0.4200790000000  0.5219980000000 1.0
C      1  0.5462770000000  0.4167270000000  0.4456000000000 1.0
C      1  0.5409830000000  0.4336540000000  0.5853920000000 1.0
C      1  0.3928070000000  0.5460400000000  0.4883260000000 1.0
C      1  0.5377960000000  0.4573480000000  0.5352570000000 1.0
C      1  0.4059010000000  0.5218330000000  0.4497130000000 1.0
END
