TITL C-3201378-2706-1640 296956.749439762 125000 -887.513987887043 0 0 140 (C1) n - 1
REM
REM in /home/nfs/bkarasulu/CARBON/AIRSS/Generating-Clusters/LCBOP/Higher-Symm/SD-CG/FIRE-CG
REM
REM
REM
REM
REM
REM ./C.cell (b20cbc046b6831c77cfcea5457e17084)
REM AIRSS Version 0.9.1 bugfix July 2018 build 013d7b7c2542+ Fri, 06 Jul 2018 19:26:36 +0100
REM compiler GCC version 9.2.1 20190827 (Red Hat 9.2.1-1)
REM options -cpp -mtune=generic -march=x86-64 -g -O0 -fpre-include=/usr/include/finclude/math-vector-fortran.h
REM seed 479346065 -2052676629 506918305 1867769251 1627707177 -1603454988 -1086186132 -759557828 -1216302077 110843539 423779611 -1777938736 1177373565 -943278964 1182408460 -895787389 -1211087141 -161688220 1155354899 -2029681266 1969996295 -1910639412 -1530933906 709940018 1261646587 53982050 439431881 -284134605 576236921 455198606 683976784 1774608951 -469266523
REM
CELL 1.54180   50.00000   50.00000   50.00000   90.00000   90.00000   90.00000
LATT -1
SFAC C  
C      1  0.5652840000000  0.4690510000000  0.5712520000000 1.0
C      1  0.4295520000000  0.4625460000000  0.4276750000000 1.0
C      1  0.5618890000000  0.5309480000000  0.5725600000000 1.0
C      1  0.4393820000000  0.5332950000000  0.4305570000000 1.0
C      1  0.5626030000000  0.4717990000000  0.4316730000000 1.0
C      1  0.4417440000000  0.4767790000000  0.5644530000000 1.0
C      1  0.5717310000000  0.5314500000000  0.4352130000000 1.0
C      1  0.4363840000000  0.5336510000000  0.5636250000000 1.0
C      1  0.5906310000000  0.4810900000000  0.5629300000000 1.0
C      1  0.4138120000000  0.4805170000000  0.4435210000000 1.0
C      1  0.5853330000000  0.5167090000000  0.5622200000000 1.0
C      1  0.4204200000000  0.5157810000000  0.4436190000000 1.0
C      1  0.5830960000000  0.4839450000000  0.4491150000000 1.0
C      1  0.4176710000000  0.4874420000000  0.5539970000000 1.0
C      1  0.5879130000000  0.5141930000000  0.4514610000000 1.0
C      1  0.4143770000000  0.5176680000000  0.5540310000000 1.0
C      1  0.5583920000000  0.4413210000000  0.5676920000000 1.0
C      1  0.4376750000000  0.4353820000000  0.4335830000000 1.0
C      1  0.5567860000000  0.5595440000000  0.5694250000000 1.0
C      1  0.4410150000000  0.5614000000000  0.4367830000000 1.0
C      1  0.5534610000000  0.4451150000000  0.4365200000000 1.0
C      1  0.4507010000000  0.4502120000000  0.5606760000000 1.0
C      1  0.5687010000000  0.5585730000000  0.4443780000000 1.0
C      1  0.4421770000000  0.5608810000000  0.5644890000000 1.0
C      1  0.5739590000000  0.5485190000000  0.5218630000000 1.0
C      1  0.4232430000000  0.5489660000000  0.4839790000000 1.0
C      1  0.5808530000000  0.4456420000000  0.5211360000000 1.0
C      1  0.4224580000000  0.4479460000000  0.4841860000000 1.0
C      1  0.5726590000000  0.5476520000000  0.4918270000000 1.0
C      1  0.4207930000000  0.5506220000000  0.5147990000000 1.0
C      1  0.5777900000000  0.4469520000000  0.4860720000000 1.0
C      1  0.4231230000000  0.4498190000000  0.5166670000000 1.0
C      1  0.4818160000000  0.4458090000000  0.5641050000000 1.0
C      1  0.5191570000000  0.4381890000000  0.4310190000000 1.0
C      1  0.4764370000000  0.5674980000000  0.5760810000000 1.0
C      1  0.5167180000000  0.5652080000000  0.4332260000000 1.0
C      1  0.4640060000000  0.4248030000000  0.4210480000000 1.0
C      1  0.5332680000000  0.4301470000000  0.5785570000000 1.0
C      1  0.4650180000000  0.5758340000000  0.4255480000000 1.0
C      1  0.5338750000000  0.5767700000000  0.5813560000000 1.0
C      1  0.4620020000000  0.4962940000000  0.5664540000000 1.0
C      1  0.5453490000000  0.4920140000000  0.4199950000000 1.0
C      1  0.4587020000000  0.5197580000000  0.5510100000000 1.0
C      1  0.5475240000000  0.5161430000000  0.4343590000000 1.0
C      1  0.4529010000000  0.4777650000000  0.4236840000000 1.0
C      1  0.5469540000000  0.4877220000000  0.5591900000000 1.0
C      1  0.4656250000000  0.5225360000000  0.4260860000000 1.0
C      1  0.5368390000000  0.5134150000000  0.5686890000000 1.0
C      1  0.5850390000000  0.4731930000000  0.4763600000000 1.0
C      1  0.4111140000000  0.4761230000000  0.5277290000000 1.0
C      1  0.5856180000000  0.5224080000000  0.4798310000000 1.0
C      1  0.4079930000000  0.5257410000000  0.5265310000000 1.0
C      1  0.5933640000000  0.4718230000000  0.5344360000000 1.0
C      1  0.4114230000000  0.4738430000000  0.4715610000000 1.0
C      1  0.5854710000000  0.5234750000000  0.5338930000000 1.0
C      1  0.4149100000000  0.5229690000000  0.4712220000000 1.0
C      1  0.4894400000000  0.5680080000000  0.6041060000000 1.0
C      1  0.5078910000000  0.5609910000000  0.4070190000000 1.0
C      1  0.4919590000000  0.4512460000000  0.5913420000000 1.0
C      1  0.5075790000000  0.4428600000000  0.4046640000000 1.0
C      1  0.4793620000000  0.5647300000000  0.4024430000000 1.0
C      1  0.5194570000000  0.5670310000000  0.6037880000000 1.0
C      1  0.4792950000000  0.4389480000000  0.4005660000000 1.0
C      1  0.5189730000000  0.4453670000000  0.5976700000000 1.0
C      1  0.5638580000000  0.4295860000000  0.5406890000000 1.0
C      1  0.4355300000000  0.4273010000000  0.4625540000000 1.0
C      1  0.5606270000000  0.5678570000000  0.5409740000000 1.0
C      1  0.4375630000000  0.5675660000000  0.4656540000000 1.0
C      1  0.5615800000000  0.4288300000000  0.4600430000000 1.0
C      1  0.4401080000000  0.4335740000000  0.5383740000000 1.0
C      1  0.5588270000000  0.5661940000000  0.4710710000000 1.0
C      1  0.4385860000000  0.5716000000000  0.5377550000000 1.0
C      1  0.5305950000000  0.4803660000000  0.4868480000000 1.0
C      1  0.4710460000000  0.4813890000000  0.5004290000000 1.0
C      1  0.5174200000000  0.5062780000000  0.4808070000000 1.0
C      1  0.4807740000000  0.5061820000000  0.5112010000000 1.0
C      1  0.5341750000000  0.4767660000000  0.5146140000000 1.0
C      1  0.4680900000000  0.4726240000000  0.4731630000000 1.0
C      1  0.5098920000000  0.5120430000000  0.5111950000000 1.0
C      1  0.4896040000000  0.5155560000000  0.4703440000000 1.0
C      1  0.4671160000000  0.5269580000000  0.5246690000000 1.0
C      1  0.5322970000000  0.5209380000000  0.4573410000000 1.0
C      1  0.4757270000000  0.4594100000000  0.5173240000000 1.0
C      1  0.5256750000000  0.4564770000000  0.4746170000000 1.0
C      1  0.4760590000000  0.5088990000000  0.4476960000000 1.0
C      1  0.5197160000000  0.5213310000000  0.5361560000000 1.0
C      1  0.4640760000000  0.4846920000000  0.4486070000000 1.0
C      1  0.5518540000000  0.4899850000000  0.5305550000000 1.0
C      1  0.5188650000000  0.5907780000000  0.5598040000000 1.0
C      1  0.4801470000000  0.5888630000000  0.4492970000000 1.0
C      1  0.5186460000000  0.4136460000000  0.5579380000000 1.0
C      1  0.4792380000000  0.4079380000000  0.4413550000000 1.0
C      1  0.5111980000000  0.5881940000000  0.4505550000000 1.0
C      1  0.4867520000000  0.5867250000000  0.5541990000000 1.0
C      1  0.5140350000000  0.4104910000000  0.4447590000000 1.0
C      1  0.4873580000000  0.4167760000000  0.5533720000000 1.0
C      1  0.5269180000000  0.4304720000000  0.4882230000000 1.0
C      1  0.4737870000000  0.4316350000000  0.5090170000000 1.0
C      1  0.5181650000000  0.5756240000000  0.4972900000000 1.0
C      1  0.4725320000000  0.5541800000000  0.5141340000000 1.0
C      1  0.5247210000000  0.4310350000000  0.5155410000000 1.0
C      1  0.4770210000000  0.4270230000000  0.4824530000000 1.0
C      1  0.5172690000000  0.5661710000000  0.5233880000000 1.0
C      1  0.4783860000000  0.5596200000000  0.4872580000000 1.0
C      1  0.5304500000000  0.5415200000000  0.6120780000000 1.0
C      1  0.4696220000000  0.5423610000000  0.3852450000000 1.0
C      1  0.5311850000000  0.4651540000000  0.6137440000000 1.0
C      1  0.4681940000000  0.4604930000000  0.3847960000000 1.0
C      1  0.5185030000000  0.5385580000000  0.3931960000000 1.0
C      1  0.4822990000000  0.5408330000000  0.6136230000000 1.0
C      1  0.5193150000000  0.4643110000000  0.3905410000000 1.0
C      1  0.4805300000000  0.4737840000000  0.6037950000000 1.0
C      1  0.5187980000000  0.4568110000000  0.5267630000000 1.0
C      1  0.4833780000000  0.4499150000000  0.4670290000000 1.0
C      1  0.5081860000000  0.5453970000000  0.5424980000000 1.0
C      1  0.4940880000000  0.5436940000000  0.4710090000000 1.0
C      1  0.5076020000000  0.4549240000000  0.4531010000000 1.0
C      1  0.4937410000000  0.4611200000000  0.5398000000000 1.0
C      1  0.5164690000000  0.5448500000000  0.4529370000000 1.0
C      1  0.4913470000000  0.5418620000000  0.5662650000000 1.0
C      1  0.5296740000000  0.4919990000000  0.6129040000000 1.0
C      1  0.4633790000000  0.4856150000000  0.3976680000000 1.0
C      1  0.5230960000000  0.5159780000000  0.5963580000000 1.0
C      1  0.4752880000000  0.5142480000000  0.3981530000000 1.0
C      1  0.5244690000000  0.4901380000000  0.4003890000000 1.0
C      1  0.4774620000000  0.4975250000000  0.5894460000000 1.0
C      1  0.5067340000000  0.5124130000000  0.3953320000000 1.0
C      1  0.4933880000000  0.5217620000000  0.5918000000000 1.0
C      1  0.4670830000000  0.5776450000000  0.5307430000000 1.0
C      1  0.5316700000000  0.5819070000000  0.4731860000000 1.0
C      1  0.4650040000000  0.4165880000000  0.5318640000000 1.0
C      1  0.5360540000000  0.4129190000000  0.4669530000000 1.0
C      1  0.4639050000000  0.5788940000000  0.4724870000000 1.0
C      1  0.5358250000000  0.5831040000000  0.5368860000000 1.0
C      1  0.4610940000000  0.4105360000000  0.4655570000000 1.0
C      1  0.5379430000000  0.4153790000000  0.5348900000000 1.0
C      1  0.5856720000000  0.4967450000000  0.4931460000000 1.0
C      1  0.5799620000000  0.4961800000000  0.5210510000000 1.0
C      1  0.4043840000000  0.5001480000000  0.5125700000000 1.0
C      1  0.4076850000000  0.4990470000000  0.4853950000000 1.0
END
