TITL C-3201376-6384-1829 862.779411769487 125000 -1000.99008855777 0 0 164 (D3) n - 1
REM
REM in /home/nfs/bkarasulu/CARBON/AIRSS/Generating-Clusters/LCBOP/Higher-Symm/SD-CG/FIRE-CG
REM
REM
REM
REM
REM
REM ./C.cell (b20cbc046b6831c77cfcea5457e17084)
REM AIRSS Version 0.9.1 bugfix July 2018 build 013d7b7c2542+ Fri, 06 Jul 2018 19:26:36 +0100
REM compiler GCC version 9.2.1 20190827 (Red Hat 9.2.1-1)
REM options -cpp -mtune=generic -march=x86-64 -g -O0 -fpre-include=/usr/include/finclude/math-vector-fortran.h
REM seed 896002506 -1624663332 -1629365741 1929256868 -810575418 1269479963 -1148213654 1348405322 142499181 105039320 -1280881222 428679018 -952280860 -303750765 1057047226 2041694443 -1362625399 78848548 -1700606847 1855353722 1557490872 -1404894793 766482346 -86019665 -1587400981 -439470047 -1106262618 -310370682 -1733321200 -989788431 1762331093 -1880299178 -766732198
REM
CELL 1.54180   50.00000   50.00000   50.00000   90.00000   90.00000   90.00000
LATT -1
SFAC C  
C      1  0.5892880000000  0.5470520000000  0.5047710000000 1.0
C      1  0.5893800000000  0.4806110000000  0.4569710000000 1.0
C      1  0.5892650000000  0.4724520000000  0.5385070000000 1.0
C      1  0.4098900000000  0.5471340000000  0.4953780000000 1.0
C      1  0.4098670000000  0.4806340000000  0.5431370000000 1.0
C      1  0.4097710000000  0.4724310000000  0.4617000000000 1.0
C      1  0.5208740000000  0.6044180000000  0.5141720000000 1.0
C      1  0.5208590000000  0.4600620000000  0.4026480000000 1.0
C      1  0.5208720000000  0.4356660000000  0.5835390000000 1.0
C      1  0.4782830000000  0.6045220000000  0.4860140000000 1.0
C      1  0.4782820000000  0.4601090000000  0.5975220000000 1.0
C      1  0.4782890000000  0.4356450000000  0.4167520000000 1.0
C      1  0.5855020000000  0.5009280000000  0.5838110000000 1.0
C      1  0.5855330000000  0.5720790000000  0.4574820000000 1.0
C      1  0.5854880000000  0.4271600000000  0.4590620000000 1.0
C      1  0.4136610000000  0.5009530000000  0.4164470000000 1.0
C      1  0.4136550000000  0.5721470000000  0.5426820000000 1.0
C      1  0.4136200000000  0.4271660000000  0.5411840000000 1.0
C      1  0.5512690000000  0.4851960000000  0.5612190000000 1.0
C      1  0.5513180000000  0.5602220000000  0.4823500000000 1.0
C      1  0.5513250000000  0.4547100000000  0.4568330000000 1.0
C      1  0.4478250000000  0.4852540000000  0.4391950000000 1.0
C      1  0.4478870000000  0.5604380000000  0.5177640000000 1.0
C      1  0.4478360000000  0.4546310000000  0.5433400000000 1.0
C      1  0.5083690000000  0.5088820000000  0.5372470000000 1.0
C      1  0.5084280000000  0.5278650000000  0.4737930000000 1.0
C      1  0.5083420000000  0.4634650000000  0.4891720000000 1.0
C      1  0.4908100000000  0.5088900000000  0.4629360000000 1.0
C      1  0.4907870000000  0.5278360000000  0.5263000000000 1.0
C      1  0.4907250000000  0.4633870000000  0.5110340000000 1.0
C      1  0.5604730000000  0.5055070000000  0.5198260000000 1.0
C      1  0.5607120000000  0.5141730000000  0.4849280000000 1.0
C      1  0.5602350000000  0.4806590000000  0.4951530000000 1.0
C      1  0.4389170000000  0.5054800000000  0.4808210000000 1.0
C      1  0.4386820000000  0.5144350000000  0.5146730000000 1.0
C      1  0.4384410000000  0.4798750000000  0.5047410000000 1.0
C      1  0.3961630000000  0.5242410000000  0.4830380000000 1.0
C      1  0.3960020000000  0.4731940000000  0.4876820000000 1.0
C      1  0.3961290000000  0.5027760000000  0.5295290000000 1.0
C      1  0.6030260000000  0.5242000000000  0.5171490000000 1.0
C      1  0.6029900000000  0.4732030000000  0.5125100000000 1.0
C      1  0.6031500000000  0.5027340000000  0.4706140000000 1.0
C      1  0.4398060000000  0.4813230000000  0.5526030000000 1.0
C      1  0.4398260000000  0.5550890000000  0.4899970000000 1.0
C      1  0.4397190000000  0.4637790000000  0.4575540000000 1.0
C      1  0.5594310000000  0.4813440000000  0.4474060000000 1.0
C      1  0.5593490000000  0.5549080000000  0.5100990000000 1.0
C      1  0.5593280000000  0.4638170000000  0.5427100000000 1.0
C      1  0.5147750000000  0.4199730000000  0.5007900000000 1.0
C      1  0.5147230000000  0.5407010000000  0.5691160000000 1.0
C      1  0.5146620000000  0.5395500000000  0.4302960000000 1.0
C      1  0.4844900000000  0.4198710000000  0.4994200000000 1.0
C      1  0.4843760000000  0.5406870000000  0.4310700000000 1.0
C      1  0.4844340000000  0.5395410000000  0.5697870000000 1.0
C      1  0.4474350000000  0.5088520000000  0.4551190000000 1.0
C      1  0.4474000000000  0.4562720000000  0.5149440000000 1.0
C      1  0.4474690000000  0.5349110000000  0.5303540000000 1.0
C      1  0.5516860000000  0.5088570000000  0.5453990000000 1.0
C      1  0.5517160000000  0.4567110000000  0.4852310000000 1.0
C      1  0.5517530000000  0.5348060000000  0.4695820000000 1.0
C      1  0.6042150000000  0.5678750000000  0.5643410000000 1.0
C      1  0.6043000000000  0.5218160000000  0.4091890000000 1.0
C      1  0.6042610000000  0.4105080000000  0.5267350000000 1.0
C      1  0.3948920000000  0.5678930000000  0.4358400000000 1.0
C      1  0.3949430000000  0.5218280000000  0.5909420000000 1.0
C      1  0.3948500000000  0.4104530000000  0.4735150000000 1.0
C      1  0.4195860000000  0.5299780000000  0.4140100000000 1.0
C      1  0.4195820000000  0.4105460000000  0.5172540000000 1.0
C      1  0.4196210000000  0.5597110000000  0.5690240000000 1.0
C      1  0.5795370000000  0.5299590000000  0.5862040000000 1.0
C      1  0.5795640000000  0.4105460000000  0.4829860000000 1.0
C      1  0.5795690000000  0.5596560000000  0.4311280000000 1.0
C      1  0.5493870000000  0.4694310000000  0.6059420000000 1.0
C      1  0.5493890000000  0.6068980000000  0.4737490000000 1.0
C      1  0.5493890000000  0.4238440000000  0.4207760000000 1.0
C      1  0.4497590000000  0.4694460000000  0.3944400000000 1.0
C      1  0.4497700000000  0.6070550000000  0.5264580000000 1.0
C      1  0.4497660000000  0.4238560000000  0.5794710000000 1.0
C      1  0.5021030000000  0.5081060000000  0.6026050000000 1.0
C      1  0.5020720000000  0.5848380000000  0.4418820000000 1.0
C      1  0.5021510000000  0.4072380000000  0.4558060000000 1.0
C      1  0.4969980000000  0.5080860000000  0.3975590000000 1.0
C      1  0.4970550000000  0.5848370000000  0.5582880000000 1.0
C      1  0.4970800000000  0.4072760000000  0.5444360000000 1.0
C      1  0.5332840000000  0.4550730000000  0.5304400000000 1.0
C      1  0.5333530000000  0.5487330000000  0.5238690000000 1.0
C      1  0.5333140000000  0.4963070000000  0.4458750000000 1.0
C      1  0.4658360000000  0.4549750000000  0.4697490000000 1.0
C      1  0.4658700000000  0.5488310000000  0.4762900000000 1.0
C      1  0.4658020000000  0.4963350000000  0.5541350000000 1.0
C      1  0.5213010000000  0.5259630000000  0.4031310000000 1.0
C      1  0.5213950000000  0.4032580000000  0.5261680000000 1.0
C      1  0.5213580000000  0.5710290000000  0.5709120000000 1.0
C      1  0.4778000000000  0.5259410000000  0.5969540000000 1.0
C      1  0.4778490000000  0.4031320000000  0.4740770000000 1.0
C      1  0.4777570000000  0.5710220000000  0.4292730000000 1.0
C      1  0.5239290000000  0.4341030000000  0.4153210000000 1.0
C      1  0.5239230000000  0.4596120000000  0.5997090000000 1.0
C      1  0.5239280000000  0.6064480000000  0.4853580000000 1.0
C      1  0.4752270000000  0.4341360000000  0.5848810000000 1.0
C      1  0.4752190000000  0.4595940000000  0.4006000000000 1.0
C      1  0.4752340000000  0.6065620000000  0.5148370000000 1.0
C      1  0.5961810000000  0.5418650000000  0.5650240000000 1.0
C      1  0.5962630000000  0.5353880000000  0.4313870000000 1.0
C      1  0.5962070000000  0.4229250000000  0.5038800000000 1.0
C      1  0.4029440000000  0.5418900000000  0.4351750000000 1.0
C      1  0.4029760000000  0.5354170000000  0.5687540000000 1.0
C      1  0.4028890000000  0.4228990000000  0.4963630000000 1.0
C      1  0.4725440000000  0.5689360000000  0.5695800000000 1.0
C      1  0.4724690000000  0.5258110000000  0.4057290000000 1.0
C      1  0.4725690000000  0.4054030000000  0.5249950000000 1.0
C      1  0.5265830000000  0.5689320000000  0.4305440000000 1.0
C      1  0.5266140000000  0.5258320000000  0.5944730000000 1.0
C      1  0.5266810000000  0.4054560000000  0.4752410000000 1.0
C      1  0.4982770000000  0.4778460000000  0.3981780000000 1.0
C      1  0.4983080000000  0.4229150000000  0.5703230000000 1.0
C      1  0.4982950000000  0.5994490000000  0.5318190000000 1.0
C      1  0.5008620000000  0.4778770000000  0.6020350000000 1.0
C      1  0.5008710000000  0.4228850000000  0.4299210000000 1.0
C      1  0.5008460000000  0.5994460000000  0.4683640000000 1.0
C      1  0.6039650000000  0.5287890000000  0.4587640000000 1.0
C      1  0.6038510000000  0.4499290000000  0.4958930000000 1.0
C      1  0.6038460000000  0.5214480000000  0.5456290000000 1.0
C      1  0.3953100000000  0.5288200000000  0.5413780000000 1.0
C      1  0.3951880000000  0.4499100000000  0.5043290000000 1.0
C      1  0.3953010000000  0.5214780000000  0.4545750000000 1.0
C      1  0.4692050000000  0.5266390000000  0.5470930000000 1.0
C      1  0.4691810000000  0.5274820000000  0.4536480000000 1.0
C      1  0.4692230000000  0.4459330000000  0.4995320000000 1.0
C      1  0.5299290000000  0.5266240000000  0.4529260000000 1.0
C      1  0.5299510000000  0.5274910000000  0.5465990000000 1.0
C      1  0.5299710000000  0.4461280000000  0.5006340000000 1.0
C      1  0.4454410000000  0.5406420000000  0.4049050000000 1.0
C      1  0.4454760000000  0.3973340000000  0.5125740000000 1.0
C      1  0.4454920000000  0.5622440000000  0.5828100000000 1.0
C      1  0.5536670000000  0.5406360000000  0.5952870000000 1.0
C      1  0.5537090000000  0.3973310000000  0.4876740000000 1.0
C      1  0.5536750000000  0.5622050000000  0.4173460000000 1.0
C      1  0.5457590000000  0.3901300000000  0.5161840000000 1.0
C      1  0.5457280000000  0.5689320000000  0.5872640000000 1.0
C      1  0.5457140000000  0.5411300000000  0.3968240000000 1.0
C      1  0.4534360000000  0.3900900000000  0.4840630000000 1.0
C      1  0.4533920000000  0.5689350000000  0.4129140000000 1.0
C      1  0.4534310000000  0.5411540000000  0.6033100000000 1.0
C      1  0.4942150000000  0.4868080000000  0.5491830000000 1.0
C      1  0.4943040000000  0.5492490000000  0.4869760000000 1.0
C      1  0.4942390000000  0.4641350000000  0.4640420000000 1.0
C      1  0.5049120000000  0.4867870000000  0.4509580000000 1.0
C      1  0.5049400000000  0.5492060000000  0.5131430000000 1.0
C      1  0.5048500000000  0.4641200000000  0.5361440000000 1.0
C      1  0.4362870000000  0.4845540000000  0.4131180000000 1.0
C      1  0.4362410000000  0.4324710000000  0.5570770000000 1.0
C      1  0.4362420000000  0.5833420000000  0.5301530000000 1.0
C      1  0.5629140000000  0.4844810000000  0.5872480000000 1.0
C      1  0.5628620000000  0.4324720000000  0.4431950000000 1.0
C      1  0.5629130000000  0.5831950000000  0.4700200000000 1.0
C      1  0.4004690000000  0.4947540000000  0.4428570000000 1.0
C      1  0.4004440000000  0.4531530000000  0.5333230000000 1.0
C      1  0.4005120000000  0.5523370000000  0.5240970000000 1.0
C      1  0.5986440000000  0.4947290000000  0.5573640000000 1.0
C      1  0.5986820000000  0.4531340000000  0.4668900000000 1.0
C      1  0.5987090000000  0.5522830000000  0.4760620000000 1.0
C      1  0.3922120000000  0.5000810000000  0.5000830000000 1.0
C      1  0.6069420000000  0.5000400000000  0.5001000000000 1.0
END
