TITL C-3201375-1262-1184 -0.166684205050857 125000 -452.68284701349 0 0 77 (C1) n - 1
REM
REM in /home/nfs/bkarasulu/CARBON/AIRSS/Generating-Clusters/LCBOP/Higher-Symm/SD-CG/FIRE-CG
REM
REM
REM
REM
REM
REM ./C.cell (b20cbc046b6831c77cfcea5457e17084)
REM AIRSS Version 0.9.1 bugfix July 2018 build 013d7b7c2542+ Fri, 06 Jul 2018 19:26:36 +0100
REM compiler GCC version 9.2.1 20190827 (Red Hat 9.2.1-1)
REM options -cpp -mtune=generic -march=x86-64 -g -O0 -fpre-include=/usr/include/finclude/math-vector-fortran.h
REM seed 1609334709 -603380996 -1749367114 777457664 -361525176 1069313660 1574622763 -1332203577 -726278227 2024350916 389700023 -1378283001 1183198016 116338737 -272694899 -2098699634 1510256667 1614035885 -761865293 1186900353 2004703654 -1887180735 -274085572 -1569883636 463814538 -1490279527 -504221444 1858387831 1974716061 2023059583 -1695568188 878337005 -30259245
REM
CELL 1.54180   50.00000   50.00000   50.00000   90.00000   90.00000   90.00000
LATT -1
SFAC C  
C      1  0.5224880000000  0.5487610000000  0.4834640000000 1.0
C      1  0.4694560000000  0.5521110000000  0.5020930000000 1.0
C      1  0.5124600000000  0.5500250000000  0.5389950000000 1.0
C      1  0.4630800000000  0.4608120000000  0.5270460000000 1.0
C      1  0.5712190000000  0.4541520000000  0.5118030000000 1.0
C      1  0.4772740000000  0.4345720000000  0.4393990000000 1.0
C      1  0.5664600000000  0.4490450000000  0.5853930000000 1.0
C      1  0.5297010000000  0.4512670000000  0.3989090000000 1.0
C      1  0.3908280000000  0.4636320000000  0.5069680000000 1.0
C      1  0.5163580000000  0.4987820000000  0.4020900000000 1.0
C      1  0.3942890000000  0.5113840000000  0.5215700000000 1.0
C      1  0.5694800000000  0.4985440000000  0.5880180000000 1.0
C      1  0.5074740000000  0.4473870000000  0.5420260000000 1.0
C      1  0.5554930000000  0.4422460000000  0.4662330000000 1.0
C      1  0.4410540000000  0.4258840000000  0.4702140000000 1.0
C      1  0.5095320000000  0.5939450000000  0.4750110000000 1.0
C      1  0.4735620000000  0.5968250000000  0.5187340000000 1.0
C      1  0.5290580000000  0.5937030000000  0.5283720000000 1.0
C      1  0.5036220000000  0.5696760000000  0.5599590000000 1.0
C      1  0.5469230000000  0.5660810000000  0.4809150000000 1.0
C      1  0.4570180000000  0.5714080000000  0.4826480000000 1.0
C      1  0.4510750000000  0.3684160000000  0.4276330000000 1.0
C      1  0.5236370000000  0.4904600000000  0.4946720000000 1.0
C      1  0.5630670000000  0.5061630000000  0.4709000000000 1.0
C      1  0.4552180000000  0.5967070000000  0.4965430000000 1.0
C      1  0.5190220000000  0.5937220000000  0.5553610000000 1.0
C      1  0.5377590000000  0.5913730000000  0.4703740000000 1.0
C      1  0.4288530000000  0.4838380000000  0.5729660000000 1.0
C      1  0.6083730000000  0.4954500000000  0.5324270000000 1.0
C      1  0.4676290000000  0.4879820000000  0.4546000000000 1.0
C      1  0.5068030000000  0.5277750000000  0.4400290000000 1.0
C      1  0.4349750000000  0.5353200000000  0.5348900000000 1.0
C      1  0.5570850000000  0.5286850000000  0.5512790000000 1.0
C      1  0.5029550000000  0.4815270000000  0.5087330000000 1.0
C      1  0.5491450000000  0.4865870000000  0.4838200000000 1.0
C      1  0.4541000000000  0.3921050000000  0.4380680000000 1.0
C      1  0.5766320000000  0.4654630000000  0.6280890000000 1.0
C      1  0.5374550000000  0.4758780000000  0.3598720000000 1.0
C      1  0.3511770000000  0.4886320000000  0.5037730000000 1.0
C      1  0.4907860000000  0.4630610000000  0.5259240000000 1.0
C      1  0.5601950000000  0.4604130000000  0.4869030000000 1.0
C      1  0.4574670000000  0.4174910000000  0.4492060000000 1.0
C      1  0.3451330000000  0.4623500000000  0.4972040000000 1.0
C      1  0.5774320000000  0.4377130000000  0.6291960000000 1.0
C      1  0.5451850000000  0.4496170000000  0.3550720000000 1.0
C      1  0.5040480000000  0.5032800000000  0.4268660000000 1.0
C      1  0.4187940000000  0.5127030000000  0.5351310000000 1.0
C      1  0.5706920000000  0.5064240000000  0.5610570000000 1.0
C      1  0.5414500000000  0.5483430000000  0.5397440000000 1.0
C      1  0.5084120000000  0.5486400000000  0.4580760000000 1.0
C      1  0.4542550000000  0.5533310000000  0.5267980000000 1.0
C      1  0.5407430000000  0.4344970000000  0.3779730000000 1.0
C      1  0.3682090000000  0.4469800000000  0.4990860000000 1.0
C      1  0.5715880000000  0.4274090000000  0.6040530000000 1.0
C      1  0.5311890000000  0.4421950000000  0.5528220000000 1.0
C      1  0.5410770000000  0.4378310000000  0.4443000000000 1.0
C      1  0.4281280000000  0.4383370000000  0.4896980000000 1.0
C      1  0.3792330000000  0.4908500000000  0.5105520000000 1.0
C      1  0.5702280000000  0.4740890000000  0.6012070000000 1.0
C      1  0.5274200000000  0.4784150000000  0.3869030000000 1.0
C      1  0.4962860000000  0.4545010000000  0.4344520000000 1.0
C      1  0.4360090000000  0.4678380000000  0.5275510000000 1.0
C      1  0.5725400000000  0.4629760000000  0.5384210000000 1.0
C      1  0.4624920000000  0.5781950000000  0.5393860000000 1.0
C      1  0.5505440000000  0.5729180000000  0.5270260000000 1.0
C      1  0.4956850000000  0.5748080000000  0.4566960000000 1.0
C      1  0.4280690000000  0.4880590000000  0.5459750000000 1.0
C      1  0.5843560000000  0.4884990000000  0.5435330000000 1.0
C      1  0.4893110000000  0.4819230000000  0.4388650000000 1.0
C      1  0.5222790000000  0.4466900000000  0.4255600000000 1.0
C      1  0.4179710000000  0.4564400000000  0.5085550000000 1.0
C      1  0.5575490000000  0.4496380000000  0.5587860000000 1.0
C      1  0.4676990000000  0.5735250000000  0.4569060000000 1.0
C      1  0.4763070000000  0.5744740000000  0.5634700000000 1.0
C      1  0.5640490000000  0.5686390000000  0.5028570000000 1.0
C      1  0.5037860000000  0.5898770000000  0.5075990000000 1.0
C      1  0.5017970000000  0.5553720000000  0.5081070000000 1.0
END
