TITL C-3201379-3821-424 36138.9679494929 125000 -760.504003849809 0 0 126 (C1) n - 1
REM
REM in /home/nfs/bkarasulu/CARBON/AIRSS/Generating-Clusters/LCBOP/Higher-Symm/SD-CG/FIRE-CG
REM
REM
REM
REM
REM
REM ./C.cell (b20cbc046b6831c77cfcea5457e17084)
REM AIRSS Version 0.9.1 bugfix July 2018 build 013d7b7c2542+ Fri, 06 Jul 2018 19:26:36 +0100
REM compiler GCC version 9.2.1 20190827 (Red Hat 9.2.1-1)
REM options -cpp -mtune=generic -march=x86-64 -g -O0 -fpre-include=/usr/include/finclude/math-vector-fortran.h
REM seed -741687254 -1698369692 -514608750 -140808803 1496703659 -70810046 -1653297792 1173520611 57626528 452857861 978663834 -1079194067 -982134253 818434753 439776106 1086838923 1740208017 -542133821 -1461890220 -743296168 122318621 -2094465816 1765087664 -1368641975 -1880161586 1698545279 -173552535 883399113 -1066909265 -98550768 -1355307062 876281503 -1839798971
REM
CELL 1.54180   50.00000   50.00000   50.00000   90.00000   90.00000   90.00000
LATT -1
SFAC C  
C      1  0.4621950000000  0.5316750000000  0.6004540000000 1.0
C      1  0.5875320000000  0.4837200000000  0.5543720000000 1.0
C      1  0.5597080000000  0.5945310000000  0.4796300000000 1.0
C      1  0.4807600000000  0.4871040000000  0.3783720000000 1.0
C      1  0.5260550000000  0.4812160000000  0.6070640000000 1.0
C      1  0.5009300000000  0.5534120000000  0.4044410000000 1.0
C      1  0.6103850000000  0.4829740000000  0.4786920000000 1.0
C      1  0.4029610000000  0.5133790000000  0.5458870000000 1.0
C      1  0.4042760000000  0.4679990000000  0.4748180000000 1.0
C      1  0.5415770000000  0.4012420000000  0.5016210000000 1.0
C      1  0.4613310000000  0.4006000000000  0.4837150000000 1.0
C      1  0.4931600000000  0.6164140000000  0.4934160000000 1.0
C      1  0.4884100000000  0.5450340000000  0.6008250000000 1.0
C      1  0.4012580000000  0.4840160000000  0.5474580000000 1.0
C      1  0.5030240000000  0.6290590000000  0.4701090000000 1.0
C      1  0.5088500000000  0.4928030000000  0.3739100000000 1.0
C      1  0.5001720000000  0.4720470000000  0.6152730000000 1.0
C      1  0.4712860000000  0.5498820000000  0.4068450000000 1.0
C      1  0.4046650000000  0.4991690000000  0.4715940000000 1.0
C      1  0.5949210000000  0.5113350000000  0.5428480000000 1.0
C      1  0.5922630000000  0.4611230000000  0.4825510000000 1.0
C      1  0.4684240000000  0.3968670000000  0.5137830000000 1.0
C      1  0.5373930000000  0.4098750000000  0.4736260000000 1.0
C      1  0.5599020000000  0.5924160000000  0.5089210000000 1.0
C      1  0.5470700000000  0.5471350000000  0.4805060000000 1.0
C      1  0.4841290000000  0.5499110000000  0.5419050000000 1.0
C      1  0.5433760000000  0.4939640000000  0.5490030000000 1.0
C      1  0.5441070000000  0.4507610000000  0.5183400000000 1.0
C      1  0.4595260000000  0.4444800000000  0.4949840000000 1.0
C      1  0.4603880000000  0.5743240000000  0.4990160000000 1.0
C      1  0.4923220000000  0.4579590000000  0.4181070000000 1.0
C      1  0.5145170000000  0.4590930000000  0.5624810000000 1.0
C      1  0.5103160000000  0.5320020000000  0.4471500000000 1.0
C      1  0.5692400000000  0.5044410000000  0.4565910000000 1.0
C      1  0.4498550000000  0.5102210000000  0.5479980000000 1.0
C      1  0.4485350000000  0.4657130000000  0.4534040000000 1.0
C      1  0.4492630000000  0.5542820000000  0.4793050000000 1.0
C      1  0.5093640000000  0.5600540000000  0.5560120000000 1.0
C      1  0.4512530000000  0.4802430000000  0.5576850000000 1.0
C      1  0.4524390000000  0.4428030000000  0.5235740000000 1.0
C      1  0.5337110000000  0.4519840000000  0.4896320000000 1.0
C      1  0.5460350000000  0.5511850000000  0.5104780000000 1.0
C      1  0.5208260000000  0.4659260000000  0.4143500000000 1.0
C      1  0.4870040000000  0.4479240000000  0.5707330000000 1.0
C      1  0.4799440000000  0.5323150000000  0.4488770000000 1.0
C      1  0.4439790000000  0.4948630000000  0.4441490000000 1.0
C      1  0.5473490000000  0.5230060000000  0.5466840000000 1.0
C      1  0.5599730000000  0.4790080000000  0.4475840000000 1.0
C      1  0.4535350000000  0.4716120000000  0.4837140000000 1.0
C      1  0.4896170000000  0.4379710000000  0.4979250000000 1.0
C      1  0.4795350000000  0.4615980000000  0.4437110000000 1.0
C      1  0.4425270000000  0.5097530000000  0.5182560000000 1.0
C      1  0.5600660000000  0.5186480000000  0.4788580000000 1.0
C      1  0.5512050000000  0.4807490000000  0.5214670000000 1.0
C      1  0.4804610000000  0.5593900000000  0.5152210000000 1.0
C      1  0.5177190000000  0.5427750000000  0.4745200000000 1.0
C      1  0.5215510000000  0.4440880000000  0.5373950000000 1.0
C      1  0.4768440000000  0.5224990000000  0.5471860000000 1.0
C      1  0.5161570000000  0.5008610000000  0.4460580000000 1.0
C      1  0.5136790000000  0.4878650000000  0.5511670000000 1.0
C      1  0.5523980000000  0.5035820000000  0.5028450000000 1.0
C      1  0.5069110000000  0.4565280000000  0.4864780000000 1.0
C      1  0.5340430000000  0.4810060000000  0.4349940000000 1.0
C      1  0.5370160000000  0.5252480000000  0.5184290000000 1.0
C      1  0.4445320000000  0.4944950000000  0.4967280000000 1.0
C      1  0.4625790000000  0.4680250000000  0.5323060000000 1.0
C      1  0.5250580000000  0.5734490000000  0.5325330000000 1.0
C      1  0.4729810000000  0.5372200000000  0.4771310000000 1.0
C      1  0.5011290000000  0.4304570000000  0.5230720000000 1.0
C      1  0.5306410000000  0.5395670000000  0.5641760000000 1.0
C      1  0.4704640000000  0.5053450000000  0.4459870000000 1.0
C      1  0.4689700000000  0.4689340000000  0.5794370000000 1.0
C      1  0.4349400000000  0.5441280000000  0.4536960000000 1.0
C      1  0.4750930000000  0.4232670000000  0.5602110000000 1.0
C      1  0.5700740000000  0.4558390000000  0.4630230000000 1.0
C      1  0.4610770000000  0.4176490000000  0.5350280000000 1.0
C      1  0.5489440000000  0.4369820000000  0.4702120000000 1.0
C      1  0.5719060000000  0.5589150000000  0.5231500000000 1.0
C      1  0.4588610000000  0.5477500000000  0.4330630000000 1.0
C      1  0.4969370000000  0.5661950000000  0.5832450000000 1.0
C      1  0.5261940000000  0.4748360000000  0.3876290000000 1.0
C      1  0.5761720000000  0.5343770000000  0.5418180000000 1.0
C      1  0.4239690000000  0.5135100000000  0.4541040000000 1.0
C      1  0.4226050000000  0.4726100000000  0.5622020000000 1.0
C      1  0.5535340000000  0.5709350000000  0.4637600000000 1.0
C      1  0.5399370000000  0.4671480000000  0.5857660000000 1.0
C      1  0.4263940000000  0.4453770000000  0.4601510000000 1.0
C      1  0.5562910000000  0.4216040000000  0.5169730000000 1.0
C      1  0.4440820000000  0.4244410000000  0.4775530000000 1.0
C      1  0.4691430000000  0.6010090000000  0.4940550000000 1.0
C      1  0.5187850000000  0.5529420000000  0.4273470000000 1.0
C      1  0.4381980000000  0.5369670000000  0.5847730000000 1.0
C      1  0.4764280000000  0.4643630000000  0.3950390000000 1.0
C      1  0.4265020000000  0.5244780000000  0.5613500000000 1.0
C      1  0.5404060000000  0.5692530000000  0.4377230000000 1.0
C      1  0.5610590000000  0.4798810000000  0.5688830000000 1.0
C      1  0.5938390000000  0.4530140000000  0.5103830000000 1.0
C      1  0.5285910000000  0.6309810000000  0.4616430000000 1.0
C      1  0.4751130000000  0.4805180000000  0.6045210000000 1.0
C      1  0.6140610000000  0.5107320000000  0.5215080000000 1.0
C      1  0.3940850000000  0.5147490000000  0.4938610000000 1.0
C      1  0.3908640000000  0.4686480000000  0.5258680000000 1.0
C      1  0.4939580000000  0.3832110000000  0.5176710000000 1.0
C      1  0.5117860000000  0.4017440000000  0.4626850000000 1.0
C      1  0.5338800000000  0.5966740000000  0.5220000000000 1.0
C      1  0.4595470000000  0.5335630000000  0.3866740000000 1.0
C      1  0.5103570000000  0.5301400000000  0.6121030000000 1.0
C      1  0.5162860000000  0.5194910000000  0.3689720000000 1.0
C      1  0.3932480000000  0.4604600000000  0.5002240000000 1.0
C      1  0.5519740000000  0.6190590000000  0.4677240000000 1.0
C      1  0.5278130000000  0.5094080000000  0.6113790000000 1.0
C      1  0.3944220000000  0.5227320000000  0.5199680000000 1.0
C      1  0.6186440000000  0.5015190000000  0.4966230000000 1.0
C      1  0.5951090000000  0.4620380000000  0.5362180000000 1.0
C      1  0.5207710000000  0.3853060000000  0.5132530000000 1.0
C      1  0.4850110000000  0.3970960000000  0.4665400000000 1.0
C      1  0.5132150000000  0.6139680000000  0.5135990000000 1.0
C      1  0.5124290000000  0.5435560000000  0.3803540000000 1.0
C      1  0.4632950000000  0.5051550000000  0.6111340000000 1.0
C      1  0.4626450000000  0.5086250000000  0.3770370000000 1.0
C      1  0.5087680000000  0.5216640000000  0.5144190000000 1.0
C      1  0.4955170000000  0.5408580000000  0.4956190000000 1.0
C      1  0.4910820000000  0.4871810000000  0.4573190000000 1.0
C      1  0.4959040000000  0.5034060000000  0.5336490000000 1.0
C      1  0.4825820000000  0.4836580000000  0.5157850000000 1.0
C      1  0.4945410000000  0.4822290000000  0.4872380000000 1.0
END
