TITL C-3201378-2706-2214 0.558495537247833 125000 -767.685807819522 0 0 128 (C1) n - 1
REM
REM in /home/nfs/bkarasulu/CARBON/AIRSS/Generating-Clusters/LCBOP/Higher-Symm/SD-CG/FIRE-CG
REM
REM
REM
REM
REM
REM ./C.cell (b20cbc046b6831c77cfcea5457e17084)
REM AIRSS Version 0.9.1 bugfix July 2018 build 013d7b7c2542+ Fri, 06 Jul 2018 19:26:36 +0100
REM compiler GCC version 9.2.1 20190827 (Red Hat 9.2.1-1)
REM options -cpp -mtune=generic -march=x86-64 -g -O0 -fpre-include=/usr/include/finclude/math-vector-fortran.h
REM seed -1734013010 925194370 1727002669 -2079607990 893354912 483286187 -2009572774 1413988042 2055267822 1167012702 174856841 184541467 -1761099556 -220786423 260586463 -3928922 -1790637346 10292233 -219816845 -1944704241 1159584676 505173984 -1385897776 -546563862 -1473019340 -1774922357 1518903867 -337492668 -73109014 554950681 967852306 1876924433 -290549958
REM
CELL 1.54180   50.00000   50.00000   50.00000   90.00000   90.00000   90.00000
LATT -1
SFAC C  
C      1  0.6158720000000  0.5316930000000  0.6081000000000 1.0
C      1  0.4097240000000  0.5365960000000  0.6244420000000 1.0
C      1  0.3764890000000  0.5349540000000  0.3930680000000 1.0
C      1  0.5847050000000  0.5302780000000  0.3735030000000 1.0
C      1  0.5847550000000  0.5900350000000  0.5783730000000 1.0
C      1  0.4184160000000  0.5892220000000  0.5805390000000 1.0
C      1  0.4143350000000  0.5828090000000  0.4217520000000 1.0
C      1  0.5797890000000  0.5876640000000  0.4166570000000 1.0
C      1  0.4854130000000  0.5626730000000  0.4247520000000 1.0
C      1  0.5834730000000  0.5613720000000  0.4854500000000 1.0
C      1  0.5148480000000  0.5671380000000  0.5739280000000 1.0
C      1  0.4152870000000  0.5560220000000  0.5148470000000 1.0
C      1  0.4351850000000  0.4217180000000  0.5210780000000 1.0
C      1  0.4788890000000  0.4280360000000  0.4327730000000 1.0
C      1  0.5673400000000  0.4283230000000  0.4755140000000 1.0
C      1  0.5214630000000  0.4225420000000  0.5618270000000 1.0
C      1  0.5019440000000  0.4704000000000  0.4270370000000 1.0
C      1  0.5737210000000  0.4700510000000  0.4999680000000 1.0
C      1  0.4949550000000  0.4873530000000  0.5832550000000 1.0
C      1  0.4341910000000  0.4669170000000  0.5031020000000 1.0
C      1  0.5878660000000  0.4924300000000  0.4599670000000 1.0
C      1  0.5400820000000  0.4902710000000  0.5852080000000 1.0
C      1  0.4195990000000  0.4887670000000  0.5431890000000 1.0
C      1  0.4623630000000  0.4936920000000  0.4128810000000 1.0
C      1  0.4421490000000  0.4380110000000  0.4975290000000 1.0
C      1  0.5050660000000  0.4414230000000  0.4363560000000 1.0
C      1  0.5630330000000  0.4414880000000  0.5017010000000 1.0
C      1  0.4979200000000  0.4088330000000  0.5542310000000 1.0
C      1  0.5470220000000  0.5149630000000  0.5188870000000 1.0
C      1  0.4840770000000  0.5198540000000  0.5454450000000 1.0
C      1  0.4585400000000  0.5126790000000  0.4837380000000 1.0
C      1  0.5198950000000  0.5143220000000  0.4562550000000 1.0
C      1  0.5181810000000  0.4708480000000  0.5888760000000 1.0
C      1  0.4166740000000  0.4649740000000  0.5276100000000 1.0
C      1  0.4775420000000  0.4695870000000  0.4090770000000 1.0
C      1  0.5925040000000  0.4689900000000  0.4761330000000 1.0
C      1  0.4020760000000  0.5220870000000  0.6036370000000 1.0
C      1  0.3994900000000  0.5221640000000  0.3900210000000 1.0
C      1  0.5920840000000  0.5140230000000  0.3930780000000 1.0
C      1  0.6001350000000  0.5104020000000  0.6071600000000 1.0
C      1  0.4319960000000  0.5022940000000  0.3608830000000 1.0
C      1  0.6243390000000  0.4819340000000  0.4083350000000 1.0
C      1  0.5876650000000  0.4683270000000  0.6266640000000 1.0
C      1  0.3686010000000  0.5021950000000  0.5755570000000 1.0
C      1  0.5627000000000  0.3973020000000  0.5609820000000 1.0
C      1  0.4389100000000  0.3741740000000  0.5271210000000 1.0
C      1  0.4652840000000  0.3851880000000  0.4499550000000 1.0
C      1  0.5496380000000  0.3862240000000  0.4604290000000 1.0
C      1  0.5243250000000  0.5257990000000  0.5069040000000 1.0
C      1  0.4956650000000  0.5263290000000  0.5211730000000 1.0
C      1  0.4817060000000  0.5239510000000  0.4946110000000 1.0
C      1  0.5078150000000  0.5236980000000  0.4795840000000 1.0
C      1  0.5799250000000  0.5613000000000  0.5393710000000 1.0
C      1  0.4603880000000  0.5655660000000  0.5726930000000 1.0
C      1  0.4209990000000  0.5550280000000  0.4612310000000 1.0
C      1  0.5396690000000  0.5614790000000  0.4257780000000 1.0
C      1  0.6001230000000  0.4943370000000  0.4112360000000 1.0
C      1  0.5850610000000  0.4868550000000  0.6067070000000 1.0
C      1  0.3947470000000  0.5043310000000  0.5833190000000 1.0
C      1  0.4220980000000  0.5061830000000  0.3860970000000 1.0
C      1  0.4882570000000  0.5667170000000  0.5747730000000 1.0
C      1  0.4156120000000  0.5528690000000  0.4884940000000 1.0
C      1  0.5118710000000  0.5607480000000  0.4235320000000 1.0
C      1  0.5845510000000  0.5595480000000  0.5119220000000 1.0
C      1  0.4438760000000  0.5831700000000  0.5877450000000 1.0
C      1  0.4048060000000  0.5712180000000  0.4443690000000 1.0
C      1  0.5552330000000  0.5787030000000  0.4093440000000 1.0
C      1  0.5950540000000  0.5788500000000  0.5558670000000 1.0
C      1  0.4390000000000  0.5059100000000  0.5302170000000 1.0
C      1  0.4740560000000  0.5079580000000  0.4355130000000 1.0
C      1  0.5673050000000  0.5086110000000  0.4730910000000 1.0
C      1  0.5307260000000  0.5108830000000  0.5663590000000 1.0
C      1  0.4495770000000  0.3992090000000  0.5302960000000 1.0
C      1  0.4654810000000  0.4125000000000  0.4524960000000 1.0
C      1  0.5480320000000  0.4136240000000  0.4605760000000 1.0
C      1  0.5459980000000  0.4152020000000  0.5485380000000 1.0
C      1  0.4690900000000  0.4542770000000  0.5557540000000 1.0
C      1  0.4564890000000  0.4672780000000  0.4618910000000 1.0
C      1  0.5268860000000  0.4669760000000  0.4730350000000 1.0
C      1  0.5305270000000  0.4678690000000  0.5304980000000 1.0
C      1  0.5478100000000  0.5232240000000  0.5467420000000 1.0
C      1  0.4557070000000  0.5238180000000  0.5451340000000 1.0
C      1  0.4569770000000  0.5201420000000  0.4556380000000 1.0
C      1  0.5478230000000  0.5223470000000  0.4564400000000 1.0
C      1  0.5735040000000  0.4700170000000  0.5611030000000 1.0
C      1  0.4316850000000  0.4712470000000  0.5852900000000 1.0
C      1  0.4204380000000  0.4801560000000  0.4286160000000 1.0
C      1  0.5582550000000  0.4739510000000  0.4299450000000 1.0
C      1  0.5904950000000  0.4423470000000  0.4652940000000 1.0
C      1  0.5203450000000  0.4437550000000  0.5809590000000 1.0
C      1  0.4160160000000  0.4375430000000  0.5355420000000 1.0
C      1  0.4669290000000  0.4429110000000  0.4110420000000 1.0
C      1  0.5769780000000  0.5626040000000  0.4583410000000 1.0
C      1  0.5426880000000  0.5663350000000  0.5715100000000 1.0
C      1  0.4220740000000  0.5602850000000  0.5415540000000 1.0
C      1  0.4577980000000  0.5618270000000  0.4287060000000 1.0
C      1  0.4146440000000  0.4885530000000  0.5710060000000 1.0
C      1  0.4344020000000  0.4939510000000  0.4082960000000 1.0
C      1  0.5830300000000  0.4873220000000  0.4323810000000 1.0
C      1  0.5671700000000  0.4824590000000  0.5854840000000 1.0
C      1  0.5039670000000  0.4651870000000  0.4893040000000 1.0
C      1  0.5059180000000  0.4638520000000  0.5176580000000 1.0
C      1  0.4837220000000  0.4587370000000  0.5339550000000 1.0
C      1  0.4790190000000  0.4659320000000  0.4764100000000 1.0
C      1  0.4748320000000  0.4020370000000  0.5426220000000 1.0
C      1  0.4523650000000  0.4242080000000  0.4749090000000 1.0
C      1  0.5269800000000  0.4260280000000  0.4458380000000 1.0
C      1  0.5536430000000  0.4256660000000  0.5232430000000 1.0
C      1  0.4438910000000  0.4957190000000  0.5023210000000 1.0
C      1  0.5023560000000  0.4984060000000  0.4393490000000 1.0
C      1  0.5629340000000  0.4984200000000  0.5010770000000 1.0
C      1  0.5009390000000  0.5094950000000  0.5655720000000 1.0
C      1  0.4453120000000  0.5452950000000  0.4490570000000 1.0
C      1  0.5543940000000  0.5483780000000  0.4469640000000 1.0
C      1  0.5567410000000  0.5497470000000  0.5522100000000 1.0
C      1  0.4462220000000  0.5493730000000  0.5532030000000 1.0
C      1  0.5777330000000  0.5455760000000  0.3535790000000 1.0
C      1  0.6324870000000  0.5516950000000  0.6099640000000 1.0
C      1  0.4174450000000  0.5507500000000  0.6449270000000 1.0
C      1  0.3540060000000  0.5477160000000  0.3964240000000 1.0
C      1  0.5594100000000  0.5841140000000  0.5861200000000 1.0
C      1  0.4076150000000  0.5781280000000  0.5582480000000 1.0
C      1  0.4399880000000  0.5784220000000  0.4140690000000 1.0
C      1  0.5905060000000  0.5799590000000  0.4403740000000 1.0
C      1  0.5546330000000  0.4671650000000  0.5421410000000 1.0
C      1  0.4528230000000  0.4571600000000  0.5767130000000 1.0
C      1  0.4323910000000  0.4692910000000  0.4501440000000 1.0
C      1  0.5417850000000  0.4685410000000  0.4506950000000 1.0
END
