TITL C-3201376-6384-2294 -416543.381005571 125000 -682.529125095022 0 0 114 (C1) n - 1
REM
REM in /home/nfs/bkarasulu/CARBON/AIRSS/Generating-Clusters/LCBOP/Higher-Symm/SD-CG/FIRE-CG
REM
REM
REM
REM
REM
REM ./C.cell (b20cbc046b6831c77cfcea5457e17084)
REM AIRSS Version 0.9.1 bugfix July 2018 build 013d7b7c2542+ Fri, 06 Jul 2018 19:26:36 +0100
REM compiler GCC version 9.2.1 20190827 (Red Hat 9.2.1-1)
REM options -cpp -mtune=generic -march=x86-64 -g -O0 -fpre-include=/usr/include/finclude/math-vector-fortran.h
REM seed 365184098 613788824 -247513947 753651464 1830208638 1437357755 360759205 309006056 1631849129 1454321706 -678224964 644591988 -70791484 1412048566 -954062270 1320881146 1105137620 -609873213 -344294290 611679379 -430131032 2147473406 -1061551872 -26806109 -1755290083 1436206288 1376374396 1847876110 -1471112564 -902408325 -925989678 -1051311700 -1155336832
REM
CELL 1.54180   50.00000   50.00000   50.00000   90.00000   90.00000   90.00000
LATT -1
SFAC C  
C      1  0.4108620000000  0.5049570000000  0.4867440000000 1.0
C      1  0.5360260000000  0.5109130000000  0.5805610000000 1.0
C      1  0.5535740000000  0.5063840000000  0.4329820000000 1.0
C      1  0.4118020000000  0.4880670000000  0.5094580000000 1.0
C      1  0.5352980000000  0.4869080000000  0.4214590000000 1.0
C      1  0.5554550000000  0.4918820000000  0.5705450000000 1.0
C      1  0.4651210000000  0.5630380000000  0.5004800000000 1.0
C      1  0.5276430000000  0.5669680000000  0.5268050000000 1.0
C      1  0.5021560000000  0.5613810000000  0.4554920000000 1.0
C      1  0.4670060000000  0.4298710000000  0.4938120000000 1.0
C      1  0.5264800000000  0.4395720000000  0.4835420000000 1.0
C      1  0.5111350000000  0.4427410000000  0.5353870000000 1.0
C      1  0.5160670000000  0.5447040000000  0.4345350000000 1.0
C      1  0.4398210000000  0.5405440000000  0.5147340000000 1.0
C      1  0.5514250000000  0.5474390000000  0.5508670000000 1.0
C      1  0.5194130000000  0.4576290000000  0.5621550000000 1.0
C      1  0.4404570000000  0.4527500000000  0.4801490000000 1.0
C      1  0.5461770000000  0.4538300000000  0.4580010000000 1.0
C      1  0.4845250000000  0.5123520000000  0.5450410000000 1.0
C      1  0.5381940000000  0.5275000000000  0.4720880000000 1.0
C      1  0.4529060000000  0.5201590000000  0.4748930000000 1.0
C      1  0.5031670000000  0.4839370000000  0.4561540000000 1.0
C      1  0.5420980000000  0.4984910000000  0.5178090000000 1.0
C      1  0.4554430000000  0.4759600000000  0.5170080000000 1.0
C      1  0.5039700000000  0.6303230000000  0.5641280000000 1.0
C      1  0.5512570000000  0.5942610000000  0.5092550000000 1.0
C      1  0.4307540000000  0.6277440000000  0.4739130000000 1.0
C      1  0.4672520000000  0.4096250000000  0.4620830000000 1.0
C      1  0.5383520000000  0.4125880000000  0.4928610000000 1.0
C      1  0.4299690000000  0.3675630000000  0.5237380000000 1.0
C      1  0.4634450000000  0.4587480000000  0.5387780000000 1.0
C      1  0.5498580000000  0.4721440000000  0.5149780000000 1.0
C      1  0.4897290000000  0.4595830000000  0.4538290000000 1.0
C      1  0.4579210000000  0.5387940000000  0.4533750000000 1.0
C      1  0.5585620000000  0.5377490000000  0.4894630000000 1.0
C      1  0.4844650000000  0.5400170000000  0.5487120000000 1.0
C      1  0.4740810000000  0.4916550000000  0.5062180000000 1.0
C      1  0.5178760000000  0.5088830000000  0.5107350000000 1.0
C      1  0.4964970000000  0.5060790000000  0.4695710000000 1.0
C      1  0.4723450000000  0.5036720000000  0.4821710000000 1.0
C      1  0.5161860000000  0.5176910000000  0.4843080000000 1.0
C      1  0.4943200000000  0.5005300000000  0.5226820000000 1.0
C      1  0.5611500000000  0.5933760000000  0.4848890000000 1.0
C      1  0.4310100000000  0.6023380000000  0.4798470000000 1.0
C      1  0.5132030000000  0.6060390000000  0.5618620000000 1.0
C      1  0.5568790000000  0.4095450000000  0.5129520000000 1.0
C      1  0.4331540000000  0.3925530000000  0.5169420000000 1.0
C      1  0.4847210000000  0.4047870000000  0.4436770000000 1.0
C      1  0.5371000000000  0.5391870000000  0.5735610000000 1.0
C      1  0.5439750000000  0.5348350000000  0.4428360000000 1.0
C      1  0.4273790000000  0.5296930000000  0.4895510000000 1.0
C      1  0.5350400000000  0.4579110000000  0.4310600000000 1.0
C      1  0.5482880000000  0.4628390000000  0.5652830000000 1.0
C      1  0.4293870000000  0.4642390000000  0.5055730000000 1.0
C      1  0.6016770000000  0.5050500000000  0.5149650000000 1.0
C      1  0.4639350000000  0.5004650000000  0.4081810000000 1.0
C      1  0.4397440000000  0.5020950000000  0.5766510000000 1.0
C      1  0.6013870000000  0.4956550000000  0.4882980000000 1.0
C      1  0.4641220000000  0.4979890000000  0.5904900000000 1.0
C      1  0.4390300000000  0.4943930000000  0.4199600000000 1.0
C      1  0.4197700000000  0.5531560000000  0.4704310000000 1.0
C      1  0.5152000000000  0.5574730000000  0.5770660000000 1.0
C      1  0.5683940000000  0.5547120000000  0.4492590000000 1.0
C      1  0.4248280000000  0.4414960000000  0.5262900000000 1.0
C      1  0.5131610000000  0.4400900000000  0.4212420000000 1.0
C      1  0.5664410000000  0.4462030000000  0.5483860000000 1.0
C      1  0.4353510000000  0.5285340000000  0.5654420000000 1.0
C      1  0.5954450000000  0.5320810000000  0.5245340000000 1.0
C      1  0.4755590000000  0.5269500000000  0.4068690000000 1.0
C      1  0.4365770000000  0.4672400000000  0.4301030000000 1.0
C      1  0.5920160000000  0.4685750000000  0.4816150000000 1.0
C      1  0.4760340000000  0.4714780000000  0.5892500000000 1.0
C      1  0.4891870000000  0.4568590000000  0.4246080000000 1.0
C      1  0.4368370000000  0.4550270000000  0.5503280000000 1.0
C      1  0.5743400000000  0.4655000000000  0.5283910000000 1.0
C      1  0.4901020000000  0.5433180000000  0.5770460000000 1.0
C      1  0.4299410000000  0.5412690000000  0.4446310000000 1.0
C      1  0.5812720000000  0.5383160000000  0.4712010000000 1.0
C      1  0.4295170000000  0.4664120000000  0.4579620000000 1.0
C      1  0.5034360000000  0.4722930000000  0.5808790000000 1.0
C      1  0.5705150000000  0.4683140000000  0.4621840000000 1.0
C      1  0.4293030000000  0.5276390000000  0.5373350000000 1.0
C      1  0.5033840000000  0.5273890000000  0.4150050000000 1.0
C      1  0.5752870000000  0.5326180000000  0.5456140000000 1.0
C      1  0.4930280000000  0.5536730000000  0.5267350000000 1.0
C      1  0.5441900000000  0.5514480000000  0.5083960000000 1.0
C      1  0.4760900000000  0.5559820000000  0.4655500000000 1.0
C      1  0.4943710000000  0.4432360000000  0.4753490000000 1.0
C      1  0.5282260000000  0.4541250000000  0.5110300000000 1.0
C      1  0.4814530000000  0.4424770000000  0.5261370000000 1.0
C      1  0.5653910000000  0.5814830000000  0.4603860000000 1.0
C      1  0.4343450000000  0.5753640000000  0.4819980000000 1.0
C      1  0.5182820000000  0.5793170000000  0.5583820000000 1.0
C      1  0.5650010000000  0.4201270000000  0.5368770000000 1.0
C      1  0.4386500000000  0.4192590000000  0.5140660000000 1.0
C      1  0.5057120000000  0.4134060000000  0.4283720000000 1.0
C      1  0.5765850000000  0.5042820000000  0.5555910000000 1.0
C      1  0.5111560000000  0.4985710000000  0.4113530000000 1.0
C      1  0.4170290000000  0.5000780000000  0.5351310000000 1.0
C      1  0.5741270000000  0.4951360000000  0.4493890000000 1.0
C      1  0.5110570000000  0.5000990000000  0.5880340000000 1.0
C      1  0.4152270000000  0.4931850000000  0.4607870000000 1.0
C      1  0.4228470000000  0.5123530000000  0.4377000000000 1.0
C      1  0.4870410000000  0.5176320000000  0.5910500000000 1.0
C      1  0.5913240000000  0.5121740000000  0.4662920000000 1.0
C      1  0.4267880000000  0.4821860000000  0.5582060000000 1.0
C      1  0.4866740000000  0.4816270000000  0.4101630000000 1.0
C      1  0.5899960000000  0.4878640000000  0.5354890000000 1.0
C      1  0.5086380000000  0.5848520000000  0.5004840000000 1.0
C      1  0.5157740000000  0.5790880000000  0.4734570000000 1.0
C      1  0.4806670000000  0.5882370000000  0.5035980000000 1.0
C      1  0.5069770000000  0.3976190000000  0.5164930000000 1.0
C      1  0.5154370000000  0.4128000000000  0.5373490000000 1.0
C      1  0.4857440000000  0.4007590000000  0.5024060000000 1.0
END
