TITL C-3201372-1405-63 0.0669751896119219 125000 -278.507335151924 0 0 48 (C1) n - 1
REM
REM in /home/nfs/bkarasulu/CARBON/AIRSS/Generating-Clusters/LCBOP/Higher-Symm/SD-CG/FIRE-CG
REM
REM
REM
REM
REM
REM ./C.cell (b20cbc046b6831c77cfcea5457e17084)
REM AIRSS Version 0.9.1 bugfix July 2018 build 013d7b7c2542+ Fri, 06 Jul 2018 19:26:36 +0100
REM compiler GCC version 9.2.1 20190827 (Red Hat 9.2.1-1)
REM options -cpp -mtune=generic -march=x86-64 -g -O0 -fpre-include=/usr/include/finclude/math-vector-fortran.h
REM seed 845298860 252223265 1655899950 1607048041 -1698914493 -1141993983 -1379096351 2125335260 1347001170 -1047469434 1490786272 870927677 -184833352 -1522173348 -881202999 -195238942 135306285 -811846058 -1820101486 -2101782424 547791954 -956802642 -1576347033 433430514 -533962644 711637349 -2054339144 -45613934 -301506795 -1174506699 1576137945 2128179845 38361268
REM
CELL 1.54180   50.00000   50.00000   50.00000   90.00000   90.00000   90.00000
LATT -1
SFAC C  
C      1  0.5006240000000  0.4524180000000  0.4841280000000 1.0
C      1  0.5481830000000  0.5245020000000  0.4862100000000 1.0
C      1  0.4485570000000  0.5318190000000  0.4842500000000 1.0
C      1  0.5000840000000  0.4509660000000  0.5134600000000 1.0
C      1  0.5481000000000  0.5244960000000  0.5158860000000 1.0
C      1  0.4479300000000  0.5316160000000  0.5148650000000 1.0
C      1  0.5105860000000  0.4958900000000  0.5295740000000 1.0
C      1  0.4849080000000  0.5038100000000  0.5268750000000 1.0
C      1  0.5203900000000  0.4935440000000  0.5037670000000 1.0
C      1  0.5106100000000  0.5162200000000  0.4626010000000 1.0
C      1  0.4791820000000  0.5059130000000  0.4998150000000 1.0
C      1  0.5014560000000  0.5001920000000  0.4832430000000 1.0
C      1  0.5559210000000  0.4978940000000  0.4714420000000 1.0
C      1  0.4714460000000  0.5462990000000  0.4709950000000 1.0
C      1  0.4756230000000  0.4600970000000  0.4698440000000 1.0
C      1  0.5562350000000  0.4981660000000  0.5299460000000 1.0
C      1  0.4715160000000  0.5456140000000  0.5290310000000 1.0
C      1  0.4741610000000  0.4583230000000  0.5266810000000 1.0
C      1  0.4980710000000  0.5519480000000  0.4863060000000 1.0
C      1  0.4535880000000  0.4755170000000  0.4828830000000 1.0
C      1  0.5523590000000  0.4713060000000  0.4852770000000 1.0
C      1  0.4980100000000  0.5504480000000  0.5155050000000 1.0
C      1  0.4523970000000  0.4744300000000  0.5128650000000 1.0
C      1  0.5542640000000  0.4700020000000  0.5160300000000 1.0
C      1  0.4724430000000  0.4986580000000  0.4136810000000 1.0
C      1  0.5140630000000  0.4738910000000  0.4144880000000 1.0
C      1  0.5101330000000  0.5152080000000  0.4351100000000 1.0
C      1  0.4724790000000  0.5000960000000  0.5816350000000 1.0
C      1  0.5134010000000  0.4759200000000  0.5807570000000 1.0
C      1  0.5138330000000  0.5235030000000  0.5797630000000 1.0
C      1  0.4746800000000  0.4587890000000  0.5552540000000 1.0
C      1  0.5514570000000  0.4984300000000  0.5585160000000 1.0
C      1  0.4734970000000  0.5429230000000  0.5575690000000 1.0
C      1  0.4760170000000  0.4587540000000  0.4414320000000 1.0
C      1  0.5523220000000  0.4956500000000  0.4424360000000 1.0
C      1  0.4720370000000  0.5420270000000  0.4420840000000 1.0
C      1  0.5292670000000  0.4994480000000  0.5761410000000 1.0
C      1  0.4853270000000  0.5251390000000  0.5761260000000 1.0
C      1  0.4851380000000  0.4750530000000  0.5758080000000 1.0
C      1  0.5288100000000  0.4956350000000  0.4258190000000 1.0
C      1  0.4840680000000  0.5219240000000  0.4254740000000 1.0
C      1  0.4853790000000  0.4732400000000  0.4189960000000 1.0
C      1  0.5252130000000  0.5420750000000  0.5256740000000 1.0
C      1  0.4415070000000  0.5017450000000  0.5234970000000 1.0
C      1  0.5286990000000  0.4530100000000  0.5244540000000 1.0
C      1  0.5231800000000  0.5386890000000  0.4753590000000 1.0
C      1  0.4442160000000  0.5030220000000  0.4735400000000 1.0
C      1  0.5286370000000  0.4557360000000  0.4749060000000 1.0
END
