TITL C-3201379-3821-2153 -4.36616917816049e-07 125000 -221.395742598144 0 0 38 (C2v) n - 1
REM
REM in /home/nfs/bkarasulu/CARBON/AIRSS/Generating-Clusters/LCBOP/Higher-Symm/SD-CG/FIRE-CG
REM
REM
REM
REM
REM
REM ./C.cell (b20cbc046b6831c77cfcea5457e17084)
REM AIRSS Version 0.9.1 bugfix July 2018 build 013d7b7c2542+ Fri, 06 Jul 2018 19:26:36 +0100
REM compiler GCC version 9.2.1 20190827 (Red Hat 9.2.1-1)
REM options -cpp -mtune=generic -march=x86-64 -g -O0 -fpre-include=/usr/include/finclude/math-vector-fortran.h
REM seed -73957206 1052858118 -1382475289 17580694 147555216 -1920220135 754653999 -1055358954 -1945601001 -1775067535 -715743362 -134568652 1043016599 -1961636485 1716252704 1804823526 992227921 1779610450 -132122877 -1227832524 -1065439966 -84577361 -681480862 164651973 -2050793754 -986952906 1758177746 -2130039471 -148706203 1360777855 -812967754 1722428861 -212338094
REM
CELL 1.54180   50.00000   50.00000   50.00000   90.00000   90.00000   90.00000
LATT -1
SFAC C  
C      1  0.5198130000000  0.4572520000000  0.5157110000000 1.0
C      1  0.4916390000000  0.4583790000000  0.5262450000000 1.0
C      1  0.4738360000000  0.4584990000000  0.5018140000000 1.0
C      1  0.4909010000000  0.4579430000000  0.4773420000000 1.0
C      1  0.5199740000000  0.4574570000000  0.4856130000000 1.0
C      1  0.5209880000000  0.5473040000000  0.5144860000000 1.0
C      1  0.4927980000000  0.5471990000000  0.5250360000000 1.0
C      1  0.4749890000000  0.5468780000000  0.5006110000000 1.0
C      1  0.4920540000000  0.5463230000000  0.4761390000000 1.0
C      1  0.5211320000000  0.5462760000000  0.4844040000000 1.0
C      1  0.5382600000000  0.4756360000000  0.5281580000000 1.0
C      1  0.4861390000000  0.4744540000000  0.5509370000000 1.0
C      1  0.4500110000000  0.4753310000000  0.5002240000000 1.0
C      1  0.4815280000000  0.4743050000000  0.4550270000000 1.0
C      1  0.5415760000000  0.4726490000000  0.4714390000000 1.0
C      1  0.5389530000000  0.5287910000000  0.5274340000000 1.0
C      1  0.4868890000000  0.5319510000000  0.5501550000000 1.0
C      1  0.4507320000000  0.5306360000000  0.4994720000000 1.0
C      1  0.4822490000000  0.5296100000000  0.4542750000000 1.0
C      1  0.5423260000000  0.5301460000000  0.4706570000000 1.0
C      1  0.4690750000000  0.5392760000000  0.4325100000000 1.0
C      1  0.5650520000000  0.5412060000000  0.4603470000000 1.0
C      1  0.5604930000000  0.5360330000000  0.5422900000000 1.0
C      1  0.4853140000000  0.5438020000000  0.5746940000000 1.0
C      1  0.4259650000000  0.5406790000000  0.4943310000000 1.0
C      1  0.4680980000000  0.4643980000000  0.4335290000000 1.0
C      1  0.5640020000000  0.4607240000000  0.4614420000000 1.0
C      1  0.5596090000000  0.4682410000000  0.5432130000000 1.0
C      1  0.4842640000000  0.4633200000000  0.5757890000000 1.0
C      1  0.4249880000000  0.4658010000000  0.4953500000000 1.0
C      1  0.4885000000000  0.5019260000000  0.4586560000000 1.0
C      1  0.5304430000000  0.5022420000000  0.5221030000000 1.0
C      1  0.4829830000000  0.5031820000000  0.5456850000000 1.0
C      1  0.5361690000000  0.5014510000000  0.4694140000000 1.0
C      1  0.4564140000000  0.5029700000000  0.5046680000000 1.0
C      1  0.4817480000000  0.5028110000000  0.5172630000000 1.0
C      1  0.5090730000000  0.5019220000000  0.4780770000000 1.0
C      1  0.5066090000000  0.5023270000000  0.5054800000000 1.0
END
