TITL C-3201377-4638-1310 -192159.465628469 125000 -351.251470848075 0 0 61 (C2v) n - 1
REM
REM in /home/nfs/bkarasulu/CARBON/AIRSS/Generating-Clusters/LCBOP/Higher-Symm/SD-CG/FIRE-CG
REM
REM
REM
REM
REM
REM ./C.cell (b20cbc046b6831c77cfcea5457e17084)
REM AIRSS Version 0.9.1 bugfix July 2018 build 013d7b7c2542+ Fri, 06 Jul 2018 19:26:36 +0100
REM compiler GCC version 9.2.1 20190827 (Red Hat 9.2.1-1)
REM options -cpp -mtune=generic -march=x86-64 -g -O0 -fpre-include=/usr/include/finclude/math-vector-fortran.h
REM seed -201147092 1843273931 1962324151 1210278595 1461800108 -762337736 -671412285 -525584836 -1801522075 1975158213 598299382 -1431650464 2101612455 -73553357 1199944058 -1401537087 636868250 -683078196 -103863744 169860589 1949070503 -142645437 -904807784 -142164966 -818132152 -527271954 -2112053873 -1961835355 2136401186 -1365085623 1174452621 568065276 753971516
REM
CELL 1.54180   50.00000   50.00000   50.00000   90.00000   90.00000   90.00000
LATT -1
SFAC C  
C      1  0.4389960000000  0.4522050000000  0.5204060000000 1.0
C      1  0.4890320000000  0.5475030000000  0.5606300000000 1.0
C      1  0.4891670000000  0.4533470000000  0.5607800000000 1.0
C      1  0.5440320000000  0.5475050000000  0.5438120000000 1.0
C      1  0.5438470000000  0.4533190000000  0.5441410000000 1.0
C      1  0.5631780000000  0.5484970000000  0.4830450000000 1.0
C      1  0.5630490000000  0.4522630000000  0.4826330000000 1.0
C      1  0.5140780000000  0.5488320000000  0.4370120000000 1.0
C      1  0.5147640000000  0.4524280000000  0.4365570000000 1.0
C      1  0.4539620000000  0.5482560000000  0.4547640000000 1.0
C      1  0.4548110000000  0.4519190000000  0.4547990000000 1.0
C      1  0.4389200000000  0.5485640000000  0.5199830000000 1.0
C      1  0.5287680000000  0.5787860000000  0.5068170000000 1.0
C      1  0.5286370000000  0.4222310000000  0.5066350000000 1.0
C      1  0.5206790000000  0.5778690000000  0.4791590000000 1.0
C      1  0.5203010000000  0.4231800000000  0.4789610000000 1.0
C      1  0.4926070000000  0.5769880000000  0.4724870000000 1.0
C      1  0.4921920000000  0.4237700000000  0.4726720000000 1.0
C      1  0.4726080000000  0.5775300000000  0.4932270000000 1.0
C      1  0.4724600000000  0.4229610000000  0.4937200000000 1.0
C      1  0.4809080000000  0.5785630000000  0.5209100000000 1.0
C      1  0.4809600000000  0.4221240000000  0.5212840000000 1.0
C      1  0.5088870000000  0.5791010000000  0.5275960000000 1.0
C      1  0.5090020000000  0.4218090000000  0.5276700000000 1.0
C      1  0.4728570000000  0.5218070000000  0.4834250000000 1.0
C      1  0.4728540000000  0.4787550000000  0.4836460000000 1.0
C      1  0.4716490000000  0.5217750000000  0.5104170000000 1.0
C      1  0.4716780000000  0.4789580000000  0.5105920000000 1.0
C      1  0.4939990000000  0.5217930000000  0.5259560000000 1.0
C      1  0.4940910000000  0.4789670000000  0.5260280000000 1.0
C      1  0.5203340000000  0.5217250000000  0.5180690000000 1.0
C      1  0.5203980000000  0.4789000000000  0.5179890000000 1.0
C      1  0.5304320000000  0.5217980000000  0.4927960000000 1.0
C      1  0.5303750000000  0.4789570000000  0.4926570000000 1.0
C      1  0.5143380000000  0.5219800000000  0.4710180000000 1.0
C      1  0.5142220000000  0.4789080000000  0.4708560000000 1.0
C      1  0.4451320000000  0.5190380000000  0.5204950000000 1.0
C      1  0.4451810000000  0.4817350000000  0.5206900000000 1.0
C      1  0.4893320000000  0.5184780000000  0.5541650000000 1.0
C      1  0.4894640000000  0.4823760000000  0.5542370000000 1.0
C      1  0.5399070000000  0.5183550000000  0.5389060000000 1.0
C      1  0.5399620000000  0.4822990000000  0.5388540000000 1.0
C      1  0.5580890000000  0.5190030000000  0.4865320000000 1.0
C      1  0.5580350000000  0.4817540000000  0.4863400000000 1.0
C      1  0.5175930000000  0.5195600000000  0.4427900000000 1.0
C      1  0.5177290000000  0.4816000000000  0.4426590000000 1.0
C      1  0.4546950000000  0.5190830000000  0.4615060000000 1.0
C      1  0.4548940000000  0.4811860000000  0.4615480000000 1.0
C      1  0.4863760000000  0.5602950000000  0.4484710000000 1.0
C      1  0.4841940000000  0.4404330000000  0.4491770000000 1.0
C      1  0.4485990000000  0.5620400000000  0.4881310000000 1.0
C      1  0.4485150000000  0.4385400000000  0.4886490000000 1.0
C      1  0.4648790000000  0.5621300000000  0.5390790000000 1.0
C      1  0.4650220000000  0.4386760000000  0.5394850000000 1.0
C      1  0.5158540000000  0.5612550000000  0.5507210000000 1.0
C      1  0.5160330000000  0.4395960000000  0.5507580000000 1.0
C      1  0.5520670000000  0.5620360000000  0.5134290000000 1.0
C      1  0.5520520000000  0.4386890000000  0.5128650000000 1.0
C      1  0.5378590000000  0.5622430000000  0.4617930000000 1.0
C      1  0.5375260000000  0.4386550000000  0.4614420000000 1.0
C      1  0.4937840000000  0.5003950000000  0.4761470000000 1.0
END
