TITL C-3201378-2706-2125 1.36749562814437e-06 125000 -49.50554361967 0 0 9 (D(inf)h) n - 1
REM
REM in /home/nfs/bkarasulu/CARBON/AIRSS/Generating-Clusters/LCBOP/Higher-Symm/SD-CG/FIRE-CG
REM
REM
REM
REM
REM
REM ./C.cell (b20cbc046b6831c77cfcea5457e17084)
REM AIRSS Version 0.9.1 bugfix July 2018 build 013d7b7c2542+ Fri, 06 Jul 2018 19:26:36 +0100
REM compiler GCC version 9.2.1 20190827 (Red Hat 9.2.1-1)
REM options -cpp -mtune=generic -march=x86-64 -g -O0 -fpre-include=/usr/include/finclude/math-vector-fortran.h
REM seed 1468885833 -101169019 1812767510 -1404204353 -83916040 1783613434 -1491202089 500150150 1512529735 -702866662 -638470075 -793884687 -1530027919 990857624 -725596632 1706550963 193811991 707516815 -1194026246 1904736709 -154500505 1352001723 -1194220390 1602037839 -1923483520 -1383327854 -587824880 -1672417343 -323246358 -1345522490 -1724487919 653890124 -1844568537
REM
CELL 1.54180   50.00000   50.00000   50.00000   90.00000   90.00000   90.00000
LATT -1
SFAC C  
C      1  0.5004010000000  0.4999030000000  0.5000000000000 1.0
C      1  0.5004010000000  0.4999030000000  0.3944240000000 1.0
C      1  0.5004010000000  0.4999030000000  0.4470010000000 1.0
C      1  0.5004010000000  0.4999030000000  0.4735000000000 1.0
C      1  0.5004010000000  0.4999030000000  0.5795060000000 1.0
C      1  0.5004010000000  0.4999030000000  0.4204940000000 1.0
C      1  0.5004010000000  0.4999030000000  0.5529990000000 1.0
C      1  0.5004010000000  0.4999030000000  0.6055760000000 1.0
C      1  0.5004010000000  0.4999030000000  0.5265000000000 1.0
END
