TITL C-3201375-1262-1778 5945193.45645009 125000 -398.350157156713 0 0 76 (C2h) n - 1
REM
REM in /home/nfs/bkarasulu/CARBON/AIRSS/Generating-Clusters/LCBOP/Higher-Symm/SD-CG/FIRE-CG
REM
REM
REM
REM
REM
REM ./C.cell (b20cbc046b6831c77cfcea5457e17084)
REM AIRSS Version 0.9.1 bugfix July 2018 build 013d7b7c2542+ Fri, 06 Jul 2018 19:26:36 +0100
REM compiler GCC version 9.2.1 20190827 (Red Hat 9.2.1-1)
REM options -cpp -mtune=generic -march=x86-64 -g -O0 -fpre-include=/usr/include/finclude/math-vector-fortran.h
REM seed 2007131170 1751186089 2009333645 -1957661682 925352090 755613400 -17976718 -1508696525 -1110775048 2103261509 -466377379 -784948811 1632639070 1467797464 -1905387516 -88735992 923504469 -1539451541 789431509 -7838671 -1553837273 -1183012379 130914408 -1254868608 1661749741 1079695753 1608550389 -1778587853 -231934516 817176201 -1901177299 -1605669916 1739842920
REM
CELL 1.54180   50.00000   50.00000   50.00000   90.00000   90.00000   90.00000
LATT -1
SFAC C  
C      1  0.5283960000000  0.4870960000000  0.5206240000000 1.0
C      1  0.5282540000000  0.5133140000000  0.4798300000000 1.0
C      1  0.4717150000000  0.4866450000000  0.5201370000000 1.0
C      1  0.4715620000000  0.5128720000000  0.4793250000000 1.0
C      1  0.5282540000000  0.5133140000000  0.5201660000000 1.0
C      1  0.5284160000000  0.4870990000000  0.4793800000000 1.0
C      1  0.4715810000000  0.5128670000000  0.5206760000000 1.0
C      1  0.4717080000000  0.4866500000000  0.4798530000000 1.0
C      1  0.5468960000000  0.5509370000000  0.5524770000000 1.0
C      1  0.5465370000000  0.4491730000000  0.4477130000000 1.0
C      1  0.4535520000000  0.5508370000000  0.5522670000000 1.0
C      1  0.4530670000000  0.4490690000000  0.4475090000000 1.0
C      1  0.5464820000000  0.4491590000000  0.5522910000000 1.0
C      1  0.5469370000000  0.5509120000000  0.4475230000000 1.0
C      1  0.4531110000000  0.4490460000000  0.5524960000000 1.0
C      1  0.4534990000000  0.5508250000000  0.4477280000000 1.0
C      1  0.5665540000000  0.4703020000000  0.5502250000000 1.0
C      1  0.5667790000000  0.5296890000000  0.4497980000000 1.0
C      1  0.4332750000000  0.4702950000000  0.5502530000000 1.0
C      1  0.4333980000000  0.5297150000000  0.4497930000000 1.0
C      1  0.5667370000000  0.5296980000000  0.5502260000000 1.0
C      1  0.5666020000000  0.4703100000000  0.4498050000000 1.0
C      1  0.4334450000000  0.5297170000000  0.5502250000000 1.0
C      1  0.4332310000000  0.4703050000000  0.4497650000000 1.0
C      1  0.5648340000000  0.4825230000000  0.5232200000000 1.0
C      1  0.5652460000000  0.5177310000000  0.4768760000000 1.0
C      1  0.4347610000000  0.4822570000000  0.5231590000000 1.0
C      1  0.4351580000000  0.5174740000000  0.4767920000000 1.0
C      1  0.5652200000000  0.5177270000000  0.5231480000000 1.0
C      1  0.5648370000000  0.4825260000000  0.4768090000000 1.0
C      1  0.4351600000000  0.5174680000000  0.5232270000000 1.0
C      1  0.4347450000000  0.4822670000000  0.4768550000000 1.0
C      1  0.5203470000000  0.5132200000000  0.4396060000000 1.0
C      1  0.5205810000000  0.4873360000000  0.5605970000000 1.0
C      1  0.4793980000000  0.5126420000000  0.4394240000000 1.0
C      1  0.4796490000000  0.4867880000000  0.5604070000000 1.0
C      1  0.5205620000000  0.4873460000000  0.4393910000000 1.0
C      1  0.5203640000000  0.5132100000000  0.5603980000000 1.0
C      1  0.4796680000000  0.4867730000000  0.4395900000000 1.0
C      1  0.4793860000000  0.5126530000000  0.5605530000000 1.0
C      1  0.5133050000000  0.5353980000000  0.5205470000000 1.0
C      1  0.5131830000000  0.4652210000000  0.4817150000000 1.0
C      1  0.4868440000000  0.5347330000000  0.5178640000000 1.0
C      1  0.4866900000000  0.4645170000000  0.4793500000000 1.0
C      1  0.5131850000000  0.4652000000000  0.5182540000000 1.0
C      1  0.5132990000000  0.5353840000000  0.4794270000000 1.0
C      1  0.4866860000000  0.4644960000000  0.5206280000000 1.0
C      1  0.4868410000000  0.5347310000000  0.4821110000000 1.0
C      1  0.5270380000000  0.4323930000000  0.4865800000000 1.0
C      1  0.5266750000000  0.5663900000000  0.5134830000000 1.0
C      1  0.4733820000000  0.4336900000000  0.4864730000000 1.0
C      1  0.4729100000000  0.5678160000000  0.5133710000000 1.0
C      1  0.5266900000000  0.5664030000000  0.4865020000000 1.0
C      1  0.5270250000000  0.4324020000000  0.5134020000000 1.0
C      1  0.4729040000000  0.5678090000000  0.4866020000000 1.0
C      1  0.4734020000000  0.4337040000000  0.5135140000000 1.0
C      1  0.5197050000000  0.5398590000000  0.5610810000000 1.0
C      1  0.5199490000000  0.4603010000000  0.4378380000000 1.0
C      1  0.4801070000000  0.5396920000000  0.5621040000000 1.0
C      1  0.4802090000000  0.4601330000000  0.4387570000000 1.0
C      1  0.5198730000000  0.4602920000000  0.5621500000000 1.0
C      1  0.5197920000000  0.5398430000000  0.4389230000000 1.0
C      1  0.4802990000000  0.4601210000000  0.5612310000000 1.0
C      1  0.4800330000000  0.5396930000000  0.4378770000000 1.0
C      1  0.5499890000000  0.4368620000000  0.5261590000000 1.0
C      1  0.5502230000000  0.5631450000000  0.4739350000000 1.0
C      1  0.4497980000000  0.4368610000000  0.5260500000000 1.0
C      1  0.4500160000000  0.5631400000000  0.4738260000000 1.0
C      1  0.5502060000000  0.5631530000000  0.5260650000000 1.0
C      1  0.5500060000000  0.4368670000000  0.4738380000000 1.0
C      1  0.4500320000000  0.5631490000000  0.5261650000000 1.0
C      1  0.4497740000000  0.4368770000000  0.4739600000000 1.0
C      1  0.4345130000000  0.5390460000000  0.5000260000000 1.0
C      1  0.5655230000000  0.4609710000000  0.5000240000000 1.0
C      1  0.4339720000000  0.4608630000000  0.5000210000000 1.0
C      1  0.5660150000000  0.5390570000000  0.5000120000000 1.0
END
