TITL C-3201372-1405-746 -2.34232580439393e-06 125000 -564.062014441984 0 0 95 (C1) n - 1
REM
REM in /home/nfs/bkarasulu/CARBON/AIRSS/Generating-Clusters/LCBOP/Higher-Symm/SD-CG/FIRE-CG
REM
REM
REM
REM
REM
REM ./C.cell (b20cbc046b6831c77cfcea5457e17084)
REM AIRSS Version 0.9.1 bugfix July 2018 build 013d7b7c2542+ Fri, 06 Jul 2018 19:26:36 +0100
REM compiler GCC version 9.2.1 20190827 (Red Hat 9.2.1-1)
REM options -cpp -mtune=generic -march=x86-64 -g -O0 -fpre-include=/usr/include/finclude/math-vector-fortran.h
REM seed 1686143077 -1491615411 -697480459 142175509 -1702821672 81544010 139379447 257644977 -243424353 1376850949 -750045814 1529599590 1127779615 1218887043 286731862 117987005 -111946161 1663140814 -625255572 1109381958 -187634390 -934531030 1016991555 373984559 1301448578 86004232 -1677644123 1865007653 1761899717 1080711232 -348814002 1478588675 -1381582830
REM
CELL 1.54180   50.00000   50.00000   50.00000   90.00000   90.00000   90.00000
LATT -1
SFAC C  
C      1  0.4446510000000  0.5127280000000  0.4987350000000 1.0
C      1  0.5374030000000  0.5357030000000  0.4342520000000 1.0
C      1  0.5469860000000  0.5111680000000  0.5440680000000 1.0
C      1  0.5961270000000  0.4792500000000  0.4474690000000 1.0
C      1  0.4859490000000  0.4935210000000  0.6047990000000 1.0
C      1  0.4296800000000  0.4528740000000  0.4895270000000 1.0
C      1  0.5716330000000  0.5038070000000  0.5551320000000 1.0
C      1  0.4391330000000  0.5138110000000  0.4711310000000 1.0
C      1  0.5583820000000  0.5311190000000  0.4164530000000 1.0
C      1  0.4201240000000  0.4689800000000  0.4675930000000 1.0
C      1  0.5762460000000  0.4609880000000  0.4550430000000 1.0
C      1  0.4870290000000  0.4714190000000  0.5876630000000 1.0
C      1  0.5220670000000  0.4249910000000  0.5231020000000 1.0
C      1  0.4684030000000  0.4177620000000  0.5203690000000 1.0
C      1  0.5005380000000  0.4478090000000  0.4701860000000 1.0
C      1  0.5307820000000  0.4613180000000  0.4237630000000 1.0
C      1  0.5373490000000  0.4557450000000  0.5715920000000 1.0
C      1  0.3947750000000  0.4888400000000  0.5061720000000 1.0
C      1  0.4593660000000  0.5667880000000  0.4206140000000 1.0
C      1  0.5922580000000  0.5549740000000  0.5005020000000 1.0
C      1  0.4518990000000  0.5378530000000  0.5760430000000 1.0
C      1  0.5586980000000  0.4056380000000  0.4932770000000 1.0
C      1  0.4700340000000  0.4088390000000  0.5675320000000 1.0
C      1  0.4611390000000  0.4240740000000  0.4480190000000 1.0
C      1  0.5126420000000  0.4611720000000  0.5807560000000 1.0
C      1  0.3991950000000  0.4847190000000  0.4794920000000 1.0
C      1  0.5536740000000  0.4580020000000  0.4377590000000 1.0
C      1  0.5097460000000  0.4050850000000  0.5389240000000 1.0
C      1  0.4738830000000  0.4135390000000  0.4930890000000 1.0
C      1  0.5234780000000  0.4323300000000  0.4763940000000 1.0
C      1  0.4885020000000  0.5313660000000  0.4707230000000 1.0
C      1  0.5312690000000  0.5311890000000  0.4946540000000 1.0
C      1  0.4901470000000  0.5233470000000  0.5210710000000 1.0
C      1  0.4406710000000  0.5820560000000  0.4634940000000 1.0
C      1  0.5657950000000  0.5917610000000  0.4810680000000 1.0
C      1  0.4914020000000  0.5668540000000  0.5774510000000 1.0
C      1  0.4296020000000  0.5329950000000  0.5886400000000 1.0
C      1  0.4598940000000  0.5633340000000  0.3947900000000 1.0
C      1  0.6137020000000  0.5411110000000  0.5057110000000 1.0
C      1  0.5298990000000  0.5622450000000  0.4407190000000 1.0
C      1  0.5382850000000  0.5373530000000  0.5504410000000 1.0
C      1  0.4390930000000  0.5375760000000  0.5116340000000 1.0
C      1  0.5286100000000  0.5638470000000  0.5463290000000 1.0
C      1  0.4484800000000  0.5646550000000  0.5093030000000 1.0
C      1  0.5230010000000  0.5826790000000  0.4593640000000 1.0
C      1  0.4794920000000  0.4754510000000  0.4193260000000 1.0
C      1  0.5723100000000  0.4554200000000  0.5317670000000 1.0
C      1  0.4195160000000  0.4804410000000  0.5525790000000 1.0
C      1  0.5430610000000  0.5556740000000  0.5019580000000 1.0
C      1  0.4806270000000  0.5451060000000  0.5365020000000 1.0
C      1  0.4818710000000  0.5582790000000  0.4634900000000 1.0
C      1  0.4388370000000  0.4358220000000  0.4384760000000 1.0
C      1  0.5788140000000  0.4184770000000  0.4804110000000 1.0
C      1  0.4617520000000  0.4307190000000  0.5806820000000 1.0
C      1  0.5762310000000  0.5271610000000  0.3978810000000 1.0
C      1  0.5951650000000  0.5028080000000  0.5663300000000 1.0
C      1  0.4282300000000  0.5224380000000  0.4489960000000 1.0
C      1  0.5251110000000  0.5711120000000  0.5187740000000 1.0
C      1  0.4753660000000  0.5679660000000  0.5190210000000 1.0
C      1  0.4999980000000  0.5774950000000  0.4758850000000 1.0
C      1  0.6155370000000  0.4961460000000  0.4433490000000 1.0
C      1  0.4876400000000  0.5116890000000  0.6234140000000 1.0
C      1  0.4171570000000  0.4287320000000  0.4938360000000 1.0
C      1  0.4603450000000  0.5687110000000  0.4483170000000 1.0
C      1  0.5679610000000  0.5671460000000  0.4948070000000 1.0
C      1  0.4745120000000  0.5486070000000  0.5640160000000 1.0
C      1  0.5092230000000  0.4797770000000  0.5265990000000 1.0
C      1  0.4484010000000  0.4631610000000  0.5083870000000 1.0
C      1  0.5297160000000  0.4883810000000  0.4742890000000 1.0
C      1  0.5792850000000  0.4582520000000  0.5058740000000 1.0
C      1  0.4400930000000  0.4727660000000  0.5682990000000 1.0
C      1  0.4544760000000  0.4785910000000  0.4294180000000 1.0
C      1  0.5126170000000  0.4517810000000  0.5267280000000 1.0
C      1  0.4576180000000  0.4431700000000  0.5256620000000 1.0
C      1  0.5057600000000  0.4761470000000  0.4699010000000 1.0
C      1  0.5440240000000  0.5997270000000  0.4671770000000 1.0
C      1  0.5149740000000  0.5757750000000  0.5677920000000 1.0
C      1  0.4368960000000  0.5814800000000  0.4901340000000 1.0
C      1  0.5580100000000  0.4530070000000  0.5544940000000 1.0
C      1  0.4032570000000  0.4861340000000  0.5317520000000 1.0
C      1  0.5052910000000  0.4675730000000  0.4171840000000 1.0
C      1  0.4978210000000  0.5111250000000  0.4533690000000 1.0
C      1  0.5387480000000  0.5035750000000  0.4962190000000 1.0
C      1  0.4846640000000  0.4953570000000  0.5226550000000 1.0
C      1  0.5801170000000  0.4468510000000  0.4797860000000 1.0
C      1  0.4623770000000  0.4589460000000  0.5794990000000 1.0
C      1  0.4340490000000  0.4636440000000  0.4427950000000 1.0
C      1  0.4817150000000  0.4051820000000  0.5422220000000 1.0
C      1  0.4780880000000  0.4293610000000  0.4697380000000 1.0
C      1  0.5342140000000  0.4185000000000  0.4983550000000 1.0
C      1  0.5339520000000  0.4952480000000  0.5236770000000 1.0
C      1  0.4587410000000  0.4896730000000  0.5103930000000 1.0
C      1  0.5233150000000  0.5144350000000  0.4454590000000 1.0
C      1  0.5020630000000  0.5303620000000  0.4959870000000 1.0
C      1  0.4995010000000  0.5778600000000  0.5054840000000 1.0
END
