TITL C-3201379-3821-2078 -73604.9810848734 125000 -389.047994935359 0 0 68 (C1) n - 1
REM
REM in /home/nfs/bkarasulu/CARBON/AIRSS/Generating-Clusters/LCBOP/Higher-Symm/SD-CG/FIRE-CG
REM
REM
REM
REM
REM
REM ./C.cell (b20cbc046b6831c77cfcea5457e17084)
REM AIRSS Version 0.9.1 bugfix July 2018 build 013d7b7c2542+ Fri, 06 Jul 2018 19:26:36 +0100
REM compiler GCC version 9.2.1 20190827 (Red Hat 9.2.1-1)
REM options -cpp -mtune=generic -march=x86-64 -g -O0 -fpre-include=/usr/include/finclude/math-vector-fortran.h
REM seed 723577471 -1064576158 -470983305 443179429 162113702 659531750 42828597 -1514231433 1282817578 -1731319426 950553460 125744101 154217546 -804235293 1960406221 -797602817 2046745444 726067517 1957095912 -239634603 896708224 1386767604 1489808103 491887539 2036587299 -1671148113 1504236431 390167204 1789053295 942999849 -793620048 -1728841948 -1763198465
REM
CELL 1.54180   50.00000   50.00000   50.00000   90.00000   90.00000   90.00000
LATT -1
SFAC C  
C      1  0.4996660000000  0.5176080000000  0.5675020000000 1.0
C      1  0.4279540000000  0.5143150000000  0.5071160000000 1.0
C      1  0.4652350000000  0.5101010000000  0.4326110000000 1.0
C      1  0.5605040000000  0.5157130000000  0.4429940000000 1.0
C      1  0.5725660000000  0.5141240000000  0.5248010000000 1.0
C      1  0.4988040000000  0.4896040000000  0.5665070000000 1.0
C      1  0.4219860000000  0.4891610000000  0.5191740000000 1.0
C      1  0.4740970000000  0.4868360000000  0.4172900000000 1.0
C      1  0.5616830000000  0.4880670000000  0.4396980000000 1.0
C      1  0.5752650000000  0.4857690000000  0.5306940000000 1.0
C      1  0.4912940000000  0.4674500000000  0.4544780000000 1.0
C      1  0.5449540000000  0.4658250000000  0.4749930000000 1.0
C      1  0.5341510000000  0.4650890000000  0.5335900000000 1.0
C      1  0.4821600000000  0.4547660000000  0.5364030000000 1.0
C      1  0.4499040000000  0.4630370000000  0.4951390000000 1.0
C      1  0.4893990000000  0.5219930000000  0.4683420000000 1.0
C      1  0.5377880000000  0.5197300000000  0.4800050000000 1.0
C      1  0.5262140000000  0.5237280000000  0.5264420000000 1.0
C      1  0.4701530000000  0.5513790000000  0.5414420000000 1.0
C      1  0.4435150000000  0.5552330000000  0.4949000000000 1.0
C      1  0.4759610000000  0.5790520000000  0.5422180000000 1.0
C      1  0.4481260000000  0.5830470000000  0.4925350000000 1.0
C      1  0.4820010000000  0.5489560000000  0.4719960000000 1.0
C      1  0.5292080000000  0.5466930000000  0.4798520000000 1.0
C      1  0.5167700000000  0.5501530000000  0.5271640000000 1.0
C      1  0.4806460000000  0.4272150000000  0.5419940000000 1.0
C      1  0.4548390000000  0.4352800000000  0.4959070000000 1.0
C      1  0.4881920000000  0.4401620000000  0.4574200000000 1.0
C      1  0.5390130000000  0.4387090000000  0.4759720000000 1.0
C      1  0.5315850000000  0.4375510000000  0.5292180000000 1.0
C      1  0.4294650000000  0.5320840000000  0.4820550000000 1.0
C      1  0.4932000000000  0.5211640000000  0.4397370000000 1.0
C      1  0.5650950000000  0.5227880000000  0.4707440000000 1.0
C      1  0.5505680000000  0.5246940000000  0.5420460000000 1.0
C      1  0.4740870000000  0.5307860000000  0.5609840000000 1.0
C      1  0.4224920000000  0.4724960000000  0.4941400000000 1.0
C      1  0.4992830000000  0.4755460000000  0.4283860000000 1.0
C      1  0.5705550000000  0.4745740000000  0.4650840000000 1.0
C      1  0.5544240000000  0.4757900000000  0.5494930000000 1.0
C      1  0.4751230000000  0.4762920000000  0.5529750000000 1.0
C      1  0.5798150000000  0.5136830000000  0.4948000000000 1.0
C      1  0.5386350000000  0.5169920000000  0.5678410000000 1.0
C      1  0.4500710000000  0.5138600000000  0.5624540000000 1.0
C      1  0.4378190000000  0.5120930000000  0.4573920000000 1.0
C      1  0.5223820000000  0.5155210000000  0.4322340000000 1.0
C      1  0.5836830000000  0.4849210000000  0.4908260000000 1.0
C      1  0.5380540000000  0.4893950000000  0.5699020000000 1.0
C      1  0.4471370000000  0.4889760000000  0.5472870000000 1.0
C      1  0.4223120000000  0.4867290000000  0.4669370000000 1.0
C      1  0.5258290000000  0.4875800000000  0.4272900000000 1.0
C      1  0.5145900000000  0.5753190000000  0.5147530000000 1.0
C      1  0.4898080000000  0.5899180000000  0.5199200000000 1.0
C      1  0.4752610000000  0.5913030000000  0.4940950000000 1.0
C      1  0.4917510000000  0.5753120000000  0.4760630000000 1.0
C      1  0.5185440000000  0.5717200000000  0.4863640000000 1.0
C      1  0.5187950000000  0.4168900000000  0.5145080000000 1.0
C      1  0.4904470000000  0.4112060000000  0.5208400000000 1.0
C      1  0.4752900000000  0.4154410000000  0.4959160000000 1.0
C      1  0.4944810000000  0.4191950000000  0.4746100000000 1.0
C      1  0.5211800000000  0.4195020000000  0.4856880000000 1.0
C      1  0.4869700000000  0.4935350000000  0.4791640000000 1.0
C      1  0.4574640000000  0.5135580000000  0.5113400000000 1.0
C      1  0.5310240000000  0.4903210000000  0.4814230000000 1.0
C      1  0.4642080000000  0.4893930000000  0.4962520000000 1.0
C      1  0.5188000000000  0.4964930000000  0.5226830000000 1.0
C      1  0.4943590000000  0.4616490000000  0.5112450000000 1.0
C      1  0.4614680000000  0.5417770000000  0.5157710000000 1.0
C      1  0.5077640000000  0.4857640000000  0.4983320000000 1.0
END
