TITL C-3201372-1405-1722 -5.91495361424493e-07 125000 -875.275494163451 0 0 142 (C1) n - 1
REM
REM in /home/nfs/bkarasulu/CARBON/AIRSS/Generating-Clusters/LCBOP/Higher-Symm/SD-CG/FIRE-CG
REM
REM
REM
REM
REM
REM ./C.cell (b20cbc046b6831c77cfcea5457e17084)
REM AIRSS Version 0.9.1 bugfix July 2018 build 013d7b7c2542+ Fri, 06 Jul 2018 19:26:36 +0100
REM compiler GCC version 9.2.1 20190827 (Red Hat 9.2.1-1)
REM options -cpp -mtune=generic -march=x86-64 -g -O0 -fpre-include=/usr/include/finclude/math-vector-fortran.h
REM seed -1861196925 -886027816 1219140388 -1240227757 1567281214 1374274156 2084360100 2145585106 -1522090729 698091994 1254248232 1495830217 -806782542 -1840730379 703326193 870433593 446507560 1046898155 232888286 354669642 -623711137 -2061804170 -65185517 -1449465515 147908405 1245261449 231052894 -1560065989 -141710375 -1645368274 -674399662 -620272125 -1815795788
REM
CELL 1.54180   50.00000   50.00000   50.00000   90.00000   90.00000   90.00000
LATT -1
SFAC C  
C      1  0.4859420000000  0.5815170000000  0.3999230000000 1.0
C      1  0.4831440000000  0.6174510000000  0.5487360000000 1.0
C      1  0.4897620000000  0.4860190000000  0.6322590000000 1.0
C      1  0.4898570000000  0.3685770000000  0.5288050000000 1.0
C      1  0.4747980000000  0.4270430000000  0.3914510000000 1.0
C      1  0.5128510000000  0.5801660000000  0.3988670000000 1.0
C      1  0.5100850000000  0.6176570000000  0.5477540000000 1.0
C      1  0.5166200000000  0.4840790000000  0.6309230000000 1.0
C      1  0.5168060000000  0.3687400000000  0.5280360000000 1.0
C      1  0.5015350000000  0.4277290000000  0.3880660000000 1.0
C      1  0.4752580000000  0.5182550000000  0.5966380000000 1.0
C      1  0.4744000000000  0.4118630000000  0.5492980000000 1.0
C      1  0.4660580000000  0.4231630000000  0.4406960000000 1.0
C      1  0.4683530000000  0.5357090000000  0.4115010000000 1.0
C      1  0.4671270000000  0.5912510000000  0.5091230000000 1.0
C      1  0.5325230000000  0.5146510000000  0.5943320000000 1.0
C      1  0.5320050000000  0.4123650000000  0.5474950000000 1.0
C      1  0.5232290000000  0.4239650000000  0.4333130000000 1.0
C      1  0.5251560000000  0.5328440000000  0.4096360000000 1.0
C      1  0.5246250000000  0.5923170000000  0.5067470000000 1.0
C      1  0.5280510000000  0.6074090000000  0.5304300000000 1.0
C      1  0.5352060000000  0.4958280000000  0.6152720000000 1.0
C      1  0.5353160000000  0.3867780000000  0.5358510000000 1.0
C      1  0.5223870000000  0.4264380000000  0.4051450000000 1.0
C      1  0.5301870000000  0.5598290000000  0.4027530000000 1.0
C      1  0.4642920000000  0.6066720000000  0.5326930000000 1.0
C      1  0.4716530000000  0.5003390000000  0.6182630000000 1.0
C      1  0.4714650000000  0.3862270000000  0.5376640000000 1.0
C      1  0.4590900000000  0.4249620000000  0.4133100000000 1.0
C      1  0.4667850000000  0.5632350000000  0.4050890000000 1.0
C      1  0.4841770000000  0.5512190000000  0.5354370000000 1.0
C      1  0.4875480000000  0.4804330000000  0.5653620000000 1.0
C      1  0.4858270000000  0.4330600000000  0.5044540000000 1.0
C      1  0.4815650000000  0.4708350000000  0.4411870000000 1.0
C      1  0.4812210000000  0.5464680000000  0.4587150000000 1.0
C      1  0.5129740000000  0.5500460000000  0.5323910000000 1.0
C      1  0.5166170000000  0.4791460000000  0.5627590000000 1.0
C      1  0.5151560000000  0.4310860000000  0.5033870000000 1.0
C      1  0.5103560000000  0.4722950000000  0.4398540000000 1.0
C      1  0.5111340000000  0.5466270000000  0.4566680000000 1.0
C      1  0.4824900000000  0.4794350000000  0.5197090000000 1.0
C      1  0.4632580000000  0.4746640000000  0.4952310000000 1.0
C      1  0.4722750000000  0.4978060000000  0.4770500000000 1.0
C      1  0.4860480000000  0.5190610000000  0.4954290000000 1.0
C      1  0.4799690000000  0.5081850000000  0.5224310000000 1.0
C      1  0.5187480000000  0.4792520000000  0.5175030000000 1.0
C      1  0.5268940000000  0.4731730000000  0.4893200000000 1.0
C      1  0.5253700000000  0.4972370000000  0.4745270000000 1.0
C      1  0.5169180000000  0.5194730000000  0.4934180000000 1.0
C      1  0.5316540000000  0.5080400000000  0.5195970000000 1.0
C      1  0.5867730000000  0.4401990000000  0.4788230000000 1.0
C      1  0.6417040000000  0.5036750000000  0.4412460000000 1.0
C      1  0.5803190000000  0.5586910000000  0.4754460000000 1.0
C      1  0.5824360000000  0.5471290000000  0.5550290000000 1.0
C      1  0.5873080000000  0.4630390000000  0.5599980000000 1.0
C      1  0.3761640000000  0.4464610000000  0.4740490000000 1.0
C      1  0.4153220000000  0.5043240000000  0.4289270000000 1.0
C      1  0.3899380000000  0.5766970000000  0.4783400000000 1.0
C      1  0.4193600000000  0.5386020000000  0.5514040000000 1.0
C      1  0.4156550000000  0.4638190000000  0.5501790000000 1.0
C      1  0.3985980000000  0.4350840000000  0.5151140000000 1.0
C      1  0.3742690000000  0.4786160000000  0.4390240000000 1.0
C      1  0.4042700000000  0.5510750000000  0.4383520000000 1.0
C      1  0.3920330000000  0.5737680000000  0.5269560000000 1.0
C      1  0.3951110000000  0.5027430000000  0.5708380000000 1.0
C      1  0.6018370000000  0.4347490000000  0.5247170000000 1.0
C      1  0.6223800000000  0.4584100000000  0.4490440000000 1.0
C      1  0.6220070000000  0.5480980000000  0.4473670000000 1.0
C      1  0.5947730000000  0.5754320000000  0.5178300000000 1.0
C      1  0.6000160000000  0.5072510000000  0.5731900000000 1.0
C      1  0.5571800000000  0.5415810000000  0.4774760000000 1.0
C      1  0.5550040000000  0.5425560000000  0.5521130000000 1.0
C      1  0.5611240000000  0.5053740000000  0.5105530000000 1.0
C      1  0.5591500000000  0.4358590000000  0.4791410000000 1.0
C      1  0.5812260000000  0.4991410000000  0.4661600000000 1.0
C      1  0.4383200000000  0.5322610000000  0.4911630000000 1.0
C      1  0.4417400000000  0.5257010000000  0.5395140000000 1.0
C      1  0.4436030000000  0.4660400000000  0.5524900000000 1.0
C      1  0.4357890000000  0.4852590000000  0.5038860000000 1.0
C      1  0.4403320000000  0.4924950000000  0.4332460000000 1.0
C      1  0.3940780000000  0.5270910000000  0.5128880000000 1.0
C      1  0.3931730000000  0.4979440000000  0.5210020000000 1.0
C      1  0.4056520000000  0.4811920000000  0.4970020000000 1.0
C      1  0.4011520000000  0.5014100000000  0.4736140000000 1.0
C      1  0.4076300000000  0.5303360000000  0.4836570000000 1.0
C      1  0.6042740000000  0.5262760000000  0.5169960000000 1.0
C      1  0.5890090000000  0.4993370000000  0.5240180000000 1.0
C      1  0.6027360000000  0.4795100000000  0.5033010000000 1.0
C      1  0.6091800000000  0.4958780000000  0.4776280000000 1.0
C      1  0.6130450000000  0.5247390000000  0.4890030000000 1.0
C      1  0.5986200000000  0.4512040000000  0.5022970000000 1.0
C      1  0.6276080000000  0.4850040000000  0.4568920000000 1.0
C      1  0.6056880000000  0.5456890000000  0.4700800000000 1.0
C      1  0.5972220000000  0.5506000000000  0.5310010000000 1.0
C      1  0.5913010000000  0.4898620000000  0.5527160000000 1.0
C      1  0.3942500000000  0.4534870000000  0.4942820000000 1.0
C      1  0.3954000000000  0.4951560000000  0.4466680000000 1.0
C      1  0.3993180000000  0.5532390000000  0.4660260000000 1.0
C      1  0.4001530000000  0.5475400000000  0.5321720000000 1.0
C      1  0.3983340000000  0.4867520000000  0.5476930000000 1.0
C      1  0.4826470000000  0.4011930000000  0.4479550000000 1.0
C      1  0.4818900000000  0.5191960000000  0.3926810000000 1.0
C      1  0.4811800000000  0.6035800000000  0.4876640000000 1.0
C      1  0.4919950000000  0.5407130000000  0.6016040000000 1.0
C      1  0.4904160000000  0.4131620000000  0.5728070000000 1.0
C      1  0.5095590000000  0.4015700000000  0.4443690000000 1.0
C      1  0.5090000000000  0.5179780000000  0.3915010000000 1.0
C      1  0.5083090000000  0.6040770000000  0.4866050000000 1.0
C      1  0.5190710000000  0.5388940000000  0.6008450000000 1.0
C      1  0.5175710000000  0.4131650000000  0.5720500000000 1.0
C      1  0.5944250000000  0.4392400000000  0.5500740000000 1.0
C      1  0.6034480000000  0.4405810000000  0.4561420000000 1.0
C      1  0.6382900000000  0.5298590000000  0.4360320000000 1.0
C      1  0.5832310000000  0.5800010000000  0.4937980000000 1.0
C      1  0.5956540000000  0.5336370000000  0.5758110000000 1.0
C      1  0.4056350000000  0.4393700000000  0.5406060000000 1.0
C      1  0.3661720000000  0.4561230000000  0.4512050000000 1.0
C      1  0.4120050000000  0.5313720000000  0.4216540000000 1.0
C      1  0.3874140000000  0.5859140000000  0.5034160000000 1.0
C      1  0.4078840000000  0.5264190000000  0.5742130000000 1.0
C      1  0.5257110000000  0.4620380000000  0.5405820000000 1.0
C      1  0.5306010000000  0.4450370000000  0.4799880000000 1.0
C      1  0.5215620000000  0.4984870000000  0.4466270000000 1.0
C      1  0.5275980000000  0.5464970000000  0.4831780000000 1.0
C      1  0.5305300000000  0.5265170000000  0.5439330000000 1.0
C      1  0.4724760000000  0.4638140000000  0.5437370000000 1.0
C      1  0.4708560000000  0.4479800000000  0.4842930000000 1.0
C      1  0.4666600000000  0.4974970000000  0.4470590000000 1.0
C      1  0.4687190000000  0.5438550000000  0.4871200000000 1.0
C      1  0.4711720000000  0.5251290000000  0.5453870000000 1.0
C      1  0.5232670000000  0.4475520000000  0.4496010000000 1.0
C      1  0.5215310000000  0.5260100000000  0.4370610000000 1.0
C      1  0.5237890000000  0.5638210000000  0.5082030000000 1.0
C      1  0.5287620000000  0.5054760000000  0.5673780000000 1.0
C      1  0.5278880000000  0.4348680000000  0.5305230000000 1.0
C      1  0.4705680000000  0.4471690000000  0.4553940000000 1.0
C      1  0.4703000000000  0.5277240000000  0.4390010000000 1.0
C      1  0.4709930000000  0.5631090000000  0.5115270000000 1.0
C      1  0.4764740000000  0.5077100000000  0.5701330000000 1.0
C      1  0.4754150000000  0.4348200000000  0.5323630000000 1.0
C      1  0.4388200000000  0.5129360000000  0.5137890000000 1.0
C      1  0.5637410000000  0.5140000000000  0.4826410000000 1.0
END
