TITL C-3201373-1215-1447 1.5005611838988e-06 125000 -495.600652688278 0 0 80 (D4h) n - 1
REM
REM in /home/nfs/bkarasulu/CARBON/AIRSS/Generating-Clusters/LCBOP/Higher-Symm/SD-CG/FIRE-CG
REM
REM
REM
REM
REM
REM ./C.cell (b20cbc046b6831c77cfcea5457e17084)
REM AIRSS Version 0.9.1 bugfix July 2018 build 013d7b7c2542+ Fri, 06 Jul 2018 19:26:36 +0100
REM compiler GCC version 9.2.1 20190827 (Red Hat 9.2.1-1)
REM options -cpp -mtune=generic -march=x86-64 -g -O0 -fpre-include=/usr/include/finclude/math-vector-fortran.h
REM seed -290759925 -731547673 957819736 -1006812928 1666063764 1996392588 903797735 751090366 -385693687 1664397681 -2049068833 1538320368 146296386 1024236493 902393223 -1092770537 1190661929 -23924375 334783884 1379819994 -1964461379 -1251328138 -1210103347 -1326574507 -467799390 1195713947 1987420064 1405121965 -1778224235 1060126128 -190304142 139811864 -135066554
REM
CELL 1.54180   50.00000   50.00000   50.00000   90.00000   90.00000   90.00000
LATT -1
SFAC C  
C      1  0.4633020000000  0.5602860000000  0.5276260000000 1.0
C      1  0.5603420000000  0.5367570000000  0.5275860000000 1.0
C      1  0.5367580000000  0.4397180000000  0.5276390000000 1.0
C      1  0.4396120000000  0.4632370000000  0.5276260000000 1.0
C      1  0.4632670000000  0.5603720000000  0.4723990000000 1.0
C      1  0.5603060000000  0.5367610000000  0.4723820000000 1.0
C      1  0.5367770000000  0.4396490000000  0.4723990000000 1.0
C      1  0.4397260000000  0.4632930000000  0.4723410000000 1.0
C      1  0.5224080000000  0.5035350000000  0.5422760000000 1.0
C      1  0.5038480000000  0.4777800000000  0.5428120000000 1.0
C      1  0.4772420000000  0.4966910000000  0.5428550000000 1.0
C      1  0.4969140000000  0.5224080000000  0.5423570000000 1.0
C      1  0.5222980000000  0.5037810000000  0.4576410000000 1.0
C      1  0.5036750000000  0.4772960000000  0.4571460000000 1.0
C      1  0.4776470000000  0.4969960000000  0.4571900000000 1.0
C      1  0.4966420000000  0.5224330000000  0.4577220000000 1.0
C      1  0.4370270000000  0.5158310000000  0.4435600000000 1.0
C      1  0.5157690000000  0.5629820000000  0.4436130000000 1.0
C      1  0.5627950000000  0.4843040000000  0.4436150000000 1.0
C      1  0.4842680000000  0.4369140000000  0.4435750000000 1.0
C      1  0.4368390000000  0.5158260000000  0.5564340000000 1.0
C      1  0.5158220000000  0.5629740000000  0.5564140000000 1.0
C      1  0.5629480000000  0.4842980000000  0.5563810000000 1.0
C      1  0.4843170000000  0.4372390000000  0.5564110000000 1.0
C      1  0.5553440000000  0.5339560000000  0.5563820000000 1.0
C      1  0.5340110000000  0.4446900000000  0.5564420000000 1.0
C      1  0.4445520000000  0.4660560000000  0.5564300000000 1.0
C      1  0.4661760000000  0.5551890000000  0.5563830000000 1.0
C      1  0.5553150000000  0.5339970000000  0.4435820000000 1.0
C      1  0.5340580000000  0.4445020000000  0.4435680000000 1.0
C      1  0.4448420000000  0.4661920000000  0.4435940000000 1.0
C      1  0.4661180000000  0.5553250000000  0.4436170000000 1.0
C      1  0.4313920000000  0.5169610000000  0.5276030000000 1.0
C      1  0.5169590000000  0.5685630000000  0.5276120000000 1.0
C      1  0.5686170000000  0.4830910000000  0.5275990000000 1.0
C      1  0.4830860000000  0.4314870000000  0.5276650000000 1.0
C      1  0.4314620000000  0.5169600000000  0.4723630000000 1.0
C      1  0.5169410000000  0.5685930000000  0.4724080000000 1.0
C      1  0.5685220000000  0.4830950000000  0.4723720000000 1.0
C      1  0.4830650000000  0.4313580000000  0.4723790000000 1.0
C      1  0.4435420000000  0.5414260000000  0.5143850000000 1.0
C      1  0.5414290000000  0.5564610000000  0.5143740000000 1.0
C      1  0.5564880000000  0.4585920000000  0.5143830000000 1.0
C      1  0.4585360000000  0.4434940000000  0.5144000000000 1.0
C      1  0.4435410000000  0.5414470000000  0.4856170000000 1.0
C      1  0.5414150000000  0.5564700000000  0.4856200000000 1.0
C      1  0.5564660000000  0.4585850000000  0.4856150000000 1.0
C      1  0.4585510000000  0.4434820000000  0.4856060000000 1.0
C      1  0.5108970000000  0.4291740000000  0.4854480000000 1.0
C      1  0.4292290000000  0.4891400000000  0.4853920000000 1.0
C      1  0.4891420000000  0.5707630000000  0.4854500000000 1.0
C      1  0.5707200000000  0.5108890000000  0.4854110000000 1.0
C      1  0.5108920000000  0.4292340000000  0.5146120000000 1.0
C      1  0.4291700000000  0.4891280000000  0.5145570000000 1.0
C      1  0.4891520000000  0.5707280000000  0.5145850000000 1.0
C      1  0.5707590000000  0.5108920000000  0.5145460000000 1.0
C      1  0.4595730000000  0.4449290000000  0.5680780000000 1.0
C      1  0.4448560000000  0.5404890000000  0.5680610000000 1.0
C      1  0.5405360000000  0.5551960000000  0.5680620000000 1.0
C      1  0.5552400000000  0.4595810000000  0.5680680000000 1.0
C      1  0.4596050000000  0.4448980000000  0.4319270000000 1.0
C      1  0.4448560000000  0.5405500000000  0.4319320000000 1.0
C      1  0.5404740000000  0.5552350000000  0.4319320000000 1.0
C      1  0.5551750000000  0.4595540000000  0.4319390000000 1.0
C      1  0.4540460000000  0.4930510000000  0.4396410000000 1.0
C      1  0.4929820000000  0.5459400000000  0.4399490000000 1.0
C      1  0.5458680000000  0.5071480000000  0.4398630000000 1.0
C      1  0.5071770000000  0.4536880000000  0.4395980000000 1.0
C      1  0.4536730000000  0.4929440000000  0.5604040000000 1.0
C      1  0.4930480000000  0.5459020000000  0.5601340000000 1.0
C      1  0.5459300000000  0.5071040000000  0.5600480000000 1.0
C      1  0.5071720000000  0.4540840000000  0.5603620000000 1.0
C      1  0.5039570000000  0.4714110000000  0.5129590000000 1.0
C      1  0.4715180000000  0.4952140000000  0.5129680000000 1.0
C      1  0.4953090000000  0.5284910000000  0.5126900000000 1.0
C      1  0.5286360000000  0.5041000000000  0.5127150000000 1.0
C      1  0.5039860000000  0.4713950000000  0.4870340000000 1.0
C      1  0.4715410000000  0.4951900000000  0.4870420000000 1.0
C      1  0.4953120000000  0.5285450000000  0.4872840000000 1.0
C      1  0.5285840000000  0.5040790000000  0.4873080000000 1.0
END
