TITL C-3201378-2706-1914 5.59353409964064e-06 125000 -710.146783109195 0 0 117 (C1) n - 1
REM
REM in /home/nfs/bkarasulu/CARBON/AIRSS/Generating-Clusters/LCBOP/Higher-Symm/SD-CG/FIRE-CG
REM
REM
REM
REM
REM
REM ./C.cell (b20cbc046b6831c77cfcea5457e17084)
REM AIRSS Version 0.9.1 bugfix July 2018 build 013d7b7c2542+ Fri, 06 Jul 2018 19:26:36 +0100
REM compiler GCC version 9.2.1 20190827 (Red Hat 9.2.1-1)
REM options -cpp -mtune=generic -march=x86-64 -g -O0 -fpre-include=/usr/include/finclude/math-vector-fortran.h
REM seed -294921669 -1120163215 2069830902 -1711530161 -1596888104 1526148868 -930309511 -404669393 -1807702619 1733932016 967785951 1423382171 1321046028 -496611862 -799067892 404317897 -2118732974 438443867 -59697078 -1423388581 -332475777 1062505973 457317442 -2091166153 59076000 2046608970 1775062768 -1123676081 -951564245 -302738421 -736279293 213093914 -460887828
REM
CELL 1.54180   50.00000   50.00000   50.00000   90.00000   90.00000   90.00000
LATT -1
SFAC C  
C      1  0.5116510000000  0.4604970000000  0.4084150000000 1.0
C      1  0.4479520000000  0.5309310000000  0.5759070000000 1.0
C      1  0.4983570000000  0.5590120000000  0.4722860000000 1.0
C      1  0.5770750000000  0.5681490000000  0.4910340000000 1.0
C      1  0.4535890000000  0.4193400000000  0.5112470000000 1.0
C      1  0.4519570000000  0.4863340000000  0.4084020000000 1.0
C      1  0.5999550000000  0.4447490000000  0.5534820000000 1.0
C      1  0.5014110000000  0.4880340000000  0.5458000000000 1.0
C      1  0.4023340000000  0.5352140000000  0.5544150000000 1.0
C      1  0.4744570000000  0.5699470000000  0.4303200000000 1.0
C      1  0.5407690000000  0.4979370000000  0.5199810000000 1.0
C      1  0.4995280000000  0.5153790000000  0.5070040000000 1.0
C      1  0.5306400000000  0.5625770000000  0.4223020000000 1.0
C      1  0.5297640000000  0.3787920000000  0.5239020000000 1.0
C      1  0.6026780000000  0.5276180000000  0.4826890000000 1.0
C      1  0.5162260000000  0.3895960000000  0.4800120000000 1.0
C      1  0.5894720000000  0.4295210000000  0.5732470000000 1.0
C      1  0.5787220000000  0.4896010000000  0.4668740000000 1.0
C      1  0.5460060000000  0.4901100000000  0.4225630000000 1.0
C      1  0.5062220000000  0.4814930000000  0.3893970000000 1.0
C      1  0.4961660000000  0.4735690000000  0.4716190000000 1.0
C      1  0.4439860000000  0.5843390000000  0.4897170000000 1.0
C      1  0.5256260000000  0.5283240000000  0.5552540000000 1.0
C      1  0.5506160000000  0.5146040000000  0.4994210000000 1.0
C      1  0.4811970000000  0.5373650000000  0.5122180000000 1.0
C      1  0.4751880000000  0.4569840000000  0.5846880000000 1.0
C      1  0.4357090000000  0.5024590000000  0.5400670000000 1.0
C      1  0.5509970000000  0.5064960000000  0.5891690000000 1.0
C      1  0.6022800000000  0.5024260000000  0.4700290000000 1.0
C      1  0.6053230000000  0.5285590000000  0.5110780000000 1.0
C      1  0.4006340000000  0.4820440000000  0.4957130000000 1.0
C      1  0.4457360000000  0.4584370000000  0.4805410000000 1.0
C      1  0.4942160000000  0.5044690000000  0.4003100000000 1.0
C      1  0.4640330000000  0.4601100000000  0.4054570000000 1.0
C      1  0.5754260000000  0.5183440000000  0.5493780000000 1.0
C      1  0.4873380000000  0.4543960000000  0.4225080000000 1.0
C      1  0.5086360000000  0.5416170000000  0.5720870000000 1.0
C      1  0.4295840000000  0.4045010000000  0.5069080000000 1.0
C      1  0.4660500000000  0.4635470000000  0.5266860000000 1.0
C      1  0.5015570000000  0.5143070000000  0.4263090000000 1.0
C      1  0.4266510000000  0.5219810000000  0.5591400000000 1.0
C      1  0.5516060000000  0.5236550000000  0.5659850000000 1.0
C      1  0.5250020000000  0.5614090000000  0.4797000000000 1.0
C      1  0.4636760000000  0.5093920000000  0.5858510000000 1.0
C      1  0.4199060000000  0.5450500000000  0.4737690000000 1.0
C      1  0.4820170000000  0.4612600000000  0.4501900000000 1.0
C      1  0.4796980000000  0.5248420000000  0.4430860000000 1.0
C      1  0.5306790000000  0.5131920000000  0.4352640000000 1.0
C      1  0.5011950000000  0.4544140000000  0.5952400000000 1.0
C      1  0.4533310000000  0.5352690000000  0.5062230000000 1.0
C      1  0.4005920000000  0.5305450000000  0.4888740000000 1.0
C      1  0.4521380000000  0.5160280000000  0.4451490000000 1.0
C      1  0.4462100000000  0.4896920000000  0.4369750000000 1.0
C      1  0.4830360000000  0.5518540000000  0.4506060000000 1.0
C      1  0.4400290000000  0.5562260000000  0.4910680000000 1.0
C      1  0.5386080000000  0.5403200000000  0.4934310000000 1.0
C      1  0.5374340000000  0.4644740000000  0.4190310000000 1.0
C      1  0.4419290000000  0.6001830000000  0.5118620000000 1.0
C      1  0.5459020000000  0.5398300000000  0.4331450000000 1.0
C      1  0.5333810000000  0.5855230000000  0.4391500000000 1.0
C      1  0.4589370000000  0.5560440000000  0.5695310000000 1.0
C      1  0.4588420000000  0.5911070000000  0.4397910000000 1.0
C      1  0.5264550000000  0.4661550000000  0.5992320000000 1.0
C      1  0.3859790000000  0.5436330000000  0.5348210000000 1.0
C      1  0.4508310000000  0.4135730000000  0.5601780000000 1.0
C      1  0.5849560000000  0.5477600000000  0.4714130000000 1.0
C      1  0.5287520000000  0.4950870000000  0.6032470000000 1.0
C      1  0.4824550000000  0.5601080000000  0.4045910000000 1.0
C      1  0.5776910000000  0.4414600000000  0.4991870000000 1.0
C      1  0.4127600000000  0.5062870000000  0.4981880000000 1.0
C      1  0.5386580000000  0.5833970000000  0.4669520000000 1.0
C      1  0.5850160000000  0.5368760000000  0.5294620000000 1.0
C      1  0.5673620000000  0.4831130000000  0.5811210000000 1.0
C      1  0.4547500000000  0.4475120000000  0.5053630000000 1.0
C      1  0.5114560000000  0.5619080000000  0.4002280000000 1.0
C      1  0.5277440000000  0.4050360000000  0.5312300000000 1.0
C      1  0.4549150000000  0.4384690000000  0.5750460000000 1.0
C      1  0.5533680000000  0.4588780000000  0.5899810000000 1.0
C      1  0.4735860000000  0.5671260000000  0.5499080000000 1.0
C      1  0.5240310000000  0.3709050000000  0.4983660000000 1.0
C      1  0.5542290000000  0.4996660000000  0.4754960000000 1.0
C      1  0.5059290000000  0.4988420000000  0.4813390000000 1.0
C      1  0.5928070000000  0.5470590000000  0.4236170000000 1.0
C      1  0.5209350000000  0.5632730000000  0.3744400000000 1.0
C      1  0.5185850000000  0.4528220000000  0.5204700000000 1.0
C      1  0.4485270000000  0.5956530000000  0.4642030000000 1.0
C      1  0.4306910000000  0.5334740000000  0.4505780000000 1.0
C      1  0.5428130000000  0.4693030000000  0.5197880000000 1.0
C      1  0.5736100000000  0.5446280000000  0.4437730000000 1.0
C      1  0.5693900000000  0.4590810000000  0.5191570000000 1.0
C      1  0.4909080000000  0.5598180000000  0.5286010000000 1.0
C      1  0.4213480000000  0.4113890000000  0.5538250000000 1.0
C      1  0.4659540000000  0.5097290000000  0.3954060000000 1.0
C      1  0.5288880000000  0.5035700000000  0.4634660000000 1.0
C      1  0.5451930000000  0.5697040000000  0.5293800000000 1.0
C      1  0.4667310000000  0.4836570000000  0.5747980000000 1.0
C      1  0.4098970000000  0.4378710000000  0.5584110000000 1.0
C      1  0.4366580000000  0.5119050000000  0.5133270000000 1.0
C      1  0.4323220000000  0.4550180000000  0.5627060000000 1.0
C      1  0.5179210000000  0.5698930000000  0.5288500000000 1.0
C      1  0.5846710000000  0.4235160000000  0.4816230000000 1.0
C      1  0.5197410000000  0.4257710000000  0.5131770000000 1.0
C      1  0.4662260000000  0.4108580000000  0.5360080000000 1.0
C      1  0.5675080000000  0.4347660000000  0.5881050000000 1.0
C      1  0.5872130000000  0.4664950000000  0.5403070000000 1.0
C      1  0.3836920000000  0.5427540000000  0.5079320000000 1.0
C      1  0.5705930000000  0.5604960000000  0.5191890000000 1.0
C      1  0.4946550000000  0.4651700000000  0.5309050000000 1.0
C      1  0.5629110000000  0.5899110000000  0.4795540000000 1.0
C      1  0.4147990000000  0.3985540000000  0.5291830000000 1.0
C      1  0.3836550000000  0.4445790000000  0.5586430000000 1.0
C      1  0.4538820000000  0.4681430000000  0.4550830000000 1.0
C      1  0.4488030000000  0.4772070000000  0.5493320000000 1.0
C      1  0.4653900000000  0.5389520000000  0.3931220000000 1.0
C      1  0.5141310000000  0.4159430000000  0.4869140000000 1.0
C      1  0.5167440000000  0.5096540000000  0.5330640000000 1.0
C      1  0.5814240000000  0.4895790000000  0.5562180000000 1.0
END
