TITL C-3201375-1262-628 -4.41558899949715e-07 125000 -256.02790945464 0 0 43 (C1) n - 1
REM
REM in /home/nfs/bkarasulu/CARBON/AIRSS/Generating-Clusters/LCBOP/Higher-Symm/SD-CG/FIRE-CG
REM
REM
REM
REM
REM
REM ./C.cell (b20cbc046b6831c77cfcea5457e17084)
REM AIRSS Version 0.9.1 bugfix July 2018 build 013d7b7c2542+ Fri, 06 Jul 2018 19:26:36 +0100
REM compiler GCC version 9.2.1 20190827 (Red Hat 9.2.1-1)
REM options -cpp -mtune=generic -march=x86-64 -g -O0 -fpre-include=/usr/include/finclude/math-vector-fortran.h
REM seed -1445131019 1348663804 1017943480 1377698931 -58805304 -1431423646 731468794 219220622 -2003726068 637624067 1945996160 1583196460 -2133294304 348865005 1457099776 -1057914695 1903032138 -1001916147 183302282 -1971574011 1173763478 949876715 398052869 -423661624 1637053324 1974137746 -2059000694 -573728150 -463925134 663183928 -621980404 888272213 1993400737
REM
CELL 1.54180   50.00000   50.00000   50.00000   90.00000   90.00000   90.00000
LATT -1
SFAC C  
C      1  0.4739830000000  0.5104770000000  0.5510420000000 1.0
C      1  0.5114770000000  0.5275640000000  0.4507500000000 1.0
C      1  0.5288170000000  0.4954860000000  0.5525350000000 1.0
C      1  0.4969210000000  0.4729350000000  0.4490140000000 1.0
C      1  0.5374450000000  0.5389840000000  0.4554680000000 1.0
C      1  0.5321810000000  0.4674570000000  0.5474880000000 1.0
C      1  0.4687510000000  0.4695820000000  0.4535160000000 1.0
C      1  0.4630140000000  0.5367910000000  0.5468560000000 1.0
C      1  0.4944000000000  0.4738050000000  0.5161890000000 1.0
C      1  0.4755300000000  0.5067040000000  0.4861070000000 1.0
C      1  0.5074850000000  0.5202490000000  0.5205850000000 1.0
C      1  0.5219370000000  0.4938290000000  0.4810950000000 1.0
C      1  0.5370410000000  0.4500870000000  0.5270160000000 1.0
C      1  0.4503920000000  0.4642910000000  0.4730700000000 1.0
C      1  0.4585670000000  0.5537140000000  0.5259710000000 1.0
C      1  0.5534110000000  0.5426970000000  0.4771490000000 1.0
C      1  0.4601730000000  0.5485720000000  0.4978710000000 1.0
C      1  0.5484510000000  0.5383010000000  0.5048720000000 1.0
C      1  0.5368980000000  0.4524020000000  0.4983810000000 1.0
C      1  0.4523940000000  0.4619420000000  0.5017380000000 1.0
C      1  0.5212580000000  0.5434500000000  0.5120850000000 1.0
C      1  0.5443420000000  0.4788230000000  0.4898750000000 1.0
C      1  0.4781540000000  0.4518490000000  0.5090890000000 1.0
C      1  0.4524990000000  0.5217880000000  0.4919550000000 1.0
C      1  0.4555750000000  0.4880650000000  0.5461770000000 1.0
C      1  0.4889330000000  0.5456500000000  0.4555540000000 1.0
C      1  0.5527680000000  0.5115370000000  0.5471820000000 1.0
C      1  0.5131000000000  0.4489010000000  0.4538630000000 1.0
C      1  0.5060880000000  0.5628640000000  0.4983580000000 1.0
C      1  0.5647140000000  0.4932470000000  0.5031210000000 1.0
C      1  0.4928220000000  0.4320240000000  0.4952210000000 1.0
C      1  0.4334400000000  0.5065960000000  0.5062760000000 1.0
C      1  0.5245210000000  0.4352700000000  0.4330220000000 1.0
C      1  0.4494640000000  0.4711880000000  0.5670450000000 1.0
C      1  0.4727280000000  0.5527360000000  0.4345100000000 1.0
C      1  0.5677650000000  0.5217890000000  0.5676610000000 1.0
C      1  0.5166190000000  0.4399820000000  0.4813720000000 1.0
C      1  0.4430570000000  0.4833040000000  0.5198900000000 1.0
C      1  0.4835240000000  0.5566780000000  0.4822350000000 1.0
C      1  0.5599410000000  0.5160910000000  0.5194000000000 1.0
C      1  0.5032630000000  0.5093150000000  0.5471680000000 1.0
C      1  0.5107890000000  0.4984490000000  0.4547310000000 1.0
C      1  0.5001750000000  0.4989530000000  0.5009850000000 1.0
END
