TITL C-3201377-4638-2165 -8.44669248561046e-07 125000 -1127.27718241839 0 0 180 (Cs) n - 1
REM
REM in /home/nfs/bkarasulu/CARBON/AIRSS/Generating-Clusters/LCBOP/Higher-Symm/SD-CG/FIRE-CG
REM
REM
REM
REM
REM
REM ./C.cell (b20cbc046b6831c77cfcea5457e17084)
REM AIRSS Version 0.9.1 bugfix July 2018 build 013d7b7c2542+ Fri, 06 Jul 2018 19:26:36 +0100
REM compiler GCC version 9.2.1 20190827 (Red Hat 9.2.1-1)
REM options -cpp -mtune=generic -march=x86-64 -g -O0 -fpre-include=/usr/include/finclude/math-vector-fortran.h
REM seed 959204794 -1440658281 -816715954 1178926259 1039793415 1060024958 42445562 -906896649 1407267521 -339669257 859636900 931135921 -2064109204 -534684714 -1288559333 1776461310 -148020928 -45938183 1290568756 -346992569 174199696 1289995001 822137530 -699755338 -1073256374 1529399607 2018515509 -241606712 1310787391 1920192342 396699034 682848693 -1542022800
REM
CELL 1.54180   50.00000   50.00000   50.00000   90.00000   90.00000   90.00000
LATT -1
SFAC C  
C      1  0.4256860000000  0.5358480000000  0.4431640000000 1.0
C      1  0.5745590000000  0.4641060000000  0.4433840000000 1.0
C      1  0.4255870000000  0.5357490000000  0.5568030000000 1.0
C      1  0.5745720000000  0.4640420000000  0.5566530000000 1.0
C      1  0.4254410000000  0.4641060000000  0.4433830000000 1.0
C      1  0.5743150000000  0.5358480000000  0.4431650000000 1.0
C      1  0.4254270000000  0.4640430000000  0.5566520000000 1.0
C      1  0.5744120000000  0.5357490000000  0.5568040000000 1.0
C      1  0.4170310000000  0.4847920000000  0.4250900000000 1.0
C      1  0.5792940000000  0.5149830000000  0.4237470000000 1.0
C      1  0.4170110000000  0.4847170000000  0.5749470000000 1.0
C      1  0.5793550000000  0.5149090000000  0.5762530000000 1.0
C      1  0.4207070000000  0.5149840000000  0.4237460000000 1.0
C      1  0.5829700000000  0.4847910000000  0.4250910000000 1.0
C      1  0.4206440000000  0.5149090000000  0.5762520000000 1.0
C      1  0.5829880000000  0.4847160000000  0.5749480000000 1.0
C      1  0.4044990000000  0.5257620000000  0.4865860000000 1.0
C      1  0.5954900000000  0.4742060000000  0.4866550000000 1.0
C      1  0.4044850000000  0.5256900000000  0.5133440000000 1.0
C      1  0.5954930000000  0.4741770000000  0.5133870000000 1.0
C      1  0.4045100000000  0.4742070000000  0.4866540000000 1.0
C      1  0.5955020000000  0.5257610000000  0.4865870000000 1.0
C      1  0.4045060000000  0.4741770000000  0.5133860000000 1.0
C      1  0.5955150000000  0.5256900000000  0.5133450000000 1.0
C      1  0.5371800000000  0.4323320000000  0.5223150000000 1.0
C      1  0.4626850000000  0.5675550000000  0.5224220000000 1.0
C      1  0.5371760000000  0.4323830000000  0.4776780000000 1.0
C      1  0.4627640000000  0.5677000000000  0.4777850000000 1.0
C      1  0.5373150000000  0.5675550000000  0.5224230000000 1.0
C      1  0.4628190000000  0.4323320000000  0.5223150000000 1.0
C      1  0.5372370000000  0.5676990000000  0.4777850000000 1.0
C      1  0.4628240000000  0.4323830000000  0.4776780000000 1.0
C      1  0.5470560000000  0.4606570000000  0.5156610000000 1.0
C      1  0.4528400000000  0.5392340000000  0.5156570000000 1.0
C      1  0.5470540000000  0.4606910000000  0.4843870000000 1.0
C      1  0.4528630000000  0.5393300000000  0.4843620000000 1.0
C      1  0.5471600000000  0.5392340000000  0.5156570000000 1.0
C      1  0.4529430000000  0.4606570000000  0.5156600000000 1.0
C      1  0.5471370000000  0.5393300000000  0.4843620000000 1.0
C      1  0.4529460000000  0.4606910000000  0.4843860000000 1.0
C      1  0.5326880000000  0.3619590000000  0.5133410000000 1.0
C      1  0.4855290000000  0.6382450000000  0.5123290000000 1.0
C      1  0.5326870000000  0.3619710000000  0.4866480000000 1.0
C      1  0.4723520000000  0.6385640000000  0.4875370000000 1.0
C      1  0.5144720000000  0.6382450000000  0.5123290000000 1.0
C      1  0.4673110000000  0.3619590000000  0.5133410000000 1.0
C      1  0.5276480000000  0.6385640000000  0.4875370000000 1.0
C      1  0.4673120000000  0.3619710000000  0.4866480000000 1.0
C      1  0.5684020000000  0.4355940000000  0.5609720000000 1.0
C      1  0.4313930000000  0.5643680000000  0.5609240000000 1.0
C      1  0.5684060000000  0.4356500000000  0.4390550000000 1.0
C      1  0.4315890000000  0.5644530000000  0.4390400000000 1.0
C      1  0.5686070000000  0.5643680000000  0.5609250000000 1.0
C      1  0.4315970000000  0.4355940000000  0.5609710000000 1.0
C      1  0.5684120000000  0.5644520000000  0.4390410000000 1.0
C      1  0.4315940000000  0.4356500000000  0.4390540000000 1.0
C      1  0.4154360000000  0.4126360000000  0.4863390000000 1.0
C      1  0.5847930000000  0.5872590000000  0.4862980000000 1.0
C      1  0.4154380000000  0.4126150000000  0.5136730000000 1.0
C      1  0.5848450000000  0.5872140000000  0.5136190000000 1.0
C      1  0.4152070000000  0.5872590000000  0.4862970000000 1.0
C      1  0.5845630000000  0.4126350000000  0.4863400000000 1.0
C      1  0.4151550000000  0.5872140000000  0.5136180000000 1.0
C      1  0.5845610000000  0.4126150000000  0.5136750000000 1.0
C      1  0.4557940000000  0.5719250000000  0.4247290000000 1.0
C      1  0.5442180000000  0.4283320000000  0.4246480000000 1.0
C      1  0.4555440000000  0.5719440000000  0.5752670000000 1.0
C      1  0.5442070000000  0.4282900000000  0.5753740000000 1.0
C      1  0.4557830000000  0.4283320000000  0.4246470000000 1.0
C      1  0.5442070000000  0.5719250000000  0.4247300000000 1.0
C      1  0.4557910000000  0.4282900000000  0.5753730000000 1.0
C      1  0.5444550000000  0.5719440000000  0.5752670000000 1.0
C      1  0.4732530000000  0.6317990000000  0.4616080000000 1.0
C      1  0.5268680000000  0.3683860000000  0.4613770000000 1.0
C      1  0.4743010000000  0.6313470000000  0.5374700000000 1.0
C      1  0.5268700000000  0.3683580000000  0.5386170000000 1.0
C      1  0.4731320000000  0.3683870000000  0.4613760000000 1.0
C      1  0.5267480000000  0.6317990000000  0.4616090000000 1.0
C      1  0.4731290000000  0.3683580000000  0.5386170000000 1.0
C      1  0.5256990000000  0.6313470000000  0.5374710000000 1.0
C      1  0.4742720000000  0.5141920000000  0.5545390000000 1.0
C      1  0.5257610000000  0.4858890000000  0.5546010000000 1.0
C      1  0.4742650000000  0.5142150000000  0.4454630000000 1.0
C      1  0.5257620000000  0.4859150000000  0.4454730000000 1.0
C      1  0.4742380000000  0.4858890000000  0.5546000000000 1.0
C      1  0.5257280000000  0.5141920000000  0.5545390000000 1.0
C      1  0.4742390000000  0.4859150000000  0.4454720000000 1.0
C      1  0.5257350000000  0.5142150000000  0.4454630000000 1.0
C      1  0.5279290000000  0.5524200000000  0.5885860000000 1.0
C      1  0.4720480000000  0.4479330000000  0.5888340000000 1.0
C      1  0.5278890000000  0.5523130000000  0.4113090000000 1.0
C      1  0.4720490000000  0.4479800000000  0.4112110000000 1.0
C      1  0.5279500000000  0.4479330000000  0.5888340000000 1.0
C      1  0.4720700000000  0.5524200000000  0.5885850000000 1.0
C      1  0.5279520000000  0.4479800000000  0.4112110000000 1.0
C      1  0.4721120000000  0.5523130000000  0.4113080000000 1.0
C      1  0.5245250000000  0.4758980000000  0.4722210000000 1.0
C      1  0.4754640000000  0.5242100000000  0.4722010000000 1.0
C      1  0.5245260000000  0.4758340000000  0.5278630000000 1.0
C      1  0.4754550000000  0.5240860000000  0.5277540000000 1.0
C      1  0.5245360000000  0.5242090000000  0.4722010000000 1.0
C      1  0.4754750000000  0.4758990000000  0.4722200000000 1.0
C      1  0.5245450000000  0.5240860000000  0.5277550000000 1.0
C      1  0.4754740000000  0.4758340000000  0.5278630000000 1.0
C      1  0.5146510000000  0.4689950000000  0.4256540000000 1.0
C      1  0.4853550000000  0.5312070000000  0.4256800000000 1.0
C      1  0.5146520000000  0.4689780000000  0.5744280000000 1.0
C      1  0.4853460000000  0.5312950000000  0.5742470000000 1.0
C      1  0.5146460000000  0.5312070000000  0.4256800000000 1.0
C      1  0.4853500000000  0.4689950000000  0.4256540000000 1.0
C      1  0.5146530000000  0.5312950000000  0.5742480000000 1.0
C      1  0.4853470000000  0.4689790000000  0.5744280000000 1.0
C      1  0.4867200000000  0.5786160000000  0.5258040000000 1.0
C      1  0.5132770000000  0.4209200000000  0.5253850000000 1.0
C      1  0.4867160000000  0.5790430000000  0.4747140000000 1.0
C      1  0.5132770000000  0.4209720000000  0.4745860000000 1.0
C      1  0.4867220000000  0.4209200000000  0.5253850000000 1.0
C      1  0.5132800000000  0.5786160000000  0.5258040000000 1.0
C      1  0.4867230000000  0.4209720000000  0.4745860000000 1.0
C      1  0.5132840000000  0.5790430000000  0.4747140000000 1.0
C      1  0.6019340000000  0.4867360000000  0.3784380000000 1.0
C      1  0.4053050000000  0.5127810000000  0.3757590000000 1.0
C      1  0.6018870000000  0.4866760000000  0.6216240000000 1.0
C      1  0.4053020000000  0.5127390000000  0.6242580000000 1.0
C      1  0.5946970000000  0.5127810000000  0.3757610000000 1.0
C      1  0.3980670000000  0.4867360000000  0.3784360000000 1.0
C      1  0.5946960000000  0.5127380000000  0.6242590000000 1.0
C      1  0.3981120000000  0.4866760000000  0.6216230000000 1.0
C      1  0.5145760000000  0.3841570000000  0.5588270000000 1.0
C      1  0.4853180000000  0.6158950000000  0.5591100000000 1.0
C      1  0.5145780000000  0.3841950000000  0.4411710000000 1.0
C      1  0.4853830000000  0.6160930000000  0.4411460000000 1.0
C      1  0.5146820000000  0.6158950000000  0.5591100000000 1.0
C      1  0.4854230000000  0.3841570000000  0.5588260000000 1.0
C      1  0.5146180000000  0.6160930000000  0.4411460000000 1.0
C      1  0.4854220000000  0.3841950000000  0.4411710000000 1.0
C      1  0.5136360000000  0.5602660000000  0.6120380000000 1.0
C      1  0.4863580000000  0.4401590000000  0.6123120000000 1.0
C      1  0.5136390000000  0.5600650000000  0.3878000000000 1.0
C      1  0.4863590000000  0.4402360000000  0.3877250000000 1.0
C      1  0.5136410000000  0.4401590000000  0.6123120000000 1.0
C      1  0.4863630000000  0.5602670000000  0.6120380000000 1.0
C      1  0.5136420000000  0.4402360000000  0.3877250000000 1.0
C      1  0.4863630000000  0.5600650000000  0.3878000000000 1.0
C      1  0.5313730000000  0.4029610000000  0.5719340000000 1.0
C      1  0.4680290000000  0.5974520000000  0.5719060000000 1.0
C      1  0.5313860000000  0.4029980000000  0.4280740000000 1.0
C      1  0.4685250000000  0.5972970000000  0.4281390000000 1.0
C      1  0.5319700000000  0.5974520000000  0.5719070000000 1.0
C      1  0.4686260000000  0.4029610000000  0.5719340000000 1.0
C      1  0.5314760000000  0.5972970000000  0.4281400000000 1.0
C      1  0.4686150000000  0.4029990000000  0.4280740000000 1.0
C      1  0.4201220000000  0.5814900000000  0.4599660000000 1.0
C      1  0.5797050000000  0.4184330000000  0.4599880000000 1.0
C      1  0.4199510000000  0.5813790000000  0.5399550000000 1.0
C      1  0.5796950000000  0.4183820000000  0.5400330000000 1.0
C      1  0.4202950000000  0.4184340000000  0.4599870000000 1.0
C      1  0.5798790000000  0.5814890000000  0.4599670000000 1.0
C      1  0.4203040000000  0.4183820000000  0.5400320000000 1.0
C      1  0.5800490000000  0.5813780000000  0.5399560000000 1.0
C      1  0.5727510000000  0.4691770000000  0.4712420000000 1.0
C      1  0.4271890000000  0.5307760000000  0.4710720000000 1.0
C      1  0.5727590000000  0.4691280000000  0.5288000000000 1.0
C      1  0.4271580000000  0.5306430000000  0.5289050000000 1.0
C      1  0.5728120000000  0.5307750000000  0.4710730000000 1.0
C      1  0.4272490000000  0.4691780000000  0.4712410000000 1.0
C      1  0.5728420000000  0.5306420000000  0.5289060000000 1.0
C      1  0.4272400000000  0.4691290000000  0.5287990000000 1.0
C      1  0.4031280000000  0.4742630000000  0.5980160000000 1.0
C      1  0.5835620000000  0.5252510000000  0.6029080000000 1.0
C      1  0.4030910000000  0.4743410000000  0.4020520000000 1.0
C      1  0.5835110000000  0.5252990000000  0.3970830000000 1.0
C      1  0.4164370000000  0.5252520000000  0.6029070000000 1.0
C      1  0.5968710000000  0.4742620000000  0.5980170000000 1.0
C      1  0.4164900000000  0.5252990000000  0.3970810000000 1.0
C      1  0.5969100000000  0.4743410000000  0.4020530000000 1.0
C      1  0.5000000000000  0.5243230000000  0.4860060000000 1.0
C      1  0.5000000000000  0.4757980000000  0.4860560000000 1.0
C      1  0.5000000000000  0.5242390000000  0.5139550000000 1.0
C      1  0.5000000000000  0.4757510000000  0.5140270000000 1.0
END
