TITL C-3201376-6384-995 0.376698823029012 125000 -427.629190955653 0 0 70 (C1) n - 1
REM
REM in /home/nfs/bkarasulu/CARBON/AIRSS/Generating-Clusters/LCBOP/Higher-Symm/SD-CG/FIRE-CG
REM
REM
REM
REM
REM
REM ./C.cell (b20cbc046b6831c77cfcea5457e17084)
REM AIRSS Version 0.9.1 bugfix July 2018 build 013d7b7c2542+ Fri, 06 Jul 2018 19:26:36 +0100
REM compiler GCC version 9.2.1 20190827 (Red Hat 9.2.1-1)
REM options -cpp -mtune=generic -march=x86-64 -g -O0 -fpre-include=/usr/include/finclude/math-vector-fortran.h
REM seed 1447134590 -805941889 186320308 -990782818 -137474015 -752315739 -1275099002 129522149 -325332138 -1196533683 -72728504 1316142314 -1230581128 1345163953 -1464510219 -407993499 107947007 1084146133 148723700 -742833158 372723671 367348738 -791648330 1501571598 1683768583 -480908626 -261658492 1070249304 915908830 -2027375415 -2145228443 -1454845489 1647958893
REM
CELL 1.54180   50.00000   50.00000   50.00000   90.00000   90.00000   90.00000
LATT -1
SFAC C  
C      1  0.4341910000000  0.4403570000000  0.4501060000000 1.0
C      1  0.4519070000000  0.4206080000000  0.4474800000000 1.0
C      1  0.5646380000000  0.5076190000000  0.5095160000000 1.0
C      1  0.5637270000000  0.4269230000000  0.5323940000000 1.0
C      1  0.5806640000000  0.6390430000000  0.4828970000000 1.0
C      1  0.4992200000000  0.4077620000000  0.4645070000000 1.0
C      1  0.5876840000000  0.4772710000000  0.4477650000000 1.0
C      1  0.4505550000000  0.5607290000000  0.5276740000000 1.0
C      1  0.6083270000000  0.4682770000000  0.4657990000000 1.0
C      1  0.5542990000000  0.5271710000000  0.5266260000000 1.0
C      1  0.5100390000000  0.4839290000000  0.4133590000000 1.0
C      1  0.4791790000000  0.5006140000000  0.5422010000000 1.0
C      1  0.5169710000000  0.4931450000000  0.4695680000000 1.0
C      1  0.5344640000000  0.4932590000000  0.4235650000000 1.0
C      1  0.5494020000000  0.5527680000000  0.5164440000000 1.0
C      1  0.4404460000000  0.4755210000000  0.5263520000000 1.0
C      1  0.5392650000000  0.4920660000000  0.4517530000000 1.0
C      1  0.5373350000000  0.4189020000000  0.5278540000000 1.0
C      1  0.5526870000000  0.5962620000000  0.4951480000000 1.0
C      1  0.4169140000000  0.4994960000000  0.4956360000000 1.0
C      1  0.6325790000000  0.4568280000000  0.4593540000000 1.0
C      1  0.4517740000000  0.5956550000000  0.6002440000000 1.0
C      1  0.5378910000000  0.5735330000000  0.5016410000000 1.0
C      1  0.4182790000000  0.5129150000000  0.5478330000000 1.0
C      1  0.4435540000000  0.4878040000000  0.4456580000000 1.0
C      1  0.4684560000000  0.4299540000000  0.5193430000000 1.0
C      1  0.4686560000000  0.4764860000000  0.5317740000000 1.0
C      1  0.4468540000000  0.5120720000000  0.4599900000000 1.0
C      1  0.4756690000000  0.4095660000000  0.4522210000000 1.0
C      1  0.4203100000000  0.4717630000000  0.4853230000000 1.0
C      1  0.4713110000000  0.5527560000000  0.4696420000000 1.0
C      1  0.4447210000000  0.5631110000000  0.4684770000000 1.0
C      1  0.4824690000000  0.5235030000000  0.5263040000000 1.0
C      1  0.5303440000000  0.5149300000000  0.5728610000000 1.0
C      1  0.6555250000000  0.4458430000000  0.4537010000000 1.0
C      1  0.4593210000000  0.4829750000000  0.4230360000000 1.0
C      1  0.5151660000000  0.4762540000000  0.4919230000000 1.0
C      1  0.4836310000000  0.4809830000000  0.4123870000000 1.0
C      1  0.6004370000000  0.4576780000000  0.5144330000000 1.0
C      1  0.4961270000000  0.5108040000000  0.4635130000000 1.0
C      1  0.5255710000000  0.4004530000000  0.5443220000000 1.0
C      1  0.5667880000000  0.6178250000000  0.4889730000000 1.0
C      1  0.4296820000000  0.4666080000000  0.4589300000000 1.0
C      1  0.5744870000000  0.4913510000000  0.4893580000000 1.0
C      1  0.4431040000000  0.4306200000000  0.5096340000000 1.0
C      1  0.5056180000000  0.5091510000000  0.5812150000000 1.0
C      1  0.5112610000000  0.5710250000000  0.4934610000000 1.0
C      1  0.4503860000000  0.5752220000000  0.5513960000000 1.0
C      1  0.4233950000000  0.4990100000000  0.5242020000000 1.0
C      1  0.4306710000000  0.4555940000000  0.5070890000000 1.0
C      1  0.5865050000000  0.4400280000000  0.5286740000000 1.0
C      1  0.4307070000000  0.5161040000000  0.5714900000000 1.0
C      1  0.4723930000000  0.5252520000000  0.4614920000000 1.0
C      1  0.4525430000000  0.6048220000000  0.6246370000000 1.0
C      1  0.4800750000000  0.5053830000000  0.5704660000000 1.0
C      1  0.5470200000000  0.5208850000000  0.5529590000000 1.0
C      1  0.4262580000000  0.5485460000000  0.4849810000000 1.0
C      1  0.4745950000000  0.5488930000000  0.5173950000000 1.0
C      1  0.5978320000000  0.4742020000000  0.4922280000000 1.0
C      1  0.4861150000000  0.5592100000000  0.4932400000000 1.0
C      1  0.4510100000000  0.5861450000000  0.5755160000000 1.0
C      1  0.4271870000000  0.5570050000000  0.5119650000000 1.0
C      1  0.4838870000000  0.4538240000000  0.5227310000000 1.0
C      1  0.5226460000000  0.4299230000000  0.5061640000000 1.0
C      1  0.4551880000000  0.5118950000000  0.5819190000000 1.0
C      1  0.5086610000000  0.4548000000000  0.5087650000000 1.0
C      1  0.5168350000000  0.4147490000000  0.4832320000000 1.0
C      1  0.5528910000000  0.5044460000000  0.4066820000000 1.0
C      1  0.4263210000000  0.5204300000000  0.4788900000000 1.0
C      1  0.5653760000000  0.4894620000000  0.4616910000000 1.0
END
