TITL C-3201373-1215-560 -214737.440590526 125000 -1135.16721494147 0 0 185 (C5) n - 1
REM
REM in /home/nfs/bkarasulu/CARBON/AIRSS/Generating-Clusters/LCBOP/Higher-Symm/SD-CG/FIRE-CG
REM
REM
REM
REM
REM
REM ./C.cell (b20cbc046b6831c77cfcea5457e17084)
REM AIRSS Version 0.9.1 bugfix July 2018 build 013d7b7c2542+ Fri, 06 Jul 2018 19:26:36 +0100
REM compiler GCC version 9.2.1 20190827 (Red Hat 9.2.1-1)
REM options -cpp -mtune=generic -march=x86-64 -g -O0 -fpre-include=/usr/include/finclude/math-vector-fortran.h
REM seed -2062304502 383587082 1022366801 1985775806 376930171 -716273971 -794232909 -623509279 -13253884 -1618043371 -1543315756 2063929316 543110379 548070634 990991536 -1444914667 -1000680889 1675383022 1819362503 -1702503901 1046382862 -1637558938 1252197686 888983335 1741615006 1865876536 1895631010 2061275532 251903461 1269566783 47282850 1810176871 528482925
REM
CELL 1.54180   50.00000   50.00000   50.00000   90.00000   90.00000   90.00000
LATT -1
SFAC C  
C      1  0.4436960000000  0.4007560000000  0.4845340000000 1.0
C      1  0.4436950000000  0.4840410000000  0.4008340000000 1.0
C      1  0.4436930000000  0.5893810000000  0.4541800000000 1.0
C      1  0.4436970000000  0.5711980000000  0.5708480000000 1.0
C      1  0.4436970000000  0.4546220000000  0.5896080000000 1.0
C      1  0.5407380000000  0.4745750000000  0.4626910000000 1.0
C      1  0.5407380000000  0.5276260000000  0.4642900000000 1.0
C      1  0.5407380000000  0.5424990000000  0.5152370000000 1.0
C      1  0.5407390000000  0.4986400000000  0.5451270000000 1.0
C      1  0.5407390000000  0.4566610000000  0.5126520000000 1.0
C      1  0.4799030000000  0.5162090000000  0.3968660000000 1.0
C      1  0.4799050000000  0.6030960000000  0.4835460000000 1.0
C      1  0.4799090000000  0.5475060000000  0.5929640000000 1.0
C      1  0.4799040000000  0.4262650000000  0.5739100000000 1.0
C      1  0.4799050000000  0.4069220000000  0.4527140000000 1.0
C      1  0.4737770000000  0.4339980000000  0.5056110000000 1.0
C      1  0.4737760000000  0.4742670000000  0.4389630000000 1.0
C      1  0.4737750000000  0.5500990000000  0.4566660000000 1.0
C      1  0.4737770000000  0.5566950000000  0.5342550000000 1.0
C      1  0.4737770000000  0.4849410000000  0.5645060000000 1.0
C      1  0.5246480000000  0.4326220000000  0.5031800000000 1.0
C      1  0.5246470000000  0.4761550000000  0.4369020000000 1.0
C      1  0.5246460000000  0.5526410000000  0.4578220000000 1.0
C      1  0.5246480000000  0.5563790000000  0.5370290000000 1.0
C      1  0.5246480000000  0.4822020000000  0.5650630000000 1.0
C      1  0.6024600000000  0.4659270000000  0.5391930000000 1.0
C      1  0.6024580000000  0.4521940000000  0.4797020000000 1.0
C      1  0.6024570000000  0.5045300000000  0.4482630000000 1.0
C      1  0.6024550000000  0.5506080000000  0.4883210000000 1.0
C      1  0.6024520000000  0.5267450000000  0.5445200000000 1.0
C      1  0.4125010000000  0.4663990000000  0.4379220000000 1.0
C      1  0.4125000000000  0.5486560000000  0.4488610000000 1.0
C      1  0.4125010000000  0.5636710000000  0.5304740000000 1.0
C      1  0.4125020000000  0.4906940000000  0.5699730000000 1.0
C      1  0.4125010000000  0.4305760000000  0.5127740000000 1.0
C      1  0.3859680000000  0.5416520000000  0.4621500000000 1.0
C      1  0.3859680000000  0.5488690000000  0.5279190000000 1.0
C      1  0.3859690000000  0.4885490000000  0.5551060000000 1.0
C      1  0.3859690000000  0.4440530000000  0.5061400000000 1.0
C      1  0.3859680000000  0.4768730000000  0.4486900000000 1.0
C      1  0.4546900000000  0.5310750000000  0.5965780000000 1.0
C      1  0.4546870000000  0.4177520000000  0.5593990000000 1.0
C      1  0.4546870000000  0.4180920000000  0.4401340000000 1.0
C      1  0.4546850000000  0.5316260000000  0.4036020000000 1.0
C      1  0.4546860000000  0.6014530000000  0.5002900000000 1.0
C      1  0.5807150000000  0.5435970000000  0.5537370000000 1.0
C      1  0.5807230000000  0.4623660000000  0.5580660000000 1.0
C      1  0.5807210000000  0.4331440000000  0.4821470000000 1.0
C      1  0.5807190000000  0.4963180000000  0.4309000000000 1.0
C      1  0.5807160000000  0.5645830000000  0.4751430000000 1.0
C      1  0.5046260000000  0.4255520000000  0.4166640000000 1.0
C      1  0.5046230000000  0.5562540000000  0.4034440000000 1.0
C      1  0.5046250000000  0.6092140000000  0.5236630000000 1.0
C      1  0.5046280000000  0.5112440000000  0.6111800000000 1.0
C      1  0.5046260000000  0.3977370000000  0.5450510000000 1.0
C      1  0.5068990000000  0.5274150000000  0.3999710000000 1.0
C      1  0.5069040000000  0.6036040000000  0.4951620000000 1.0
C      1  0.5069060000000  0.5366150000000  0.5970350000000 1.0
C      1  0.5068970000000  0.4190250000000  0.5648130000000 1.0
C      1  0.5069000000000  0.4133380000000  0.4430180000000 1.0
C      1  0.4708000000000  0.5260470000000  0.5018340000000 1.0
C      1  0.4708000000000  0.5063050000000  0.5253400000000 1.0
C      1  0.4708010000000  0.4778490000000  0.5138270000000 1.0
C      1  0.4708000000000  0.4800050000000  0.4832070000000 1.0
C      1  0.4708000000000  0.5097930000000  0.4757940000000 1.0
C      1  0.4549380000000  0.5024640000000  0.6013750000000 1.0
C      1  0.4549360000000  0.4043490000000  0.5336710000000 1.0
C      1  0.4549350000000  0.4384190000000  0.4194360000000 1.0
C      1  0.4549340000000  0.5575920000000  0.4165390000000 1.0
C      1  0.4549350000000  0.5971740000000  0.5289830000000 1.0
C      1  0.3749210000000  0.5236500000000  0.5137000000000 1.0
C      1  0.3749210000000  0.4942790000000  0.5267280000000 1.0
C      1  0.3749210000000  0.4728130000000  0.5028200000000 1.0
C      1  0.3749210000000  0.4889170000000  0.4750160000000 1.0
C      1  0.3749200000000  0.5203360000000  0.4817410000000 1.0
C      1  0.5256310000000  0.4981100000000  0.6240080000000 1.0
C      1  0.5256290000000  0.3814800000000  0.5365230000000 1.0
C      1  0.5256290000000  0.4286390000000  0.3985680000000 1.0
C      1  0.5256250000000  0.5744190000000  0.4007880000000 1.0
C      1  0.5256300000000  0.6173500000000  0.5401160000000 1.0
C      1  0.6125850000000  0.4768340000000  0.4899080000000 1.0
C      1  0.6125850000000  0.5024390000000  0.4748500000000 1.0
C      1  0.6125840000000  0.5246750000000  0.4945470000000 1.0
C      1  0.6125830000000  0.5128110000000  0.5217810000000 1.0
C      1  0.6125850000000  0.4832460000000  0.5189120000000 1.0
C      1  0.4917920000000  0.4681800000000  0.3980980000000 1.0
C      1  0.4917910000000  0.5870830000000  0.4382500000000 1.0
C      1  0.4917940000000  0.5856380000000  0.5637380000000 1.0
C      1  0.4917930000000  0.4658460000000  0.6011440000000 1.0
C      1  0.4917930000000  0.3932520000000  0.4987720000000 1.0
C      1  0.5633220000000  0.4750190000000  0.5069800000000 1.0
C      1  0.5633220000000  0.4856410000000  0.4783980000000 1.0
C      1  0.5633220000000  0.5161070000000  0.4796680000000 1.0
C      1  0.5633220000000  0.5243140000000  0.5090340000000 1.0
C      1  0.5633220000000  0.4989210000000  0.5259150000000 1.0
C      1  0.5327010000000  0.5491900000000  0.5838000000000 1.0
C      1  0.5326820000000  0.4354920000000  0.5726860000000 1.0
C      1  0.5326890000000  0.4109410000000  0.4611140000000 1.0
C      1  0.5326920000000  0.5094630000000  0.4032850000000 1.0
C      1  0.5327050000000  0.5948990000000  0.4791130000000 1.0
C      1  0.5671020000000  0.4461700000000  0.3883270000000 1.0
C      1  0.5671000000000  0.5895730000000  0.4142930000000 1.0
C      1  0.5671050000000  0.6091900000000  0.5587030000000 1.0
C      1  0.5671040000000  0.4779110000000  0.6219860000000 1.0
C      1  0.5671030000000  0.3771590000000  0.5166870000000 1.0
C      1  0.4558320000000  0.4524740000000  0.5169560000000 1.0
C      1  0.4558310000000  0.4691880000000  0.4600410000000 1.0
C      1  0.4558310000000  0.5284830000000  0.4583490000000 1.0
C      1  0.4558310000000  0.5484150000000  0.5142180000000 1.0
C      1  0.4558320000000  0.5014390000000  0.5504390000000 1.0
C      1  0.4187600000000  0.4781040000000  0.5098690000000 1.0
C      1  0.4187600000000  0.4838480000000  0.4822260000000 1.0
C      1  0.4187600000000  0.5119130000000  0.4791470000000 1.0
C      1  0.4187600000000  0.5235140000000  0.5048870000000 1.0
C      1  0.4187600000000  0.5026190000000  0.5238750000000 1.0
C      1  0.5399320000000  0.4750860000000  0.6142760000000 1.0
C      1  0.5399310000000  0.3836190000000  0.5116190000000 1.0
C      1  0.5399310000000  0.4529860000000  0.3929060000000 1.0
C      1  0.5399290000000  0.5873260000000  0.4221930000000 1.0
C      1  0.5399340000000  0.6009810000000  0.5590050000000 1.0
C      1  0.5261510000000  0.4772620000000  0.4055420000000 1.0
C      1  0.5261560000000  0.5828070000000  0.4491880000000 1.0
C      1  0.5261560000000  0.5739140000000  0.5630490000000 1.0
C      1  0.5261480000000  0.4628750000000  0.5897860000000 1.0
C      1  0.5261520000000  0.4031390000000  0.4924370000000 1.0
C      1  0.5631090000000  0.5351270000000  0.5765820000000 1.0
C      1  0.5631280000000  0.4380210000000  0.5570660000000 1.0
C      1  0.5631220000000  0.4265720000000  0.4586880000000 1.0
C      1  0.5631160000000  0.5165990000000  0.4173980000000 1.0
C      1  0.5631060000000  0.5836930000000  0.4902570000000 1.0
C      1  0.4335220000000  0.4079370000000  0.5113730000000 1.0
C      1  0.4335210000000  0.4607350000000  0.4159580000000 1.0
C      1  0.4335200000000  0.5677950000000  0.4366870000000 1.0
C      1  0.4335220000000  0.5811640000000  0.5449140000000 1.0
C      1  0.4335230000000  0.4823660000000  0.5910720000000 1.0
C      1  0.4825370000000  0.5688760000000  0.4176100000000 1.0
C      1  0.4825390000000  0.5996420000000  0.5400450000000 1.0
C      1  0.4825400000000  0.4927070000000  0.6071400000000 1.0
C      1  0.4825390000000  0.3958510000000  0.5261720000000 1.0
C      1  0.4825390000000  0.4429240000000  0.4090350000000 1.0
C      1  0.5729200000000  0.5870190000000  0.5175320000000 1.0
C      1  0.5729190000000  0.5102140000000  0.5881740000000 1.0
C      1  0.5729330000000  0.4192990000000  0.5369570000000 1.0
C      1  0.5729260000000  0.4399110000000  0.4346670000000 1.0
C      1  0.5729250000000  0.5435660000000  0.4226620000000 1.0
C      1  0.4979180000000  0.5526600000000  0.4707660000000 1.0
C      1  0.4979200000000  0.5440770000000  0.5410470000000 1.0
C      1  0.4979200000000  0.4745810000000  0.5546020000000 1.0
C      1  0.4979200000000  0.4402150000000  0.4926990000000 1.0
C      1  0.4979190000000  0.4884700000000  0.4408850000000 1.0
C      1  0.4963550000000  0.5099340000000  0.4592070000000 1.0
C      1  0.4963550000000  0.5418660000000  0.4968420000000 1.0
C      1  0.4963560000000  0.5159410000000  0.5388410000000 1.0
C      1  0.4963560000000  0.4679860000000  0.5271630000000 1.0
C      1  0.4963560000000  0.4642730000000  0.4779470000000 1.0
C      1  0.5754300000000  0.4270520000000  0.5092560000000 1.0
C      1  0.5754290000000  0.4686520000000  0.4334830000000 1.0
C      1  0.5754280000000  0.5535740000000  0.4496300000000 1.0
C      1  0.5754280000000  0.5644610000000  0.5353830000000 1.0
C      1  0.5754280000000  0.4862650000000  0.5722380000000 1.0
C      1  0.4286730000000  0.4538720000000  0.5182920000000 1.0
C      1  0.4286720000000  0.4683500000000  0.4617830000000 1.0
C      1  0.4286710000000  0.5265660000000  0.4580900000000 1.0
C      1  0.4286720000000  0.5480690000000  0.5123160000000 1.0
C      1  0.4286730000000  0.5031410000000  0.5495230000000 1.0
C      1  0.5190650000000  0.5249900000000  0.5029450000000 1.0
C      1  0.5190650000000  0.5049210000000  0.5246770000000 1.0
C      1  0.5190650000000  0.4780510000000  0.5123050000000 1.0
C      1  0.5190650000000  0.4815140000000  0.4829280000000 1.0
C      1  0.5190650000000  0.5105240000000  0.4771430000000 1.0
C      1  0.4727710000000  0.4473440000000  0.5926290000000 1.0
C      1  0.4727700000000  0.3956330000000  0.4785450000000 1.0
C      1  0.4727690000000  0.4881530000000  0.3941120000000 1.0
C      1  0.4727680000000  0.5970460000000  0.4560130000000 1.0
C      1  0.4727720000000  0.5718220000000  0.5787030000000 1.0
C      1  0.4338000000000  0.5113900000000  0.4026350000000 1.0
C      1  0.4337990000000  0.5961190000000  0.4807460000000 1.0
C      1  0.4338030000000  0.5480140000000  0.5854670000000 1.0
C      1  0.4338020000000  0.4335540000000  0.5720760000000 1.0
C      1  0.4338010000000  0.4109200000000  0.4590800000000 1.0
C      1  0.5788080000000  0.5016930000000  0.6147440000000 1.0
C      1  0.5788100000000  0.3913950000000  0.5370660000000 1.0
C      1  0.5788100000000  0.4311880000000  0.4081630000000 1.0
C      1  0.5788070000000  0.5660770000000  0.4061740000000 1.0
C      1  0.5788110000000  0.6096530000000  0.5338480000000 1.0
END
