TITL C-3201374-830-296 136718.987080947 125000 -873.636457366538 0 0 143 (C1) n - 1
REM
REM in /home/nfs/bkarasulu/CARBON/AIRSS/Generating-Clusters/LCBOP/Higher-Symm/SD-CG/FIRE-CG
REM
REM
REM
REM
REM
REM ./C.cell (b20cbc046b6831c77cfcea5457e17084)
REM AIRSS Version 0.9.1 bugfix July 2018 build 013d7b7c2542+ Fri, 06 Jul 2018 19:26:36 +0100
REM compiler GCC version 9.2.1 20190827 (Red Hat 9.2.1-1)
REM options -cpp -mtune=generic -march=x86-64 -g -O0 -fpre-include=/usr/include/finclude/math-vector-fortran.h
REM seed 2074109797 1872375198 587716713 1525601859 1294800082 1299556033 -1161701572 -673425584 1079112676 -1629450606 1481786752 780889715 -1866743665 2101838511 -1076527868 2102617456 -1488165235 -228191488 -1381718195 1985203466 -790452965 -1985771912 654874300 -1159426969 203876427 2054187974 -729277439 1684796323 -1186132092 -1124748739 1226670111 -1752986040 1153786574
REM
CELL 1.54180   50.00000   50.00000   50.00000   90.00000   90.00000   90.00000
LATT -1
SFAC C  
C      1  0.6038640000000  0.4713220000000  0.4931870000000 1.0
C      1  0.5839830000000  0.5156080000000  0.4814170000000 1.0
C      1  0.4578670000000  0.4124320000000  0.5507940000000 1.0
C      1  0.3901920000000  0.5441090000000  0.4633990000000 1.0
C      1  0.5228300000000  0.4876750000000  0.4429610000000 1.0
C      1  0.5483630000000  0.4773350000000  0.3673760000000 1.0
C      1  0.5792410000000  0.5332830000000  0.4399020000000 1.0
C      1  0.5213830000000  0.4000880000000  0.5718910000000 1.0
C      1  0.4658130000000  0.5031070000000  0.5109420000000 1.0
C      1  0.4951640000000  0.5726000000000  0.5778480000000 1.0
C      1  0.5035870000000  0.4343510000000  0.4949540000000 1.0
C      1  0.3779590000000  0.5379140000000  0.4885070000000 1.0
C      1  0.5516970000000  0.4484540000000  0.5873020000000 1.0
C      1  0.4615540000000  0.4589260000000  0.4857180000000 1.0
C      1  0.3938800000000  0.5177170000000  0.5311580000000 1.0
C      1  0.4943800000000  0.5981100000000  0.5658100000000 1.0
C      1  0.4832240000000  0.5308460000000  0.5962870000000 1.0
C      1  0.4730230000000  0.6409630000000  0.5899030000000 1.0
C      1  0.4752860000000  0.4808730000000  0.5977140000000 1.0
C      1  0.5625540000000  0.4500120000000  0.4222580000000 1.0
C      1  0.5913790000000  0.4690920000000  0.5698290000000 1.0
C      1  0.5899260000000  0.5063190000000  0.5333370000000 1.0
C      1  0.4244670000000  0.5502210000000  0.5620210000000 1.0
C      1  0.4459440000000  0.5576570000000  0.5760930000000 1.0
C      1  0.4535620000000  0.5450850000000  0.4205550000000 1.0
C      1  0.5337910000000  0.5662970000000  0.5121570000000 1.0
C      1  0.4855640000000  0.4273050000000  0.5937600000000 1.0
C      1  0.5521960000000  0.4977600000000  0.3844560000000 1.0
C      1  0.5714100000000  0.4773000000000  0.4253340000000 1.0
C      1  0.4708290000000  0.4270090000000  0.5280730000000 1.0
C      1  0.5749090000000  0.5313340000000  0.5237520000000 1.0
C      1  0.4896050000000  0.4644650000000  0.5567820000000 1.0
C      1  0.3552910000000  0.5499190000000  0.4976430000000 1.0
C      1  0.4504230000000  0.4748020000000  0.4383010000000 1.0
C      1  0.4406930000000  0.4684020000000  0.5297700000000 1.0
C      1  0.5836010000000  0.5585680000000  0.4524660000000 1.0
C      1  0.4552090000000  0.4935970000000  0.5358610000000 1.0
C      1  0.5396030000000  0.5431340000000  0.5617060000000 1.0
C      1  0.4593310000000  0.4047390000000  0.4578620000000 1.0
C      1  0.4685290000000  0.6191690000000  0.5103250000000 1.0
C      1  0.4087640000000  0.4586860000000  0.4571410000000 1.0
C      1  0.6030170000000  0.4892320000000  0.5135430000000 1.0
C      1  0.5333880000000  0.4110320000000  0.5486830000000 1.0
C      1  0.3926840000000  0.4686080000000  0.5399060000000 1.0
C      1  0.5789140000000  0.4232420000000  0.5552530000000 1.0
C      1  0.5181150000000  0.5619170000000  0.3833600000000 1.0
C      1  0.5737050000000  0.4205980000000  0.4908370000000 1.0
C      1  0.4932980000000  0.3903300000000  0.4897110000000 1.0
C      1  0.5128050000000  0.5289950000000  0.4933930000000 1.0
C      1  0.4651820000000  0.5284520000000  0.4987770000000 1.0
C      1  0.4119140000000  0.4876960000000  0.4145940000000 1.0
C      1  0.4070260000000  0.5004060000000  0.4853310000000 1.0
C      1  0.5362270000000  0.4702730000000  0.5136420000000 1.0
C      1  0.3763150000000  0.5511640000000  0.4410300000000 1.0
C      1  0.3852660000000  0.4940750000000  0.5437500000000 1.0
C      1  0.4681050000000  0.4787800000000  0.4165520000000 1.0
C      1  0.4893840000000  0.4896200000000  0.5030300000000 1.0
C      1  0.4865160000000  0.5530390000000  0.5308000000000 1.0
C      1  0.5620150000000  0.4033320000000  0.5103670000000 1.0
C      1  0.5212250000000  0.5565530000000  0.4550120000000 1.0
C      1  0.5330390000000  0.5173910000000  0.6008450000000 1.0
C      1  0.5966820000000  0.5937640000000  0.5401400000000 1.0
C      1  0.5769760000000  0.4447970000000  0.5738460000000 1.0
C      1  0.5439800000000  0.5165730000000  0.5743460000000 1.0
C      1  0.4225170000000  0.4695710000000  0.4341000000000 1.0
C      1  0.5913310000000  0.5111260000000  0.4544800000000 1.0
C      1  0.5574740000000  0.4400270000000  0.3964400000000 1.0
C      1  0.5115100000000  0.5359150000000  0.6011380000000 1.0
C      1  0.4467880000000  0.5721560000000  0.5029680000000 1.0
C      1  0.4697010000000  0.5016200000000  0.4018420000000 1.0
C      1  0.5867340000000  0.5618380000000  0.4795540000000 1.0
C      1  0.5172520000000  0.6275930000000  0.5044560000000 1.0
C      1  0.5378440000000  0.4700170000000  0.5762080000000 1.0
C      1  0.5594400000000  0.5001070000000  0.4115180000000 1.0
C      1  0.4942060000000  0.5260110000000  0.5404350000000 1.0
C      1  0.4839000000000  0.5120230000000  0.4568690000000 1.0
C      1  0.5918620000000  0.4625130000000  0.4686110000000 1.0
C      1  0.4289320000000  0.5115430000000  0.4718810000000 1.0
C      1  0.4763060000000  0.5605090000000  0.4281060000000 1.0
C      1  0.4933330000000  0.4410870000000  0.5443700000000 1.0
C      1  0.4738550000000  0.5077540000000  0.5548030000000 1.0
C      1  0.5179610000000  0.3774120000000  0.4952370000000 1.0
C      1  0.5353850000000  0.4317290000000  0.6033380000000 1.0
C      1  0.5435290000000  0.3835910000000  0.5011870000000 1.0
C      1  0.5129620000000  0.4169930000000  0.5935240000000 1.0
C      1  0.4318090000000  0.5491900000000  0.4375890000000 1.0
C      1  0.5757720000000  0.5915410000000  0.5247360000000 1.0
C      1  0.4174240000000  0.4364550000000  0.4737720000000 1.0
C      1  0.4865770000000  0.3970410000000  0.4621510000000 1.0
C      1  0.4950540000000  0.6190040000000  0.5194220000000 1.0
C      1  0.5509180000000  0.4510380000000  0.3727810000000 1.0
C      1  0.5270420000000  0.5352370000000  0.4321760000000 1.0
C      1  0.4506900000000  0.5996240000000  0.5062290000000 1.0
C      1  0.5453010000000  0.4792340000000  0.4884790000000 1.0
C      1  0.3951150000000  0.4783950000000  0.4724510000000 1.0
C      1  0.4073560000000  0.5374530000000  0.5459640000000 1.0
C      1  0.5206690000000  0.5191660000000  0.5232670000000 1.0
C      1  0.4722480000000  0.5559940000000  0.5855030000000 1.0
C      1  0.5336040000000  0.4180980000000  0.4460040000000 1.0
C      1  0.5641180000000  0.4984510000000  0.4891920000000 1.0
C      1  0.4360460000000  0.4170400000000  0.4642190000000 1.0
C      1  0.5571890000000  0.4342470000000  0.4457140000000 1.0
C      1  0.4873640000000  0.4125720000000  0.5065190000000 1.0
C      1  0.5846610000000  0.5395520000000  0.4969620000000 1.0
C      1  0.5392430000000  0.4924460000000  0.5601040000000 1.0
C      1  0.4871090000000  0.5266710000000  0.4803690000000 1.0
C      1  0.5165870000000  0.5798320000000  0.3644830000000 1.0
C      1  0.5069030000000  0.5729380000000  0.5269730000000 1.0
C      1  0.4557000000000  0.4890480000000  0.4634190000000 1.0
C      1  0.5402460000000  0.6142010000000  0.5003180000000 1.0
C      1  0.5603320000000  0.4095580000000  0.5386990000000 1.0
C      1  0.5195630000000  0.5565470000000  0.5798390000000 1.0
C      1  0.4641930000000  0.5525900000000  0.5133380000000 1.0
C      1  0.5244800000000  0.4443890000000  0.5127690000000 1.0
C      1  0.4112740000000  0.4404350000000  0.5020580000000 1.0
C      1  0.4857090000000  0.6207430000000  0.5794390000000 1.0
C      1  0.5751880000000  0.4381890000000  0.4683260000000 1.0
C      1  0.5191780000000  0.4324820000000  0.5377790000000 1.0
C      1  0.4660730000000  0.4141590000000  0.5769790000000 1.0
C      1  0.5077100000000  0.5115270000000  0.4398020000000 1.0
C      1  0.4209660000000  0.5414320000000  0.4636030000000 1.0
C      1  0.4231850000000  0.5099290000000  0.4032340000000 1.0
C      1  0.5256260000000  0.4787850000000  0.4690200000000 1.0
C      1  0.5010660000000  0.4764510000000  0.4815080000000 1.0
C      1  0.4138550000000  0.4578400000000  0.5252400000000 1.0
C      1  0.4497250000000  0.5216830000000  0.4040710000000 1.0
C      1  0.4755490000000  0.5059610000000  0.5838550000000 1.0
C      1  0.5319830000000  0.4920130000000  0.5324350000000 1.0
C      1  0.4796810000000  0.4543560000000  0.6019430000000 1.0
C      1  0.5267960000000  0.5529790000000  0.4840350000000 1.0
C      1  0.3921860000000  0.5178320000000  0.5027880000000 1.0
C      1  0.5197620000000  0.5470520000000  0.4052360000000 1.0
C      1  0.5889640000000  0.4829770000000  0.4473220000000 1.0
C      1  0.5556650000000  0.5247200000000  0.4265190000000 1.0
C      1  0.5091530000000  0.4064980000000  0.4471680000000 1.0
C      1  0.5446250000000  0.5413210000000  0.5308000000000 1.0
C      1  0.5515430000000  0.5905020000000  0.5108330000000 1.0
C      1  0.5008700000000  0.5984370000000  0.5382610000000 1.0
C      1  0.4288440000000  0.5619730000000  0.4841620000000 1.0
C      1  0.5912810000000  0.4938360000000  0.5588480000000 1.0
C      1  0.4882040000000  0.4518370000000  0.4787110000000 1.0
C      1  0.4961180000000  0.5684360000000  0.4451500000000 1.0
C      1  0.4564420000000  0.4504760000000  0.5130650000000 1.0
END
