TITL C-3201378-2706-291 -2296.38681957082 125000 -947.460746138705 0 0 155 (C1) n - 1
REM
REM in /home/nfs/bkarasulu/CARBON/AIRSS/Generating-Clusters/LCBOP/Higher-Symm/SD-CG/FIRE-CG
REM
REM
REM
REM
REM
REM ./C.cell (b20cbc046b6831c77cfcea5457e17084)
REM AIRSS Version 0.9.1 bugfix July 2018 build 013d7b7c2542+ Fri, 06 Jul 2018 19:26:36 +0100
REM compiler GCC version 9.2.1 20190827 (Red Hat 9.2.1-1)
REM options -cpp -mtune=generic -march=x86-64 -g -O0 -fpre-include=/usr/include/finclude/math-vector-fortran.h
REM seed 1268475242 458641798 -641296789 1448969253 1300157731 -736295318 1460515937 912058782 -1134719904 -1121083808 118612095 6657803 -1950892513 2073275084 -349972669 1076700142 -554913706 967931897 1798900379 1650776230 -520734678 1203373752 -854358232 2018922395 -126720787 -86652393 -339695581 1882412086 -1415620083 -1173562244 1605613039 553245293 280267184
REM
CELL 1.54180   50.00000   50.00000   50.00000   90.00000   90.00000   90.00000
LATT -1
SFAC C  
C      1  0.4727360000000  0.4899560000000  0.6163540000000 1.0
C      1  0.5074020000000  0.5268440000000  0.6199750000000 1.0
C      1  0.5223830000000  0.4781490000000  0.6161870000000 1.0
C      1  0.4701640000000  0.5067380000000  0.3816680000000 1.0
C      1  0.5045020000000  0.4696590000000  0.3822630000000 1.0
C      1  0.5198560000000  0.5184650000000  0.3818010000000 1.0
C      1  0.5385780000000  0.5244920000000  0.4265430000000 1.0
C      1  0.4994500000000  0.4532010000000  0.4276210000000 1.0
C      1  0.4602040000000  0.5153980000000  0.4278860000000 1.0
C      1  0.5403390000000  0.4766640000000  0.5710610000000 1.0
C      1  0.5042680000000  0.5487540000000  0.5765930000000 1.0
C      1  0.4601120000000  0.4815950000000  0.5705120000000 1.0
C      1  0.4485110000000  0.5086960000000  0.4025590000000 1.0
C      1  0.5333380000000  0.5372820000000  0.4013980000000 1.0
C      1  0.5131290000000  0.4494740000000  0.4027220000000 1.0
C      1  0.4506080000000  0.4893070000000  0.5962570000000 1.0
C      1  0.5361810000000  0.4614410000000  0.5951100000000 1.0
C      1  0.5171000000000  0.5491020000000  0.6021950000000 1.0
C      1  0.5886820000000  0.5441320000000  0.5302580000000 1.0
C      1  0.4921770000000  0.4086430000000  0.5248380000000 1.0
C      1  0.4227550000000  0.5482410000000  0.5288570000000 1.0
C      1  0.5867060000000  0.4605580000000  0.4704450000000 1.0
C      1  0.4989310000000  0.5903570000000  0.4694570000000 1.0
C      1  0.4154760000000  0.4404820000000  0.4692560000000 1.0
C      1  0.5259600000000  0.4901300000000  0.3811970000000 1.0
C      1  0.4769250000000  0.4778310000000  0.3810990000000 1.0
C      1  0.4912340000000  0.5264550000000  0.3811440000000 1.0
C      1  0.5287280000000  0.5061830000000  0.6195610000000 1.0
C      1  0.4797540000000  0.5185600000000  0.6195710000000 1.0
C      1  0.4937840000000  0.4702580000000  0.6149360000000 1.0
C      1  0.6058280000000  0.5026400000000  0.4723770000000 1.0
C      1  0.4422390000000  0.4028630000000  0.4735020000000 1.0
C      1  0.4506880000000  0.5898910000000  0.4716220000000 1.0
C      1  0.6082590000000  0.5025800000000  0.5260490000000 1.0
C      1  0.4467620000000  0.5900800000000  0.5242420000000 1.0
C      1  0.4456960000000  0.4086130000000  0.5272780000000 1.0
C      1  0.5422250000000  0.4508760000000  0.4074660000000 1.0
C      1  0.4341820000000  0.4832470000000  0.4057240000000 1.0
C      1  0.5165010000000  0.5610030000000  0.4067550000000 1.0
C      1  0.5461240000000  0.5474600000000  0.5978120000000 1.0
C      1  0.4377660000000  0.5158120000000  0.5929950000000 1.0
C      1  0.5196140000000  0.4381280000000  0.5873450000000 1.0
C      1  0.5298700000000  0.5852410000000  0.4287590000000 1.0
C      1  0.5575420000000  0.4304400000000  0.4242310000000 1.0
C      1  0.4085140000000  0.4817080000000  0.4222900000000 1.0
C      1  0.5294560000000  0.4146450000000  0.5709150000000 1.0
C      1  0.5620560000000  0.5719540000000  0.5778560000000 1.0
C      1  0.4110700000000  0.5172040000000  0.5695500000000 1.0
C      1  0.4753470000000  0.4616410000000  0.4862950000000 1.0
C      1  0.4739380000000  0.5401530000000  0.4885770000000 1.0
C      1  0.5511030000000  0.5033130000000  0.4879190000000 1.0
C      1  0.4795410000000  0.5465550000000  0.5132530000000 1.0
C      1  0.4591210000000  0.4439670000000  0.4953020000000 1.0
C      1  0.5516420000000  0.5019330000000  0.5138950000000 1.0
C      1  0.4976770000000  0.4604520000000  0.5440420000000 1.0
C      1  0.4638520000000  0.5285100000000  0.5530010000000 1.0
C      1  0.5448280000000  0.5246200000000  0.5541790000000 1.0
C      1  0.4973580000000  0.5421940000000  0.4487900000000 1.0
C      1  0.4542610000000  0.4677690000000  0.4458400000000 1.0
C      1  0.5398510000000  0.4798210000000  0.4488660000000 1.0
C      1  0.5705660000000  0.4765970000000  0.4529020000000 1.0
C      1  0.4375800000000  0.4450560000000  0.4515220000000 1.0
C      1  0.4869780000000  0.5707520000000  0.4514100000000 1.0
C      1  0.5750490000000  0.5276710000000  0.5494890000000 1.0
C      1  0.4443230000000  0.5512720000000  0.5485010000000 1.0
C      1  0.4858970000000  0.4327790000000  0.5387930000000 1.0
C      1  0.5385940000000  0.5458590000000  0.4760450000000 1.0
C      1  0.5162060000000  0.4441470000000  0.4749470000000 1.0
C      1  0.4446120000000  0.5087240000000  0.4739420000000 1.0
C      1  0.5416650000000  0.4580170000000  0.5221980000000 1.0
C      1  0.5200430000000  0.5583230000000  0.5275520000000 1.0
C      1  0.4424610000000  0.4906640000000  0.5246050000000 1.0
C      1  0.5465560000000  0.5927080000000  0.5180590000000 1.0
C      1  0.5550190000000  0.4160160000000  0.5153730000000 1.0
C      1  0.4004160000000  0.4996280000000  0.5101040000000 1.0
C      1  0.5450840000000  0.4106190000000  0.4814130000000 1.0
C      1  0.5505240000000  0.5883740000000  0.4866190000000 1.0
C      1  0.4003560000000  0.5043250000000  0.4787360000000 1.0
C      1  0.4750200000000  0.5992380000000  0.4849380000000 1.0
C      1  0.6052710000000  0.4766390000000  0.4853620000000 1.0
C      1  0.4203330000000  0.4179670000000  0.4868210000000 1.0
C      1  0.4685930000000  0.3962850000000  0.5138200000000 1.0
C      1  0.6056630000000  0.5286290000000  0.5130750000000 1.0
C      1  0.4276160000000  0.5719650000000  0.5113520000000 1.0
C      1  0.4940810000000  0.4827890000000  0.5234960000000 1.0
C      1  0.4855870000000  0.5286710000000  0.5332950000000 1.0
C      1  0.5328080000000  0.5090350000000  0.5324570000000 1.0
C      1  0.4897140000000  0.5253550000000  0.4715130000000 1.0
C      1  0.4909460000000  0.4820910000000  0.4954200000000 1.0
C      1  0.5302740000000  0.4968070000000  0.4710770000000 1.0
C      1  0.5602650000000  0.5844920000000  0.5450640000000 1.0
C      1  0.5404620000000  0.4107490000000  0.5427090000000 1.0
C      1  0.4078840000000  0.5244140000000  0.5340200000000 1.0
C      1  0.5562310000000  0.4198980000000  0.4533020000000 1.0
C      1  0.5269840000000  0.5926550000000  0.4645260000000 1.0
C      1  0.4004360000000  0.4891540000000  0.4514970000000 1.0
C      1  0.4573990000000  0.4283530000000  0.5469190000000 1.0
C      1  0.4539120000000  0.5785650000000  0.5508650000000 1.0
C      1  0.5912860000000  0.5024930000000  0.5510060000000 1.0
C      1  0.4588620000000  0.5760360000000  0.4464270000000 1.0
C      1  0.4504610000000  0.4183590000000  0.4488320000000 1.0
C      1  0.5867700000000  0.5019220000000  0.4490940000000 1.0
C      1  0.4539590000000  0.4969330000000  0.4499090000000 1.0
C      1  0.5277130000000  0.5385740000000  0.4498260000000 1.0
C      1  0.5178290000000  0.4577970000000  0.4496730000000 1.0
C      1  0.4533730000000  0.4997140000000  0.5494970000000 1.0
C      1  0.5286520000000  0.4635670000000  0.5472840000000 1.0
C      1  0.5236630000000  0.5472270000000  0.5543950000000 1.0
C      1  0.5780050000000  0.4180650000000  0.4096110000000 1.0
C      1  0.3870780000000  0.4710850000000  0.4078430000000 1.0
C      1  0.5462480000000  0.6026400000000  0.4165240000000 1.0
C      1  0.5811990000000  0.5847620000000  0.5920240000000 1.0
C      1  0.3872660000000  0.5115180000000  0.5806100000000 1.0
C      1  0.5281140000000  0.3904970000000  0.5850970000000 1.0
C      1  0.5183390000000  0.5870250000000  0.5254620000000 1.0
C      1  0.5663930000000  0.4432170000000  0.5209770000000 1.0
C      1  0.4167140000000  0.4768200000000  0.5210850000000 1.0
C      1  0.5157440000000  0.4151600000000  0.4767320000000 1.0
C      1  0.5629550000000  0.5620260000000  0.4771960000000 1.0
C      1  0.4207370000000  0.5248600000000  0.4726680000000 1.0
C      1  0.4718110000000  0.6012350000000  0.5127990000000 1.0
C      1  0.6057010000000  0.4763940000000  0.5132900000000 1.0
C      1  0.4225250000000  0.4226110000000  0.5147390000000 1.0
C      1  0.4676090000000  0.3940570000000  0.4858540000000 1.0
C      1  0.6035310000000  0.5289930000000  0.4851460000000 1.0
C      1  0.4288120000000  0.5734420000000  0.4832760000000 1.0
C      1  0.4177550000000  0.4490670000000  0.5290070000000 1.0
C      1  0.4936200000000  0.5986620000000  0.5321370000000 1.0
C      1  0.5889940000000  0.4584080000000  0.5298060000000 1.0
C      1  0.4220720000000  0.5517060000000  0.4649160000000 1.0
C      1  0.4912280000000  0.4021030000000  0.4692130000000 1.0
C      1  0.5859190000000  0.5467520000000  0.4689870000000 1.0
C      1  0.4348620000000  0.4451200000000  0.5526330000000 1.0
C      1  0.4795020000000  0.5904770000000  0.5564490000000 1.0
C      1  0.5866850000000  0.4741250000000  0.5547230000000 1.0
C      1  0.4364880000000  0.5590680000000  0.4407120000000 1.0
C      1  0.4778600000000  0.4105930000000  0.4445790000000 1.0
C      1  0.5825070000000  0.5302210000000  0.4445910000000 1.0
C      1  0.4811250000000  0.5341100000000  0.4256650000000 1.0
C      1  0.5415690000000  0.4964520000000  0.4244790000000 1.0
C      1  0.4720050000000  0.4594240000000  0.4250480000000 1.0
C      1  0.4829680000000  0.4655450000000  0.5694830000000 1.0
C      1  0.5461050000000  0.5042890000000  0.5760820000000 1.0
C      1  0.4773430000000  0.5391550000000  0.5775380000000 1.0
C      1  0.4615980000000  0.5327800000000  0.6006330000000 1.0
C      1  0.5491470000000  0.5175790000000  0.6012170000000 1.0
C      1  0.4928850000000  0.4508930000000  0.5921260000000 1.0
C      1  0.4580990000000  0.4649570000000  0.4001270000000 1.0
C      1  0.5457330000000  0.4802950000000  0.4012350000000 1.0
C      1  0.4898710000000  0.5479370000000  0.4019190000000 1.0
C      1  0.4511960000000  0.5009960000000  0.5000070000000 1.0
C      1  0.5268640000000  0.4561520000000  0.4982730000000 1.0
C      1  0.5257830000000  0.5459120000000  0.5019410000000 1.0
C      1  0.5030420000000  0.5011360000000  0.4780300000000 1.0
C      1  0.5044960000000  0.5077480000000  0.5318900000000 1.0
END
