TITL C-3201378-2706-376 -0.0328662578731142 125000 -124.984998247203 0 0 22 (C1) n - 1
REM
REM in /home/nfs/bkarasulu/CARBON/AIRSS/Generating-Clusters/LCBOP/Higher-Symm/SD-CG/FIRE-CG
REM
REM
REM
REM
REM
REM ./C.cell (b20cbc046b6831c77cfcea5457e17084)
REM AIRSS Version 0.9.1 bugfix July 2018 build 013d7b7c2542+ Fri, 06 Jul 2018 19:26:36 +0100
REM compiler GCC version 9.2.1 20190827 (Red Hat 9.2.1-1)
REM options -cpp -mtune=generic -march=x86-64 -g -O0 -fpre-include=/usr/include/finclude/math-vector-fortran.h
REM seed 1297081781 596492647 28777570 788239252 1688113352 -840766420 117210613 -1103738819 -1637856438 -388532702 -273579441 935526857 -280229688 663932913 -1107445021 576196215 -309091302 -745809543 1213048562 -225303660 -1822385656 -967429764 2125474287 564020009 -51181850 -1768613836 -557394755 260284128 1842783329 957891446 -2029573268 1802348653 1361638699
REM
CELL 1.54180   50.00000   50.00000   50.00000   90.00000   90.00000   90.00000
LATT -1
SFAC C  
C      1  0.5405120000000  0.4932230000000  0.5346940000000 1.0
C      1  0.5140150000000  0.5446250000000  0.4954830000000 1.0
C      1  0.4655010000000  0.5279050000000  0.5299550000000 1.0
C      1  0.5521660000000  0.5272080000000  0.4145470000000 1.0
C      1  0.5263110000000  0.4585610000000  0.4786350000000 1.0
C      1  0.5376520000000  0.5199650000000  0.5306330000000 1.0
C      1  0.4517590000000  0.4561290000000  0.5484590000000 1.0
C      1  0.4969150000000  0.5527770000000  0.4248450000000 1.0
C      1  0.5136070000000  0.5297510000000  0.5190580000000 1.0
C      1  0.5293550000000  0.4939380000000  0.4406480000000 1.0
C      1  0.5233680000000  0.4585050000000  0.5051310000000 1.0
C      1  0.5148560000000  0.5470620000000  0.4690600000000 1.0
C      1  0.4108490000000  0.4273270000000  0.5646170000000 1.0
C      1  0.4722340000000  0.4708110000000  0.5402910000000 1.0
C      1  0.4311360000000  0.4416070000000  0.5566050000000 1.0
C      1  0.5193920000000  0.4759730000000  0.5266010000000 1.0
C      1  0.5280970000000  0.4722380000000  0.4558970000000 1.0
C      1  0.4931900000000  0.4868380000000  0.5314230000000 1.0
C      1  0.4423570000000  0.5395650000000  0.5326940000000 1.0
C      1  0.5322240000000  0.5204370000000  0.4320350000000 1.0
C      1  0.4900520000000  0.5151250000000  0.5268340000000 1.0
C      1  0.5144500000000  0.5404290000000  0.4418530000000 1.0
END
