TITL C-3201373-1215-1051 -4.33021780324931e-07 125000 -513.163148161718 0 0 90 (C3i) n - 1
REM
REM in /home/nfs/bkarasulu/CARBON/AIRSS/Generating-Clusters/LCBOP/Higher-Symm/SD-CG/FIRE-CG
REM
REM
REM
REM
REM
REM ./C.cell (b20cbc046b6831c77cfcea5457e17084)
REM AIRSS Version 0.9.1 bugfix July 2018 build 013d7b7c2542+ Fri, 06 Jul 2018 19:26:36 +0100
REM compiler GCC version 9.2.1 20190827 (Red Hat 9.2.1-1)
REM options -cpp -mtune=generic -march=x86-64 -g -O0 -fpre-include=/usr/include/finclude/math-vector-fortran.h
REM seed 991740940 826808654 -1079490434 1906672918 266798751 2033609956 -397597262 -1749143863 140460006 -598738826 1714092153 -1481731629 1939375029 -578390257 425579293 1109599724 513703843 -1143503204 -262134364 2073500077 1216475350 2110583091 375567942 612248496 -463427823 -835121087 778187915 -1559060490 1698267687 1978211463 -686410562 1077405510 -778729794
REM
CELL 1.54180   50.00000   50.00000   50.00000   90.00000   90.00000   90.00000
LATT -1
SFAC C  
C      1  0.5015750000000  0.4650810000000  0.5749640000000 1.0
C      1  0.4983760000000  0.5475050000000  0.5676880000000 1.0
C      1  0.5016230000000  0.5823880000000  0.4926300000000 1.0
C      1  0.4984900000000  0.5348040000000  0.4248930000000 1.0
C      1  0.5015230000000  0.4524120000000  0.4322780000000 1.0
C      1  0.4984120000000  0.4176060000000  0.5072530000000 1.0
C      1  0.4696760000000  0.4817620000000  0.4135000000000 1.0
C      1  0.5303100000000  0.4159730000000  0.4724950000000 1.0
C      1  0.4696740000000  0.4340980000000  0.5590740000000 1.0
C      1  0.5302870000000  0.5182270000000  0.5865480000000 1.0
C      1  0.4696910000000  0.5839790000000  0.5273890000000 1.0
C      1  0.5303610000000  0.5657310000000  0.4409230000000 1.0
C      1  0.5100720000000  0.5562450000000  0.4881610000000 1.0
C      1  0.4902130000000  0.5178390000000  0.4453550000000 1.0
C      1  0.5097020000000  0.4616770000000  0.4572280000000 1.0
C      1  0.4901460000000  0.4438240000000  0.5116500000000 1.0
C      1  0.5099100000000  0.4820040000000  0.5544890000000 1.0
C      1  0.4899560000000  0.5383090000000  0.5427980000000 1.0
C      1  0.4801840000000  0.5727990000000  0.4502100000000 1.0
C      1  0.5198670000000  0.4932810000000  0.4119650000000 1.0
C      1  0.4801320000000  0.4204330000000  0.4617190000000 1.0
C      1  0.5198270000000  0.4271000000000  0.5496890000000 1.0
C      1  0.4801380000000  0.5065730000000  0.5879450000000 1.0
C      1  0.5198510000000  0.5794520000000  0.5382240000000 1.0
C      1  0.5194610000000  0.4951870000000  0.5340660000000 1.0
C      1  0.4803340000000  0.5270370000000  0.5212920000000 1.0
C      1  0.5196920000000  0.5319830000000  0.4872980000000 1.0
C      1  0.4805720000000  0.5052810000000  0.4661230000000 1.0
C      1  0.5193820000000  0.4732920000000  0.4785220000000 1.0
C      1  0.4805590000000  0.4680880000000  0.5128140000000 1.0
C      1  0.4886710000000  0.4799270000000  0.5953160000000 1.0
C      1  0.5113290000000  0.5725320000000  0.5649990000000 1.0
C      1  0.4886610000000  0.5925410000000  0.4696000000000 1.0
C      1  0.5114050000000  0.5199480000000  0.4045440000000 1.0
C      1  0.4886200000000  0.4273520000000  0.4349290000000 1.0
C      1  0.5113150000000  0.4073960000000  0.5302860000000 1.0
C      1  0.4163680000000  0.4974190000000  0.5273510000000 1.0
C      1  0.5836600000000  0.5223830000000  0.5158940000000 1.0
C      1  0.4163950000000  0.5249200000000  0.4885960000000 1.0
C      1  0.5835850000000  0.5025670000000  0.4726980000000 1.0
C      1  0.4169160000000  0.4776160000000  0.4842040000000 1.0
C      1  0.5830760000000  0.4751150000000  0.5114670000000 1.0
C      1  0.4472250000000  0.5638600000000  0.4874320000000 1.0
C      1  0.5527910000000  0.5210430000000  0.4383820000000 1.0
C      1  0.4472770000000  0.4572320000000  0.4509300000000 1.0
C      1  0.5527100000000  0.4361150000000  0.5124590000000 1.0
C      1  0.4471210000000  0.4787340000000  0.5617390000000 1.0
C      1  0.5528750000000  0.5428430000000  0.5492480000000 1.0
C      1  0.4431840000000  0.4317000000000  0.4971340000000 1.0
C      1  0.5568080000000  0.4633610000000  0.5576830000000 1.0
C      1  0.4431720000000  0.5316090000000  0.5605600000000 1.0
C      1  0.5568420000000  0.5682520000000  0.5028700000000 1.0
C      1  0.4431810000000  0.5365810000000  0.4421680000000 1.0
C      1  0.5568130000000  0.4682070000000  0.4393780000000 1.0
C      1  0.4480700000000  0.5673130000000  0.5176200000000 1.0
C      1  0.5519580000000  0.5489120000000  0.4504870000000 1.0
C      1  0.4480870000000  0.4816110000000  0.4328440000000 1.0
C      1  0.5518970000000  0.4326440000000  0.4823040000000 1.0
C      1  0.4480000000000  0.4508620000000  0.5495890000000 1.0
C      1  0.5519890000000  0.5183870000000  0.5673160000000 1.0
C      1  0.4975590000000  0.5871790000000  0.5203380000000 1.0
C      1  0.5025030000000  0.5612080000000  0.4345850000000 1.0
C      1  0.4975290000000  0.4739860000000  0.4142310000000 1.0
C      1  0.5024520000000  0.4127310000000  0.4795640000000 1.0
C      1  0.4975360000000  0.4386680000000  0.5653330000000 1.0
C      1  0.5024210000000  0.5259230000000  0.5857110000000 1.0
C      1  0.4568220000000  0.4819950000000  0.5098800000000 1.0
C      1  0.5431880000000  0.4995650000000  0.5205190000000 1.0
C      1  0.4566900000000  0.5166520000000  0.5111540000000 1.0
C      1  0.5433270000000  0.5179930000000  0.4911840000000 1.0
C      1  0.4567760000000  0.5019240000000  0.4798390000000 1.0
C      1  0.5431980000000  0.4834730000000  0.4882600000000 1.0
C      1  0.5655140000000  0.4922460000000  0.5584830000000 1.0
C      1  0.4345140000000  0.5466920000000  0.5358530000000 1.0
C      1  0.5655040000000  0.5543810000000  0.4774630000000 1.0
C      1  0.4344980000000  0.5076470000000  0.4415810000000 1.0
C      1  0.5654810000000  0.4532330000000  0.4641360000000 1.0
C      1  0.4344900000000  0.4454640000000  0.5225360000000 1.0
C      1  0.5446090000000  0.5646670000000  0.5298910000000 1.0
C      1  0.4554490000000  0.5581400000000  0.4588250000000 1.0
C      1  0.5445750000000  0.4934120000000  0.4290140000000 1.0
C      1  0.4554560000000  0.4353110000000  0.4701520000000 1.0
C      1  0.5445220000000  0.4418140000000  0.5410460000000 1.0
C      1  0.4553890000000  0.5064070000000  0.5709660000000 1.0
C      1  0.5716580000000  0.4975250000000  0.5293060000000 1.0
C      1  0.4280790000000  0.5240150000000  0.5169360000000 1.0
C      1  0.5719340000000  0.5266660000000  0.4876580000000 1.0
C      1  0.4283190000000  0.5027100000000  0.4707900000000 1.0
C      1  0.5716550000000  0.4760500000000  0.4830330000000 1.0
C      1  0.4283560000000  0.4733740000000  0.5125200000000 1.0
END
