TITL C-3201378-2706-2224 -1.03201418546417e-06 125000 -609.584970601853 0 0 101 (C1) n - 1
REM
REM in /home/nfs/bkarasulu/CARBON/AIRSS/Generating-Clusters/LCBOP/Higher-Symm/SD-CG/FIRE-CG
REM
REM
REM
REM
REM
REM ./C.cell (b20cbc046b6831c77cfcea5457e17084)
REM AIRSS Version 0.9.1 bugfix July 2018 build 013d7b7c2542+ Fri, 06 Jul 2018 19:26:36 +0100
REM compiler GCC version 9.2.1 20190827 (Red Hat 9.2.1-1)
REM options -cpp -mtune=generic -march=x86-64 -g -O0 -fpre-include=/usr/include/finclude/math-vector-fortran.h
REM seed 1649817316 904349737 -868838745 1691125943 1158843285 1496630314 1838492253 2077063146 2124915237 -604029256 -1496086291 -582737385 76054590 1647488794 1698190153 369397993 1073630906 -890448870 -1465475367 920137882 377947157 -970194363 -1917015990 1372073847 -92485977 2144653617 -585741817 1770964871 -1950829492 -1170390952 -2028698256 -1758491101 1033443250
REM
CELL 1.54180   50.00000   50.00000   50.00000   90.00000   90.00000   90.00000
LATT -1
SFAC C  
C      1  0.5128170000000  0.4776420000000  0.5394080000000 1.0
C      1  0.5195840000000  0.4805100000000  0.4641970000000 1.0
C      1  0.5177930000000  0.5179950000000  0.6042060000000 1.0
C      1  0.4343280000000  0.4120280000000  0.5130600000000 1.0
C      1  0.4491320000000  0.4956570000000  0.4749530000000 1.0
C      1  0.4474580000000  0.5509860000000  0.5627640000000 1.0
C      1  0.5843240000000  0.5470540000000  0.5513670000000 1.0
C      1  0.5707920000000  0.5100250000000  0.5166590000000 1.0
C      1  0.4919190000000  0.4456750000000  0.4465080000000 1.0
C      1  0.4513570000000  0.5294300000000  0.4160700000000 1.0
C      1  0.4925100000000  0.4711690000000  0.4583670000000 1.0
C      1  0.4255080000000  0.4645540000000  0.5001340000000 1.0
C      1  0.4533350000000  0.4924250000000  0.5798040000000 1.0
C      1  0.4575210000000  0.4290250000000  0.5127020000000 1.0
C      1  0.5297820000000  0.4237360000000  0.4998800000000 1.0
C      1  0.5922610000000  0.5704100000000  0.5406570000000 1.0
C      1  0.4899920000000  0.5161810000000  0.4720420000000 1.0
C      1  0.4286800000000  0.5301820000000  0.5079670000000 1.0
C      1  0.5422550000000  0.5719520000000  0.4286420000000 1.0
C      1  0.6009680000000  0.5379840000000  0.4871860000000 1.0
C      1  0.4755270000000  0.5153250000000  0.5432820000000 1.0
C      1  0.4250770000000  0.4916930000000  0.5749770000000 1.0
C      1  0.4595100000000  0.5923290000000  0.4841150000000 1.0
C      1  0.5016410000000  0.5442440000000  0.4068460000000 1.0
C      1  0.5305190000000  0.5263390000000  0.5326450000000 1.0
C      1  0.4103580000000  0.4227610000000  0.5009950000000 1.0
C      1  0.5028290000000  0.4186370000000  0.4882840000000 1.0
C      1  0.5574940000000  0.5700550000000  0.4814070000000 1.0
C      1  0.5222180000000  0.5638810000000  0.4120460000000 1.0
C      1  0.4836520000000  0.5946790000000  0.4717790000000 1.0
C      1  0.5579390000000  0.5151980000000  0.4917640000000 1.0
C      1  0.4827440000000  0.4174600000000  0.5088700000000 1.0
C      1  0.5242620000000  0.5036370000000  0.4464780000000 1.0
C      1  0.6011270000000  0.4224390000000  0.5034130000000 1.0
C      1  0.4945010000000  0.4428740000000  0.4193970000000 1.0
C      1  0.4846200000000  0.4719200000000  0.5411570000000 1.0
C      1  0.5588310000000  0.4313730000000  0.4599630000000 1.0
C      1  0.4455790000000  0.5536520000000  0.4569170000000 1.0
C      1  0.4174630000000  0.5072500000000  0.4448290000000 1.0
C      1  0.4863570000000  0.5618140000000  0.5327460000000 1.0
C      1  0.5558320000000  0.4759210000000  0.5613630000000 1.0
C      1  0.5277000000000  0.5008890000000  0.4181610000000 1.0
C      1  0.4627320000000  0.4106110000000  0.4590680000000 1.0
C      1  0.5097310000000  0.5631130000000  0.5123540000000 1.0
C      1  0.4121070000000  0.4694020000000  0.5634430000000 1.0
C      1  0.5661940000000  0.5088130000000  0.4668410000000 1.0
C      1  0.5559830000000  0.4304940000000  0.4880950000000 1.0
C      1  0.4361080000000  0.4153970000000  0.4588510000000 1.0
C      1  0.4753830000000  0.5062330000000  0.5154850000000 1.0
C      1  0.4748410000000  0.4930300000000  0.4646020000000 1.0
C      1  0.5107750000000  0.5267350000000  0.4563480000000 1.0
C      1  0.5841250000000  0.5619390000000  0.4919250000000 1.0
C      1  0.5253440000000  0.4653310000000  0.5174630000000 1.0
C      1  0.5151160000000  0.5340720000000  0.5099820000000 1.0
C      1  0.4123800000000  0.5169630000000  0.5723660000000 1.0
C      1  0.5744230000000  0.4659290000000  0.5445350000000 1.0
C      1  0.4342950000000  0.5302090000000  0.4403190000000 1.0
C      1  0.4978260000000  0.4977800000000  0.5994790000000 1.0
C      1  0.4691090000000  0.5628430000000  0.4402860000000 1.0
C      1  0.4700940000000  0.5102510000000  0.5959050000000 1.0
C      1  0.5276530000000  0.5332520000000  0.5841430000000 1.0
C      1  0.4885190000000  0.4226520000000  0.4629220000000 1.0
C      1  0.5115430000000  0.5546100000000  0.4573870000000 1.0
C      1  0.4715470000000  0.4770110000000  0.5157310000000 1.0
C      1  0.4919610000000  0.5380700000000  0.5501790000000 1.0
C      1  0.4527180000000  0.4577350000000  0.5078840000000 1.0
C      1  0.5797760000000  0.4402020000000  0.5029940000000 1.0
C      1  0.4699920000000  0.4900790000000  0.5573830000000 1.0
C      1  0.4935650000000  0.5194630000000  0.4991820000000 1.0
C      1  0.5756860000000  0.4923820000000  0.4479230000000 1.0
C      1  0.4636590000000  0.5384370000000  0.5855900000000 1.0
C      1  0.4028400000000  0.4554790000000  0.5424390000000 1.0
C      1  0.5080850000000  0.4443680000000  0.5778600000000 1.0
C      1  0.5750840000000  0.5244980000000  0.5402800000000 1.0
C      1  0.5480000000000  0.4828680000000  0.4107130000000 1.0
C      1  0.5925630000000  0.5771100000000  0.5145650000000 1.0
C      1  0.5542520000000  0.5735060000000  0.4529700000000 1.0
C      1  0.5175240000000  0.4322750000000  0.5537770000000 1.0
C      1  0.4155350000000  0.4301540000000  0.4719560000000 1.0
C      1  0.4063910000000  0.4484580000000  0.5155850000000 1.0
C      1  0.4171540000000  0.4599590000000  0.4716090000000 1.0
C      1  0.5193240000000  0.5338970000000  0.5575790000000 1.0
C      1  0.4125490000000  0.4816440000000  0.4534870000000 1.0
C      1  0.4744230000000  0.5468450000000  0.4164990000000 1.0
C      1  0.5844510000000  0.4652760000000  0.5175310000000 1.0
C      1  0.6089230000000  0.5116570000000  0.4935270000000 1.0
C      1  0.5121220000000  0.5181370000000  0.4022290000000 1.0
C      1  0.4452020000000  0.5674640000000  0.4837870000000 1.0
C      1  0.5336830000000  0.5748400000000  0.4990880000000 1.0
C      1  0.5665070000000  0.4727990000000  0.4296850000000 1.0
C      1  0.4203380000000  0.5416400000000  0.5647490000000 1.0
C      1  0.4566210000000  0.5616320000000  0.5348630000000 1.0
C      1  0.5282380000000  0.4817020000000  0.5633110000000 1.0
C      1  0.5265190000000  0.4369520000000  0.5257590000000 1.0
C      1  0.4415530000000  0.5552480000000  0.5099430000000 1.0
C      1  0.5103480000000  0.4733980000000  0.5853590000000 1.0
C      1  0.5281740000000  0.4745690000000  0.4907530000000 1.0
C      1  0.4330170000000  0.5094630000000  0.4916330000000 1.0
C      1  0.5928920000000  0.4920690000000  0.5086750000000 1.0
C      1  0.5651930000000  0.4462580000000  0.4386840000000 1.0
C      1  0.4912160000000  0.5738070000000  0.4544360000000 1.0
END
