TITL C-3201378-2706-1362 89.795670647722 125000 -97.636777250234 0 0 23 (C2) n - 1
REM
REM in /home/nfs/bkarasulu/CARBON/AIRSS/Generating-Clusters/LCBOP/Higher-Symm/SD-CG/FIRE-CG
REM
REM
REM
REM
REM
REM ./C.cell (b20cbc046b6831c77cfcea5457e17084)
REM AIRSS Version 0.9.1 bugfix July 2018 build 013d7b7c2542+ Fri, 06 Jul 2018 19:26:36 +0100
REM compiler GCC version 9.2.1 20190827 (Red Hat 9.2.1-1)
REM options -cpp -mtune=generic -march=x86-64 -g -O0 -fpre-include=/usr/include/finclude/math-vector-fortran.h
REM seed 360536687 -19523365 -1036512491 76658658 1414233093 -1192305533 -885272824 111125780 1495259626 -266608000 -987896799 -1605020142 -2125887218 947718687 -325921199 1628703406 1017654298 -1111768153 754281463 -2037894646 -1980630503 -1301837630 -304081897 -697072230 441734400 -1485140976 2099284452 977644345 395117595 228138575 -1531579146 1632327677 1017190050
REM
CELL 1.54180   50.00000   50.00000   50.00000   90.00000   90.00000   90.00000
LATT -1
SFAC C  
C      1  0.4637960000000  0.5309780000000  0.5128340000000 1.0
C      1  0.5037780000000  0.5285300000000  0.5384470000000 1.0
C      1  0.4968380000000  0.5657490000000  0.5087070000000 1.0
C      1  0.5292460000000  0.5345640000000  0.4980760000000 1.0
C      1  0.4903470000000  0.5369500000000  0.4731540000000 1.0
C      1  0.4994880000000  0.4323920000000  0.4954230000000 1.0
C      1  0.5162430000000  0.4696560000000  0.4699560000000 1.0
C      1  0.4698410000000  0.4670440000000  0.4799900000000 1.0
C      1  0.4808790000000  0.4611430000000  0.5264490000000 1.0
C      1  0.5260250000000  0.4636890000000  0.5166860000000 1.0
C      1  0.5003020000000  0.4071880000000  0.4926170000000 1.0
C      1  0.5307790000000  0.4736880000000  0.4487490000000 1.0
C      1  0.4475320000000  0.4690530000000  0.4667380000000 1.0
C      1  0.4674230000000  0.4594980000000  0.5478970000000 1.0
C      1  0.5472340000000  0.4639760000000  0.5306090000000 1.0
C      1  0.4382710000000  0.5288780000000  0.5174590000000 1.0
C      1  0.5100040000000  0.5245370000000  0.5634000000000 1.0
C      1  0.4965280000000  0.5909540000000  0.5116040000000 1.0
C      1  0.5539840000000  0.5343650000000  0.4924390000000 1.0
C      1  0.4852250000000  0.5385600000000  0.4483560000000 1.0
C      1  0.4958470000000  0.5310060000000  0.5069350000000 1.0
C      1  0.4971270000000  0.4990680000000  0.5018780000000 1.0
C      1  0.4978120000000  0.4671300000000  0.4967140000000 1.0
END
