TITL C-3201379-3821-1946 -7.94128309225964e-07 125000 -1049.80266730295 0 0 171 (C1) n - 1
REM
REM in /home/nfs/bkarasulu/CARBON/AIRSS/Generating-Clusters/LCBOP/Higher-Symm/SD-CG/FIRE-CG
REM
REM
REM
REM
REM
REM ./C.cell (b20cbc046b6831c77cfcea5457e17084)
REM AIRSS Version 0.9.1 bugfix July 2018 build 013d7b7c2542+ Fri, 06 Jul 2018 19:26:36 +0100
REM compiler GCC version 9.2.1 20190827 (Red Hat 9.2.1-1)
REM options -cpp -mtune=generic -march=x86-64 -g -O0 -fpre-include=/usr/include/finclude/math-vector-fortran.h
REM seed -1062594251 687026452 997807424 219472029 -941515196 1792979290 842217481 1923477413 -1803376345 -74642542 -762206840 1058248399 -1404155944 -515986600 1013628681 -746094516 1723136450 664038046 -959832855 -1233607305 -802488047 885067960 1052828831 -1832786619 1745532097 -483966512 334568995 -893911937 -1429041378 277175525 788020642 -1190039421 360707900
REM
CELL 1.54180   50.00000   50.00000   50.00000   90.00000   90.00000   90.00000
LATT -1
SFAC C  
C      1  0.5494640000000  0.4667120000000  0.6203690000000 1.0
C      1  0.5767580000000  0.5291610000000  0.5247710000000 1.0
C      1  0.4627690000000  0.4211040000000  0.5615530000000 1.0
C      1  0.4354980000000  0.5803940000000  0.4385470000000 1.0
C      1  0.5467130000000  0.4378560000000  0.5388200000000 1.0
C      1  0.5526490000000  0.5332120000000  0.4816980000000 1.0
C      1  0.4857690000000  0.4290030000000  0.4010180000000 1.0
C      1  0.3830610000000  0.5286000000000  0.4473700000000 1.0
C      1  0.5671470000000  0.4545620000000  0.5390170000000 1.0
C      1  0.5157880000000  0.4326460000000  0.5771230000000 1.0
C      1  0.5215560000000  0.5710360000000  0.4974790000000 1.0
C      1  0.6030770000000  0.5618440000000  0.4505430000000 1.0
C      1  0.4466720000000  0.4258470000000  0.4433550000000 1.0
C      1  0.5014680000000  0.3731250000000  0.5489570000000 1.0
C      1  0.5233800000000  0.3761370000000  0.4774830000000 1.0
C      1  0.4748160000000  0.4252390000000  0.4482060000000 1.0
C      1  0.4193250000000  0.4624770000000  0.4611320000000 1.0
C      1  0.4385420000000  0.4286530000000  0.4953440000000 1.0
C      1  0.4899450000000  0.4170720000000  0.5721360000000 1.0
C      1  0.4710220000000  0.5905020000000  0.4033360000000 1.0
C      1  0.5381850000000  0.5891110000000  0.5766860000000 1.0
C      1  0.4185770000000  0.5890470000000  0.4601220000000 1.0
C      1  0.5660610000000  0.4762860000000  0.4975190000000 1.0
C      1  0.5478770000000  0.5395680000000  0.5258980000000 1.0
C      1  0.4092230000000  0.5563890000000  0.4944240000000 1.0
C      1  0.4976180000000  0.5220280000000  0.5266660000000 1.0
C      1  0.4544850000000  0.5417190000000  0.5270380000000 1.0
C      1  0.5675780000000  0.3957940000000  0.4515580000000 1.0
C      1  0.5816190000000  0.5012140000000  0.5349030000000 1.0
C      1  0.5603200000000  0.4534800000000  0.4295030000000 1.0
C      1  0.5421780000000  0.5100040000000  0.4685880000000 1.0
C      1  0.5826810000000  0.6001080000000  0.4726450000000 1.0
C      1  0.4013240000000  0.4855320000000  0.4655310000000 1.0
C      1  0.4773730000000  0.5389530000000  0.5668610000000 1.0
C      1  0.4133970000000  0.4690490000000  0.5886880000000 1.0
C      1  0.4633640000000  0.5105110000000  0.4784580000000 1.0
C      1  0.5897830000000  0.5444370000000  0.5488190000000 1.0
C      1  0.5329020000000  0.4623150000000  0.3905450000000 1.0
C      1  0.4760420000000  0.5305050000000  0.5404170000000 1.0
C      1  0.5116240000000  0.4553480000000  0.4344960000000 1.0
C      1  0.4458820000000  0.5777250000000  0.5593050000000 1.0
C      1  0.5183180000000  0.3785060000000  0.5267760000000 1.0
C      1  0.4984100000000  0.5610120000000  0.4437290000000 1.0
C      1  0.5976810000000  0.5159390000000  0.4730030000000 1.0
C      1  0.5730490000000  0.5176230000000  0.4063670000000 1.0
C      1  0.5249590000000  0.5588840000000  0.4394730000000 1.0
C      1  0.4211620000000  0.5033090000000  0.5097530000000 1.0
C      1  0.4187950000000  0.4525210000000  0.5652250000000 1.0
C      1  0.5714780000000  0.5570900000000  0.5659500000000 1.0
C      1  0.4834100000000  0.4025340000000  0.4947100000000 1.0
C      1  0.3869640000000  0.4782000000000  0.4920510000000 1.0
C      1  0.4625710000000  0.4726430000000  0.5078720000000 1.0
C      1  0.4893790000000  0.4181870000000  0.4710720000000 1.0
C      1  0.5836260000000  0.4176420000000  0.4484130000000 1.0
C      1  0.4192000000000  0.4914720000000  0.6060710000000 1.0
C      1  0.5165840000000  0.5122670000000  0.5784890000000 1.0
C      1  0.4760420000000  0.4486620000000  0.5173320000000 1.0
C      1  0.5798080000000  0.4652950000000  0.5831390000000 1.0
C      1  0.4674810000000  0.6412100000000  0.4478500000000 1.0
C      1  0.5518360000000  0.4073450000000  0.4935950000000 1.0
C      1  0.5799940000000  0.5280090000000  0.4933180000000 1.0
C      1  0.4058440000000  0.5120970000000  0.4518230000000 1.0
C      1  0.4733160000000  0.5568770000000  0.4844820000000 1.0
C      1  0.4541390000000  0.5358030000000  0.4969450000000 1.0
C      1  0.4759020000000  0.4881430000000  0.4887150000000 1.0
C      1  0.5483960000000  0.3896410000000  0.4713310000000 1.0
C      1  0.6312730000000  0.5347350000000  0.5756990000000 1.0
C      1  0.4689540000000  0.5045340000000  0.4274700000000 1.0
C      1  0.5483730000000  0.3938820000000  0.5625200000000 1.0
C      1  0.5726890000000  0.5323730000000  0.4302290000000 1.0
C      1  0.5057910000000  0.3828910000000  0.5004650000000 1.0
C      1  0.5564620000000  0.4768190000000  0.3811230000000 1.0
C      1  0.3966020000000  0.5245680000000  0.5485290000000 1.0
C      1  0.5545760000000  0.5040960000000  0.3904770000000 1.0
C      1  0.4589580000000  0.4876980000000  0.5619840000000 1.0
C      1  0.4232440000000  0.5303860000000  0.4957740000000 1.0
C      1  0.4149690000000  0.5060020000000  0.5377380000000 1.0
C      1  0.4980580000000  0.5993230000000  0.4049790000000 1.0
C      1  0.4638670000000  0.4835000000000  0.4092380000000 1.0
C      1  0.5107710000000  0.4774080000000  0.4539060000000 1.0
C      1  0.5230330000000  0.5427360000000  0.5755640000000 1.0
C      1  0.6090030000000  0.4265300000000  0.5155190000000 1.0
C      1  0.5371960000000  0.4125900000000  0.5785640000000 1.0
C      1  0.4829300000000  0.6399910000000  0.4695700000000 1.0
C      1  0.5734910000000  0.4769800000000  0.5241460000000 1.0
C      1  0.5455270000000  0.5614220000000  0.5752350000000 1.0
C      1  0.5145750000000  0.4304380000000  0.4744710000000 1.0
C      1  0.4458000000000  0.5539520000000  0.4435490000000 1.0
C      1  0.5200750000000  0.4853310000000  0.5029300000000 1.0
C      1  0.4467210000000  0.4431240000000  0.5680270000000 1.0
C      1  0.4085890000000  0.5497930000000  0.5493590000000 1.0
C      1  0.6090230000000  0.5271340000000  0.5622930000000 1.0
C      1  0.6022400000000  0.4746550000000  0.5675720000000 1.0
C      1  0.3965140000000  0.5076060000000  0.6109380000000 1.0
C      1  0.5496250000000  0.5491350000000  0.4344430000000 1.0
C      1  0.6180680000000  0.4593060000000  0.5491960000000 1.0
C      1  0.4975650000000  0.5574640000000  0.5720830000000 1.0
C      1  0.4338830000000  0.4514640000000  0.4393100000000 1.0
C      1  0.5277020000000  0.4611240000000  0.5772660000000 1.0
C      1  0.4864580000000  0.4288540000000  0.6387370000000 1.0
C      1  0.5024020000000  0.4516810000000  0.5276380000000 1.0
C      1  0.4636010000000  0.4201230000000  0.5108320000000 1.0
C      1  0.4837350000000  0.6005590000000  0.5035600000000 1.0
C      1  0.4003090000000  0.5684870000000  0.4697170000000 1.0
C      1  0.5350500000000  0.4536060000000  0.4178080000000 1.0
C      1  0.5012010000000  0.4802760000000  0.4813330000000 1.0
C      1  0.5947420000000  0.5343280000000  0.4490830000000 1.0
C      1  0.4913180000000  0.4359470000000  0.4279240000000 1.0
C      1  0.6178390000000  0.4738510000000  0.4999640000000 1.0
C      1  0.5648200000000  0.3973800000000  0.5165410000000 1.0
C      1  0.3766240000000  0.5190040000000  0.5673100000000 1.0
C      1  0.5439770000000  0.4897680000000  0.4889160000000 1.0
C      1  0.5617410000000  0.6036660000000  0.4888050000000 1.0
C      1  0.4318130000000  0.5267360000000  0.4466930000000 1.0
C      1  0.4729500000000  0.5565920000000  0.4555900000000 1.0
C      1  0.5379160000000  0.5940690000000  0.4958970000000 1.0
C      1  0.4679700000000  0.5918910000000  0.5489130000000 1.0
C      1  0.6176540000000  0.4532070000000  0.5209170000000 1.0
C      1  0.4931610000000  0.5745150000000  0.4962210000000 1.0
C      1  0.5259730000000  0.5064970000000  0.3967940000000 1.0
C      1  0.5979220000000  0.4669880000000  0.4563870000000 1.0
C      1  0.4535750000000  0.6255600000000  0.4312790000000 1.0
C      1  0.4929560000000  0.5848810000000  0.5624130000000 1.0
C      1  0.5198190000000  0.4858870000000  0.5608470000000 1.0
C      1  0.5245790000000  0.6028600000000  0.4076200000000 1.0
C      1  0.4618670000000  0.6005470000000  0.5215450000000 1.0
C      1  0.5362070000000  0.5473300000000  0.5007880000000 1.0
C      1  0.5824180000000  0.4458930000000  0.4449200000000 1.0
C      1  0.4456600000000  0.5008620000000  0.6133380000000 1.0
C      1  0.4568900000000  0.4082520000000  0.5371480000000 1.0
C      1  0.5891580000000  0.5867610000000  0.4487080000000 1.0
C      1  0.5914720000000  0.4064020000000  0.5194950000000 1.0
C      1  0.4902450000000  0.5214350000000  0.4221050000000 1.0
C      1  0.5111290000000  0.4828500000000  0.3874800000000 1.0
C      1  0.4322980000000  0.4026500000000  0.4410770000000 1.0
C      1  0.4633360000000  0.5742800000000  0.3826170000000 1.0
C      1  0.4969950000000  0.5080970000000  0.6007770000000 1.0
C      1  0.4275890000000  0.4537390000000  0.4872810000000 1.0
C      1  0.4368150000000  0.4998930000000  0.5540560000000 1.0
C      1  0.5154300000000  0.6010000000000  0.5679010000000 1.0
C      1  0.4423710000000  0.4666890000000  0.4171080000000 1.0
C      1  0.5526890000000  0.4642900000000  0.5930150000000 1.0
C      1  0.3896190000000  0.4654770000000  0.5173750000000 1.0
C      1  0.4632650000000  0.4643960000000  0.5766820000000 1.0
C      1  0.4744130000000  0.4665580000000  0.6024290000000 1.0
C      1  0.4810140000000  0.4464670000000  0.6203140000000 1.0
C      1  0.4358330000000  0.5982960000000  0.5078900000000 1.0
C      1  0.4835280000000  0.4748040000000  0.3893180000000 1.0
C      1  0.4020210000000  0.4557620000000  0.5407370000000 1.0
C      1  0.3813620000000  0.5546080000000  0.4544030000000 1.0
C      1  0.4737010000000  0.4942710000000  0.6100260000000 1.0
C      1  0.4300150000000  0.6062160000000  0.4804960000000 1.0
C      1  0.4170100000000  0.5771380000000  0.5127890000000 1.0
C      1  0.4546260000000  0.5097190000000  0.4512430000000 1.0
C      1  0.5134700000000  0.4788570000000  0.5314850000000 1.0
C      1  0.5319710000000  0.4271490000000  0.4958400000000 1.0
C      1  0.5247940000000  0.4351420000000  0.5218270000000 1.0
C      1  0.4799420000000  0.4474320000000  0.3820280000000 1.0
C      1  0.5171560000000  0.5142120000000  0.4224140000000 1.0
C      1  0.6065610000000  0.4868000000000  0.4758260000000 1.0
C      1  0.3772970000000  0.5158540000000  0.5939990000000 1.0
C      1  0.5991480000000  0.5009300000000  0.5576790000000 1.0
C      1  0.5506760000000  0.6013220000000  0.4139870000000 1.0
C      1  0.5458650000000  0.3861330000000  0.5351410000000 1.0
C      1  0.4515770000000  0.5987220000000  0.4229360000000 1.0
C      1  0.4900790000000  0.6238870000000  0.4895700000000 1.0
C      1  0.4356970000000  0.5556740000000  0.5449370000000 1.0
C      1  0.4944740000000  0.3885200000000  0.5699660000000 1.0
C      1  0.5738690000000  0.5948730000000  0.4260750000000 1.0
C      1  0.5259050000000  0.5017300000000  0.4466300000000 1.0
C      1  0.4344420000000  0.4766570000000  0.5042830000000 1.0
END
