TITL C-3201374-830-383 14.4429213486397 125000 -1029.18177800095 0 0 165 (C1) n - 1
REM
REM in /home/nfs/bkarasulu/CARBON/AIRSS/Generating-Clusters/LCBOP/Higher-Symm/SD-CG/FIRE-CG
REM
REM
REM
REM
REM
REM ./C.cell (b20cbc046b6831c77cfcea5457e17084)
REM AIRSS Version 0.9.1 bugfix July 2018 build 013d7b7c2542+ Fri, 06 Jul 2018 19:26:36 +0100
REM compiler GCC version 9.2.1 20190827 (Red Hat 9.2.1-1)
REM options -cpp -mtune=generic -march=x86-64 -g -O0 -fpre-include=/usr/include/finclude/math-vector-fortran.h
REM seed 1205083234 -1476339080 1073759733 -1476439207 -33460695 -186345573 1010189070 1105814977 1858879672 1434734268 -1246610011 1016395357 -1748091748 692972073 48057336 1976034409 1001316719 -252370160 -1087100231 -2064289304 -154906790 1512132426 1056664730 84475648 284701446 265362564 1922686175 -1532650013 -1199274370 2107470895 -461145587 1963727275 1737700474
REM
CELL 1.54180   50.00000   50.00000   50.00000   90.00000   90.00000   90.00000
LATT -1
SFAC C  
C      1  0.5707120000000  0.5365040000000  0.4941220000000 1.0
C      1  0.4153810000000  0.4504800000000  0.5560830000000 1.0
C      1  0.4082830000000  0.5890490000000  0.4946920000000 1.0
C      1  0.5616090000000  0.5901920000000  0.5429240000000 1.0
C      1  0.4581880000000  0.4620760000000  0.4832360000000 1.0
C      1  0.4544820000000  0.5383160000000  0.4779290000000 1.0
C      1  0.4210880000000  0.5472580000000  0.6032000000000 1.0
C      1  0.4998910000000  0.4856200000000  0.5571500000000 1.0
C      1  0.4659780000000  0.4953120000000  0.4377430000000 1.0
C      1  0.3944530000000  0.4959040000000  0.4987060000000 1.0
C      1  0.6260130000000  0.3986550000000  0.4250140000000 1.0
C      1  0.4603930000000  0.5289620000000  0.5492450000000 1.0
C      1  0.5250840000000  0.4581860000000  0.6005470000000 1.0
C      1  0.5216340000000  0.5350900000000  0.5758890000000 1.0
C      1  0.4188140000000  0.4725890000000  0.5738460000000 1.0
C      1  0.5504780000000  0.3989640000000  0.4908420000000 1.0
C      1  0.5789390000000  0.4166220000000  0.3943610000000 1.0
C      1  0.6386580000000  0.4531420000000  0.5542640000000 1.0
C      1  0.6130660000000  0.4507660000000  0.5586220000000 1.0
C      1  0.4480640000000  0.5541400000000  0.5408400000000 1.0
C      1  0.3992910000000  0.4663700000000  0.5018590000000 1.0
C      1  0.5409480000000  0.5866130000000  0.4838350000000 1.0
C      1  0.4005670000000  0.5423620000000  0.5868230000000 1.0
C      1  0.5457750000000  0.3962630000000  0.5169990000000 1.0
C      1  0.4925440000000  0.6060750000000  0.4505250000000 1.0
C      1  0.4879920000000  0.5304830000000  0.5472450000000 1.0
C      1  0.4500080000000  0.3888890000000  0.4891170000000 1.0
C      1  0.3862710000000  0.5700010000000  0.4979010000000 1.0
C      1  0.4606360000000  0.4480310000000  0.5071210000000 1.0
C      1  0.5468020000000  0.5427830000000  0.3971190000000 1.0
C      1  0.5539760000000  0.4996610000000  0.5819930000000 1.0
C      1  0.5162710000000  0.5440820000000  0.4304280000000 1.0
C      1  0.5860530000000  0.5728800000000  0.5405810000000 1.0
C      1  0.5396250000000  0.5768260000000  0.4575900000000 1.0
C      1  0.5542160000000  0.4109360000000  0.4393310000000 1.0
C      1  0.4250560000000  0.5352800000000  0.4125120000000 1.0
C      1  0.4469170000000  0.5466810000000  0.6097790000000 1.0
C      1  0.5287900000000  0.4184340000000  0.4294690000000 1.0
C      1  0.4607780000000  0.5799760000000  0.5439340000000 1.0
C      1  0.5503680000000  0.4951500000000  0.5053530000000 1.0
C      1  0.4401130000000  0.4139410000000  0.5396960000000 1.0
C      1  0.5350820000000  0.4953980000000  0.4123800000000 1.0
C      1  0.5184370000000  0.4916670000000  0.4628130000000 1.0
C      1  0.4746470000000  0.5464470000000  0.6042750000000 1.0
C      1  0.4349650000000  0.4297120000000  0.5620400000000 1.0
C      1  0.5735090000000  0.5262940000000  0.4339140000000 1.0
C      1  0.4747710000000  0.4811840000000  0.5420840000000 1.0
C      1  0.5014470000000  0.5469460000000  0.5315110000000 1.0
C      1  0.5451060000000  0.4124910000000  0.5890350000000 1.0
C      1  0.4074210000000  0.5100110000000  0.5203560000000 1.0
C      1  0.5985720000000  0.5758030000000  0.4898720000000 1.0
C      1  0.5517830000000  0.5484580000000  0.5124870000000 1.0
C      1  0.5604500000000  0.6048580000000  0.4937490000000 1.0
C      1  0.4785570000000  0.5035370000000  0.4978690000000 1.0
C      1  0.5079600000000  0.4543240000000  0.5041310000000 1.0
C      1  0.4030920000000  0.4554450000000  0.5294960000000 1.0
C      1  0.6038650000000  0.5760110000000  0.5181260000000 1.0
C      1  0.4752020000000  0.5405770000000  0.4603510000000 1.0
C      1  0.4827600000000  0.4605720000000  0.5205110000000 1.0
C      1  0.4804590000000  0.4093680000000  0.4379540000000 1.0
C      1  0.4570810000000  0.5977100000000  0.5203920000000 1.0
C      1  0.4263880000000  0.4956380000000  0.5602470000000 1.0
C      1  0.5306070000000  0.4865930000000  0.5996510000000 1.0
C      1  0.5344300000000  0.5673280000000  0.3964970000000 1.0
C      1  0.4843500000000  0.5825670000000  0.5615230000000 1.0
C      1  0.5239400000000  0.4511650000000  0.4810490000000 1.0
C      1  0.4705520000000  0.3860540000000  0.5063600000000 1.0
C      1  0.5333820000000  0.5325660000000  0.6019330000000 1.0
C      1  0.5632460000000  0.5724670000000  0.4427490000000 1.0
C      1  0.5324670000000  0.3995110000000  0.5415050000000 1.0
C      1  0.5543640000000  0.5368410000000  0.5418540000000 1.0
C      1  0.4156170000000  0.4984650000000  0.4360380000000 1.0
C      1  0.5267400000000  0.5019970000000  0.4886970000000 1.0
C      1  0.4461750000000  0.4947330000000  0.3941620000000 1.0
C      1  0.4749150000000  0.4567630000000  0.6180440000000 1.0
C      1  0.4163380000000  0.4240620000000  0.4753380000000 1.0
C      1  0.5326420000000  0.5515980000000  0.5553280000000 1.0
C      1  0.4214790000000  0.5692250000000  0.4468470000000 1.0
C      1  0.4005980000000  0.5193760000000  0.4509280000000 1.0
C      1  0.5183430000000  0.5589980000000  0.4534080000000 1.0
C      1  0.5090810000000  0.5911820000000  0.5472010000000 1.0
C      1  0.5015910000000  0.4461640000000  0.4005330000000 1.0
C      1  0.4823800000000  0.6008850000000  0.5047660000000 1.0
C      1  0.3893340000000  0.5178680000000  0.4779200000000 1.0
C      1  0.4979340000000  0.4484060000000  0.6025970000000 1.0
C      1  0.5830810000000  0.5451480000000  0.5474960000000 1.0
C      1  0.3814000000000  0.5441370000000  0.4893230000000 1.0
C      1  0.4559320000000  0.4339540000000  0.5815650000000 1.0
C      1  0.4900590000000  0.5236300000000  0.6140000000000 1.0
C      1  0.5836570000000  0.5314100000000  0.6093870000000 1.0
C      1  0.5249150000000  0.4435850000000  0.4159210000000 1.0
C      1  0.4476730000000  0.4261010000000  0.5171600000000 1.0
C      1  0.5317860000000  0.4671520000000  0.4568920000000 1.0
C      1  0.4085310000000  0.5444610000000  0.4367070000000 1.0
C      1  0.4310130000000  0.5219810000000  0.5120660000000 1.0
C      1  0.4527990000000  0.5005680000000  0.5504660000000 1.0
C      1  0.4346650000000  0.4670430000000  0.4692560000000 1.0
C      1  0.5062980000000  0.5927420000000  0.5188880000000 1.0
C      1  0.4518600000000  0.5458380000000  0.4182140000000 1.0
C      1  0.4899170000000  0.4884730000000  0.4557420000000 1.0
C      1  0.5188840000000  0.5870710000000  0.4074470000000 1.0
C      1  0.5868950000000  0.4495400000000  0.5625190000000 1.0
C      1  0.5973710000000  0.5068590000000  0.5189490000000 1.0
C      1  0.4126470000000  0.4523030000000  0.4798960000000 1.0
C      1  0.4715570000000  0.5267590000000  0.4324390000000 1.0
C      1  0.6008040000000  0.4013050000000  0.4366310000000 1.0
C      1  0.5419160000000  0.4625440000000  0.5459610000000 1.0
C      1  0.4275610000000  0.4675640000000  0.6002690000000 1.0
C      1  0.5772210000000  0.4103000000000  0.4215670000000 1.0
C      1  0.4455540000000  0.5714090000000  0.4304520000000 1.0
C      1  0.6243630000000  0.4107100000000  0.3779340000000 1.0
C      1  0.6014290000000  0.5244170000000  0.5397260000000 1.0
C      1  0.4875700000000  0.3959960000000  0.5246230000000 1.0
C      1  0.5597510000000  0.6097920000000  0.5218940000000 1.0
C      1  0.5981990000000  0.4170580000000  0.3755350000000 1.0
C      1  0.4652800000000  0.5034190000000  0.3741910000000 1.0
C      1  0.5862210000000  0.6004970000000  0.4823110000000 1.0
C      1  0.6366360000000  0.4023990000000  0.4005390000000 1.0
C      1  0.4406030000000  0.5595340000000  0.4895310000000 1.0
C      1  0.3925820000000  0.5289880000000  0.5649820000000 1.0
C      1  0.5537190000000  0.5071500000000  0.5525980000000 1.0
C      1  0.4375060000000  0.4873200000000  0.4501570000000 1.0
C      1  0.4240240000000  0.5761890000000  0.4738520000000 1.0
C      1  0.5011590000000  0.4343780000000  0.5559770000000 1.0
C      1  0.4500270000000  0.4513190000000  0.6047800000000 1.0
C      1  0.5107430000000  0.3736000000000  0.4281800000000 1.0
C      1  0.4238920000000  0.5069070000000  0.4084990000000 1.0
C      1  0.4844810000000  0.6064970000000  0.4765760000000 1.0
C      1  0.5040940000000  0.5999110000000  0.4265430000000 1.0
C      1  0.4852970000000  0.4338520000000  0.5795170000000 1.0
C      1  0.5912450000000  0.3967110000000  0.4631800000000 1.0
C      1  0.5796000000000  0.5500350000000  0.4492610000000 1.0
C      1  0.5601810000000  0.5230110000000  0.5991570000000 1.0
C      1  0.5593180000000  0.4511080000000  0.5655040000000 1.0
C      1  0.5065580000000  0.4004580000000  0.4320450000000 1.0
C      1  0.4983570000000  0.5523050000000  0.4721020000000 1.0
C      1  0.5145080000000  0.4603070000000  0.5526680000000 1.0
C      1  0.5454370000000  0.4407800000000  0.5887700000000 1.0
C      1  0.4049180000000  0.5101990000000  0.5482840000000 1.0
C      1  0.4632310000000  0.4794860000000  0.4120660000000 1.0
C      1  0.4555570000000  0.4107560000000  0.4476370000000 1.0
C      1  0.5487400000000  0.4866000000000  0.5329480000000 1.0
C      1  0.4337590000000  0.5506200000000  0.5166780000000 1.0
C      1  0.4775630000000  0.4571850000000  0.4038810000000 1.0
C      1  0.4926270000000  0.5026380000000  0.3783170000000 1.0
C      1  0.4836330000000  0.5678050000000  0.5865590000000 1.0
C      1  0.4540230000000  0.5165790000000  0.4964210000000 1.0
C      1  0.5544580000000  0.5191350000000  0.4133040000000 1.0
C      1  0.5875140000000  0.5517120000000  0.4770690000000 1.0
C      1  0.4384770000000  0.4063460000000  0.4697970000000 1.0
C      1  0.4777460000000  0.4815680000000  0.4803510000000 1.0
C      1  0.5753610000000  0.5092490000000  0.5005700000000 1.0
C      1  0.4289860000000  0.6020300000000  0.5117190000000 1.0
C      1  0.5352320000000  0.4680070000000  0.4275250000000 1.0
C      1  0.5287540000000  0.5679330000000  0.5034190000000 1.0
C      1  0.4984510000000  0.5262150000000  0.4189740000000 1.0
C      1  0.5047000000000  0.5160890000000  0.4995960000000 1.0
C      1  0.5160110000000  0.5106530000000  0.6125830000000 1.0
C      1  0.5067330000000  0.5464030000000  0.5016900000000 1.0
C      1  0.5355390000000  0.5806830000000  0.5540480000000 1.0
C      1  0.5431660000000  0.3962880000000  0.5674290000000 1.0
C      1  0.5059550000000  0.4105110000000  0.5404640000000 1.0
C      1  0.5088690000000  0.5057880000000  0.4017720000000 1.0
C      1  0.5628710000000  0.4022600000000  0.4661340000000 1.0
C      1  0.5040850000000  0.5139250000000  0.5639270000000 1.0
END
