TITL C-3201376-6384-291 100474.585751627 125000 -1004.15420800803 0 0 176 (C3i) n - 1
REM
REM in /home/nfs/bkarasulu/CARBON/AIRSS/Generating-Clusters/LCBOP/Higher-Symm/SD-CG/FIRE-CG
REM
REM
REM
REM
REM
REM ./C.cell (b20cbc046b6831c77cfcea5457e17084)
REM AIRSS Version 0.9.1 bugfix July 2018 build 013d7b7c2542+ Fri, 06 Jul 2018 19:26:36 +0100
REM compiler GCC version 9.2.1 20190827 (Red Hat 9.2.1-1)
REM options -cpp -mtune=generic -march=x86-64 -g -O0 -fpre-include=/usr/include/finclude/math-vector-fortran.h
REM seed 503355162 -2139166222 -1847055994 -1959182208 671452168 -896689219 1897319826 381914936 1872126421 1760949330 -1840723766 1764478497 -1613492037 -492169702 -1345449282 -1228849466 -1289527826 350712465 1671390486 1791018413 -1779656180 518810473 -1573331933 -1520828577 -357242564 -1841649978 1896413189 -1174622458 1247086388 -1395576839 1689042993 -417628619 608543770
REM
CELL 1.54180   50.00000   50.00000   50.00000   90.00000   90.00000   90.00000
LATT -1
SFAC C  
C      1  0.4408880000000  0.5057000000000  0.4311720000000 1.0
C      1  0.4657500000000  0.4520010000000  0.5688280000000 1.0
C      1  0.5246860000000  0.4466830000000  0.4311720000000 1.0
C      1  0.5587600000000  0.4950640000000  0.5688280000000 1.0
C      1  0.5338970000000  0.5487630000000  0.4311720000000 1.0
C      1  0.4749610000000  0.5540820000000  0.5688280000000 1.0
C      1  0.4814080000000  0.5541460000000  0.4630030000000 1.0
C      1  0.4440550000000  0.5113160000000  0.5369960000000 1.0
C      1  0.4624710000000  0.4575520000000  0.4630040000000 1.0
C      1  0.5182390000000  0.4466180000000  0.5369960000000 1.0
C      1  0.5555920000000  0.4894490000000  0.4630040000000 1.0
C      1  0.5371760000000  0.5432130000000  0.5369960000000 1.0
C      1  0.6228320000000  0.5026320000000  0.5198370000000 1.0
C      1  0.5593790000000  0.6080360000000  0.4801630000000 1.0
C      1  0.4363710000000  0.6057860000000  0.5198370000000 1.0
C      1  0.3768150000000  0.4981320000000  0.4801630000000 1.0
C      1  0.4402680000000  0.3927290000000  0.5198370000000 1.0
C      1  0.5632760000000  0.3949780000000  0.4801630000000 1.0
C      1  0.4878450000000  0.5587780000000  0.5431100000000 1.0
C      1  0.4432620000000  0.5192060000000  0.4568900000000 1.0
C      1  0.4552400000000  0.4608100000000  0.5431100000000 1.0
C      1  0.5118030000000  0.4419860000000  0.4568900000000 1.0
C      1  0.5563860000000  0.4815580000000  0.5431100000000 1.0
C      1  0.5444070000000  0.5399540000000  0.4568900000000 1.0
C      1  0.4968310000000  0.4718570000000  0.5688130000000 1.0
C      1  0.5230310000000  0.4835280000000  0.4311870000000 1.0
C      1  0.5260230000000  0.5120530000000  0.5688130000000 1.0
C      1  0.5028160000000  0.5289070000000  0.4311870000000 1.0
C      1  0.4766160000000  0.5172370000000  0.5688130000000 1.0
C      1  0.4736240000000  0.4887110000000  0.4311870000000 1.0
C      1  0.5051160000000  0.4417260000000  0.4082060000000 1.0
C      1  0.5532670000000  0.4756380000000  0.5917950000000 1.0
C      1  0.5479740000000  0.5342930000000  0.4082060000000 1.0
C      1  0.4945310000000  0.5590380000000  0.5917940000000 1.0
C      1  0.4463800000000  0.5251260000000  0.4082050000000 1.0
C      1  0.4516730000000  0.4664710000000  0.5917950000000 1.0
C      1  0.5928860000000  0.5558170000000  0.4400390000000 1.0
C      1  0.4983460000000  0.6086940000000  0.5599610000000 1.0
C      1  0.4052840000000  0.5532590000000  0.4400390000000 1.0
C      1  0.4067630000000  0.4449470000000  0.5599630000000 1.0
C      1  0.5013020000000  0.3920740000000  0.4400340000000 1.0
C      1  0.5943630000000  0.4475070000000  0.5599620000000 1.0
C      1  0.4041290000000  0.5728880000000  0.5289740000000 1.0
C      1  0.3891840000000  0.4537610000000  0.4710260000000 1.0
C      1  0.4848800000000  0.3812550000000  0.5289740000000 1.0
C      1  0.5955190000000  0.4278770000000  0.4710260000000 1.0
C      1  0.6104630000000  0.5470040000000  0.5289740000000 1.0
C      1  0.5147680000000  0.6195090000000  0.4710250000000 1.0
C      1  0.4206450000000  0.5472490000000  0.5655020000000 1.0
C      1  0.4196470000000  0.4552440000000  0.4344980000000 1.0
C      1  0.4988260000000  0.4083780000000  0.5655030000000 1.0
C      1  0.5790020000000  0.4535160000000  0.4344980000000 1.0
C      1  0.5800000000000  0.5455200000000  0.5655020000000 1.0
C      1  0.5008210000000  0.5923860000000  0.4344970000000 1.0
C      1  0.4144350000000  0.5788820000000  0.4511200000000 1.0
C      1  0.3891460000000  0.4656840000000  0.5488800000000 1.0
C      1  0.4745340000000  0.3871840000000  0.4511200000000 1.0
C      1  0.5852120000000  0.4218820000000  0.5488800000000 1.0
C      1  0.6105010000000  0.5350810000000  0.4511200000000 1.0
C      1  0.5251120000000  0.6135810000000  0.5488800000000 1.0
C      1  0.5889130000000  0.4114010000000  0.5211260000000 1.0
C      1  0.6214290000000  0.5330450000000  0.4788750000000 1.0
C      1  0.5323390000000  0.6220270000000  0.5211250000000 1.0
C      1  0.4107340000000  0.5893640000000  0.4788750000000 1.0
C      1  0.3782190000000  0.4677190000000  0.5211260000000 1.0
C      1  0.4673080000000  0.3787370000000  0.4788750000000 1.0
C      1  0.5378550000000  0.4322010000000  0.5228690000000 1.0
C      1  0.5778860000000  0.4992280000000  0.4771310000000 1.0
C      1  0.5398550000000  0.5674090000000  0.5228690000000 1.0
C      1  0.4617920000000  0.5685630000000  0.4771300000000 1.0
C      1  0.4217610000000  0.5015370000000  0.5228690000000 1.0
C      1  0.4597930000000  0.4333560000000  0.4771310000000 1.0
C      1  0.5855520000000  0.4563300000000  0.5043890000000 1.0
C      1  0.5808380000000  0.5525990000000  0.4956110000000 1.0
C      1  0.4951100000000  0.5966510000000  0.5043880000000 1.0
C      1  0.4140950000000  0.5444350000000  0.4956120000000 1.0
C      1  0.4188090000000  0.4481660000000  0.5043890000000 1.0
C      1  0.5045370000000  0.4041130000000  0.4956110000000 1.0
C      1  0.5016100000000  0.4683520000000  0.3906680000000 1.0
C      1  0.5284550000000  0.4859140000000  0.6093320000000 1.0
C      1  0.5266690000000  0.5179440000000  0.3906680000000 1.0
C      1  0.4980380000000  0.5324120000000  0.6093320000000 1.0
C      1  0.4711920000000  0.5148500000000  0.3906680000000 1.0
C      1  0.4729780000000  0.4828210000000  0.6093320000000 1.0
C      1  0.6029580000000  0.5145170000000  0.4308600000000 1.0
C      1  0.5391500000000  0.5967660000000  0.5691400000000 1.0
C      1  0.4360160000000  0.5826310000000  0.4308600000000 1.0
C      1  0.3966890000000  0.4862480000000  0.5691390000000 1.0
C      1  0.4604950000000  0.4039970000000  0.4308610000000 1.0
C      1  0.5636320000000  0.4181320000000  0.5691400000000 1.0
C      1  0.5569280000000  0.6178280000000  0.5059990000000 1.0
C      1  0.4266650000000  0.6085590000000  0.4940010000000 1.0
C      1  0.3695600000000  0.4911130000000  0.5059990000000 1.0
C      1  0.4427190000000  0.3829360000000  0.4940010000000 1.0
C      1  0.5729830000000  0.3922050000000  0.5059990000000 1.0
C      1  0.6300870000000  0.5096510000000  0.4940010000000 1.0
C      1  0.5667160000000  0.4504090000000  0.5850510000000 1.0
C      1  0.5765480000000  0.5333240000000  0.4149480000000 1.0
C      1  0.5096570000000  0.5832990000000  0.5850510000000 1.0
C      1  0.4329320000000  0.5503570000000  0.4149490000000 1.0
C      1  0.4230990000000  0.4674390000000  0.5850500000000 1.0
C      1  0.4899930000000  0.4174620000000  0.4149520000000 1.0
C      1  0.4750490000000  0.5126650000000  0.6138160000000 1.0
C      1  0.4767990000000  0.4850680000000  0.3861840000000 1.0
C      1  0.5015740000000  0.4727860000000  0.6138160000000 1.0
C      1  0.5245980000000  0.4880990000000  0.3861840000000 1.0
C      1  0.5228480000000  0.5156960000000  0.6138160000000 1.0
C      1  0.4980740000000  0.5279790000000  0.3861840000000 1.0
C      1  0.4706200000000  0.4165390000000  0.5613030000000 1.0
C      1  0.5578330000000  0.4331690000000  0.4386970000000 1.0
C      1  0.5870360000000  0.5170130000000  0.5613030000000 1.0
C      1  0.5290270000000  0.5842260000000  0.4386970000000 1.0
C      1  0.4418150000000  0.5675950000000  0.5613030000000 1.0
C      1  0.4126110000000  0.4837510000000  0.4386970000000 1.0
C      1  0.5474540000000  0.4963830000000  0.5215490000000 1.0
C      1  0.5271020000000  0.5396310000000  0.4784510000000 1.0
C      1  0.4794720000000  0.5436310000000  0.5215490000000 1.0
C      1  0.4521930000000  0.5043820000000  0.4784510000000 1.0
C      1  0.4725450000000  0.4611330000000  0.5215490000000 1.0
C      1  0.5201750000000  0.4571330000000  0.4784510000000 1.0
C      1  0.5687190000000  0.5675890000000  0.5181400000000 1.0
C      1  0.4760690000000  0.5936510000000  0.4818590000000 1.0
C      1  0.4071730000000  0.5264440000000  0.5181410000000 1.0
C      1  0.4309280000000  0.4331750000000  0.4818600000000 1.0
C      1  0.5235780000000  0.4071130000000  0.5181410000000 1.0
C      1  0.5924740000000  0.4743200000000  0.4818600000000 1.0
C      1  0.4662870000000  0.4623590000000  0.4356300000000 1.0
C      1  0.5159840000000  0.4523270000000  0.5643700000000 1.0
C      1  0.5495210000000  0.4903500000000  0.4356300000000 1.0
C      1  0.5333600000000  0.5384050000000  0.5643700000000 1.0
C      1  0.4836630000000  0.5484370000000  0.4356300000000 1.0
C      1  0.4501260000000  0.5104140000000  0.5643700000000 1.0
C      1  0.4245440000000  0.4747980000000  0.5141770000000 1.0
C      1  0.4843410000000  0.4223960000000  0.4858230000000 1.0
C      1  0.5596200000000  0.4479800000000  0.5141770000000 1.0
C      1  0.5751030000000  0.5259670000000  0.4858230000000 1.0
C      1  0.5153060000000  0.5783690000000  0.5141770000000 1.0
C      1  0.4400270000000  0.5527840000000  0.4858230000000 1.0
C      1  0.4823110000000  0.4800100000000  0.5039190000000 1.0
C      1  0.5087100000000  0.4750300000000  0.4960810000000 1.0
C      1  0.5262230000000  0.4954020000000  0.5039190000000 1.0
C      1  0.5173360000000  0.5207550000000  0.4960810000000 1.0
C      1  0.4909370000000  0.5257350000000  0.5039190000000 1.0
C      1  0.4734240000000  0.5053620000000  0.4960810000000 1.0
C      1  0.5065920000000  0.5579070000000  0.4745820000000 1.0
C      1  0.4533900000000  0.5350060000000  0.5254180000000 1.0
C      1  0.4466220000000  0.4774820000000  0.4745820000000 1.0
C      1  0.4930550000000  0.4428580000000  0.5254180000000 1.0
C      1  0.5462570000000  0.4657580000000  0.4745820000000 1.0
C      1  0.5530250000000  0.5232830000000  0.5254180000000 1.0
C      1  0.5873570000000  0.5611380000000  0.5417220000000 1.0
C      1  0.4909740000000  0.6065660000000  0.4582770000000 1.0
C      1  0.4034410000000  0.5458110000000  0.5417220000000 1.0
C      1  0.4122900000000  0.4396260000000  0.4582780000000 1.0
C      1  0.5086730000000  0.3941980000000  0.5417220000000 1.0
C      1  0.5962060000000  0.4549540000000  0.4582780000000 1.0
C      1  0.5553730000000  0.5491130000000  0.5789150000000 1.0
C      1  0.4853960000000  0.5728550000000  0.4210850000000 1.0
C      1  0.4298470000000  0.5241240000000  0.5789150000000 1.0
C      1  0.4442740000000  0.4516510000000  0.4210850000000 1.0
C      1  0.5142510000000  0.4279090000000  0.5789150000000 1.0
C      1  0.5698010000000  0.4766400000000  0.4210850000000 1.0
C      1  0.5112970000000  0.6209150000000  0.5004060000000 1.0
C      1  0.4011760000000  0.5705850000000  0.4995940000000 1.0
C      1  0.3897030000000  0.4500520000000  0.5004070000000 1.0
C      1  0.4883500000000  0.3798500000000  0.4995930000000 1.0
C      1  0.5984710000000  0.4301800000000  0.5004070000000 1.0
C      1  0.6099440000000  0.5507120000000  0.4995930000000 1.0
C      1  0.4296810000000  0.5856720000000  0.5395000000000 1.0
C      1  0.3908890000000  0.4822810000000  0.4605000000000 1.0
C      1  0.4610320000000  0.3969920000000  0.5395000000000 1.0
C      1  0.5699670000000  0.4150920000000  0.4605000000000 1.0
C      1  0.6087580000000  0.5184830000000  0.5395000000000 1.0
C      1  0.5386150000000  0.6037730000000  0.4605000000000 1.0
C      1  0.4998240000000  0.5003820000000  0.5678460000000 1.0
C      1  0.4998240000000  0.5003820000000  0.4321540000000 1.0
END
