TITL C-3201378-2706-1177 -1039156.46633686 125000 -437.737870369661 0 0 76 (C1) n - 1
REM
REM in /home/nfs/bkarasulu/CARBON/AIRSS/Generating-Clusters/LCBOP/Higher-Symm/SD-CG/FIRE-CG
REM
REM
REM
REM
REM
REM ./C.cell (b20cbc046b6831c77cfcea5457e17084)
REM AIRSS Version 0.9.1 bugfix July 2018 build 013d7b7c2542+ Fri, 06 Jul 2018 19:26:36 +0100
REM compiler GCC version 9.2.1 20190827 (Red Hat 9.2.1-1)
REM options -cpp -mtune=generic -march=x86-64 -g -O0 -fpre-include=/usr/include/finclude/math-vector-fortran.h
REM seed -2049619283 -1627086907 -1179045218 398366696 -639203092 420028099 2132681479 904421898 986432640 1831944287 -358248472 -443923374 -2110420778 1816196304 1497784649 -2004794055 987136470 903440059 1112788352 2124842655 667726414 -1394297355 -984371318 901997085 -599483589 443166189 -1538312649 -1404597876 1352540230 -1626971602 -649340115 -1839214128 -923572939
REM
CELL 1.54180   50.00000   50.00000   50.00000   90.00000   90.00000   90.00000
LATT -1
SFAC C  
C      1  0.5129270000000  0.5250670000000  0.5217910000000 1.0
C      1  0.5131110000000  0.5027550000000  0.4705110000000 1.0
C      1  0.5118660000000  0.4723380000000  0.5144380000000 1.0
C      1  0.5292120000000  0.5183410000000  0.4519180000000 1.0
C      1  0.5282960000000  0.4486450000000  0.5092360000000 1.0
C      1  0.5277070000000  0.5331700000000  0.5458140000000 1.0
C      1  0.5097900000000  0.4783170000000  0.4529110000000 1.0
C      1  0.5089000000000  0.4687910000000  0.5445210000000 1.0
C      1  0.5104260000000  0.5524960000000  0.5090320000000 1.0
C      1  0.4355940000000  0.4881190000000  0.4407010000000 1.0
C      1  0.4344740000000  0.4537920000000  0.5421410000000 1.0
C      1  0.4355720000000  0.5589330000000  0.5201590000000 1.0
C      1  0.5745090000000  0.5048780000000  0.4388280000000 1.0
C      1  0.5709300000000  0.4540280000000  0.5335770000000 1.0
C      1  0.5698630000000  0.5436010000000  0.5237590000000 1.0
C      1  0.5884370000000  0.4877780000000  0.4240170000000 1.0
C      1  0.5732950000000  0.4771650000000  0.5505830000000 1.0
C      1  0.5765670000000  0.5361310000000  0.4971350000000 1.0
C      1  0.4660040000000  0.4710150000000  0.4712420000000 1.0
C      1  0.4654380000000  0.4884970000000  0.5421980000000 1.0
C      1  0.4671370000000  0.5409380000000  0.4911480000000 1.0
C      1  0.4250570000000  0.4726000000000  0.4921750000000 1.0
C      1  0.4254570000000  0.5077510000000  0.5292540000000 1.0
C      1  0.4265520000000  0.5217850000000  0.4797760000000 1.0
C      1  0.4944670000000  0.4922090000000  0.4287900000000 1.0
C      1  0.4934530000000  0.4410100000000  0.5442990000000 1.0
C      1  0.4938030000000  0.5666410000000  0.5323620000000 1.0
C      1  0.4854180000000  0.5334260000000  0.5713390000000 1.0
C      1  0.4884760000000  0.5429790000000  0.4383020000000 1.0
C      1  0.4871770000000  0.4235130000000  0.4959350000000 1.0
C      1  0.5939510000000  0.5515670000000  0.4817790000000 1.0
C      1  0.5988220000000  0.4658300000000  0.4135010000000 1.0
C      1  0.5835820000000  0.4780660000000  0.5761700000000 1.0
C      1  0.4693100000000  0.5879700000000  0.4962010000000 1.0
C      1  0.4682310000000  0.4514020000000  0.4282990000000 1.0
C      1  0.4669360000000  0.4605780000000  0.5804210000000 1.0
C      1  0.5174400000000  0.5583540000000  0.4815020000000 1.0
C      1  0.5162010000000  0.4513020000000  0.4607290000000 1.0
C      1  0.5147630000000  0.4888610000000  0.5645450000000 1.0
C      1  0.5925670000000  0.4794460000000  0.6005940000000 1.0
C      1  0.6081490000000  0.5670750000000  0.4663790000000 1.0
C      1  0.6066960000000  0.4420740000000  0.4060090000000 1.0
C      1  0.4669880000000  0.5777110000000  0.5230160000000 1.0
C      1  0.4674020000000  0.4794460000000  0.4232390000000 1.0
C      1  0.4661050000000  0.4425070000000  0.5580640000000 1.0
C      1  0.4596250000000  0.5354500000000  0.4376480000000 1.0
C      1  0.4585190000000  0.4272430000000  0.5031620000000 1.0
C      1  0.4570900000000  0.5376640000000  0.5634140000000 1.0
C      1  0.4947980000000  0.4333390000000  0.4692280000000 1.0
C      1  0.4933730000000  0.5052390000000  0.5760070000000 1.0
C      1  0.4967340000000  0.5606390000000  0.4608030000000 1.0
C      1  0.4675460000000  0.4708480000000  0.5182050000000 1.0
C      1  0.4683280000000  0.5288530000000  0.5184320000000 1.0
C      1  0.4685170000000  0.5004220000000  0.4676050000000 1.0
C      1  0.5552660000000  0.5264490000000  0.5412110000000 1.0
C      1  0.5566110000000  0.5135010000000  0.4584100000000 1.0
C      1  0.5552550000000  0.4596440000000  0.5094160000000 1.0
C      1  0.4442290000000  0.5138880000000  0.4538360000000 1.0
C      1  0.4435340000000  0.4521170000000  0.5136500000000 1.0
C      1  0.4431710000000  0.5342500000000  0.5360190000000 1.0
C      1  0.5625460000000  0.4991530000000  0.5352820000000 1.0
C      1  0.5643730000000  0.5117940000000  0.4865380000000 1.0
C      1  0.5595160000000  0.4903190000000  0.5061830000000 1.0
C      1  0.4342270000000  0.4843810000000  0.5451390000000 1.0
C      1  0.4360200000000  0.5466230000000  0.4923310000000 1.0
C      1  0.4349310000000  0.4703280000000  0.4653980000000 1.0
C      1  0.4729620000000  0.4459070000000  0.4558490000000 1.0
C      1  0.4716390000000  0.4872800000000  0.5718380000000 1.0
C      1  0.4746250000000  0.5670810000000  0.4776720000000 1.0
C      1  0.4873830000000  0.5138110000000  0.5275280000000 1.0
C      1  0.4880900000000  0.5147980000000  0.4768240000000 1.0
C      1  0.4869580000000  0.4715040000000  0.5010530000000 1.0
C      1  0.5066880000000  0.4281470000000  0.5176920000000 1.0
C      1  0.5052780000000  0.5504430000000  0.5576170000000 1.0
C      1  0.5073610000000  0.5215670000000  0.4306420000000 1.0
C      1  0.4206780000000  0.5005430000000  0.5003730000000 1.0
END
