TITL C-3201373-1215-1441 0.204289572495876 125000 -373.219999032857 0 0 61 (C1) n - 1
REM
REM in /home/nfs/bkarasulu/CARBON/AIRSS/Generating-Clusters/LCBOP/Higher-Symm/SD-CG/FIRE-CG
REM
REM
REM
REM
REM
REM ./C.cell (b20cbc046b6831c77cfcea5457e17084)
REM AIRSS Version 0.9.1 bugfix July 2018 build 013d7b7c2542+ Fri, 06 Jul 2018 19:26:36 +0100
REM compiler GCC version 9.2.1 20190827 (Red Hat 9.2.1-1)
REM options -cpp -mtune=generic -march=x86-64 -g -O0 -fpre-include=/usr/include/finclude/math-vector-fortran.h
REM seed -65600237 1528518253 -225167604 -266001021 1412541662 -1402617439 -703048000 -2048242902 -1862830112 -357587860 -290941626 240441102 1374790945 -782641110 -801503648 -441226466 -193814403 -724994818 1518972515 1636287189 808043613 1174625447 424741879 -561778901 1939212614 -317890742 162479046 1004340726 -2099709793 737129522 -910906558 -1555633378 -1085159921
REM
CELL 1.54180   50.00000   50.00000   50.00000   90.00000   90.00000   90.00000
LATT -1
SFAC C  
C      1  0.5599350000000  0.5441580000000  0.5212500000000 1.0
C      1  0.5338000000000  0.5184110000000  0.4648660000000 1.0
C      1  0.5318600000000  0.4818400000000  0.4948240000000 1.0
C      1  0.4229720000000  0.5420220000000  0.5588170000000 1.0
C      1  0.5221290000000  0.5549860000000  0.5482020000000 1.0
C      1  0.4549710000000  0.4414090000000  0.4945510000000 1.0
C      1  0.5375490000000  0.5346910000000  0.5624800000000 1.0
C      1  0.4158780000000  0.4804570000000  0.4601180000000 1.0
C      1  0.4727600000000  0.4290860000000  0.4756350000000 1.0
C      1  0.4859320000000  0.5942780000000  0.5227320000000 1.0
C      1  0.4823960000000  0.5666660000000  0.5227050000000 1.0
C      1  0.5342870000000  0.4330460000000  0.4326450000000 1.0
C      1  0.5200240000000  0.4153730000000  0.4767990000000 1.0
C      1  0.4952350000000  0.5495730000000  0.5417180000000 1.0
C      1  0.4945110000000  0.6461300000000  0.5233710000000 1.0
C      1  0.4846460000000  0.5041310000000  0.5221990000000 1.0
C      1  0.4957750000000  0.4427540000000  0.5147820000000 1.0
C      1  0.4797150000000  0.5220140000000  0.6049110000000 1.0
C      1  0.5799180000000  0.5041020000000  0.4654590000000 1.0
C      1  0.4648920000000  0.5539850000000  0.5040580000000 1.0
C      1  0.4376320000000  0.5548590000000  0.5114190000000 1.0
C      1  0.4352010000000  0.4880390000000  0.4407590000000 1.0
C      1  0.4481550000000  0.4690790000000  0.4243130000000 1.0
C      1  0.4980560000000  0.4262810000000  0.4906430000000 1.0
C      1  0.4981530000000  0.4709540000000  0.4249980000000 1.0
C      1  0.4753880000000  0.5135480000000  0.4325180000000 1.0
C      1  0.5197330000000  0.5060970000000  0.4867620000000 1.0
C      1  0.5557770000000  0.4704620000000  0.4897070000000 1.0
C      1  0.4698050000000  0.4569740000000  0.5142230000000 1.0
C      1  0.5669920000000  0.4214880000000  0.4665320000000 1.0
C      1  0.5613620000000  0.4314330000000  0.4415720000000 1.0
C      1  0.4963370000000  0.5161720000000  0.4982060000000 1.0
C      1  0.4721500000000  0.4356960000000  0.4484920000000 1.0
C      1  0.5213330000000  0.4551870000000  0.4212620000000 1.0
C      1  0.4346490000000  0.5340200000000  0.5813810000000 1.0
C      1  0.4644450000000  0.4848970000000  0.5149870000000 1.0
C      1  0.4208950000000  0.4827220000000  0.4868050000000 1.0
C      1  0.5374080000000  0.4555890000000  0.5454900000000 1.0
C      1  0.4901410000000  0.6204320000000  0.5230230000000 1.0
C      1  0.5566500000000  0.4738160000000  0.5483150000000 1.0
C      1  0.4547380000000  0.5150520000000  0.4766680000000 1.0
C      1  0.4546060000000  0.5269850000000  0.5975450000000 1.0
C      1  0.5658920000000  0.4986950000000  0.5454780000000 1.0
C      1  0.4526810000000  0.5096160000000  0.4487830000000 1.0
C      1  0.4997670000000  0.4994440000000  0.4295740000000 1.0
C      1  0.4744720000000  0.5322750000000  0.4878200000000 1.0
C      1  0.4731770000000  0.4569820000000  0.4299430000000 1.0
C      1  0.5228640000000  0.5124830000000  0.4395470000000 1.0
C      1  0.5664870000000  0.5399160000000  0.4944650000000 1.0
C      1  0.5583730000000  0.5255150000000  0.5441070000000 1.0
C      1  0.5177390000000  0.4154920000000  0.4481060000000 1.0
C      1  0.5154730000000  0.4455180000000  0.5342480000000 1.0
C      1  0.5612530000000  0.5247870000000  0.4711850000000 1.0
C      1  0.5474860000000  0.4142690000000  0.4844430000000 1.0
C      1  0.4860020000000  0.5224190000000  0.5437370000000 1.0
C      1  0.5279110000000  0.5245880000000  0.5865510000000 1.0
C      1  0.5773310000000  0.4792410000000  0.4759510000000 1.0
C      1  0.4448070000000  0.4950450000000  0.4957050000000 1.0
C      1  0.5061060000000  0.5206610000000  0.6014280000000 1.0
C      1  0.4230790000000  0.5497370000000  0.5332890000000 1.0
C      1  0.5403080000000  0.5644210000000  0.5278960000000 1.0
END
