TITL C-3201373-1215-1698 -6.89742886116315e-07 125000 -43.3989100379387 0 0 8 (D(inf)h) n - 1
REM
REM in /home/nfs/bkarasulu/CARBON/AIRSS/Generating-Clusters/LCBOP/Higher-Symm/SD-CG/FIRE-CG
REM
REM
REM
REM
REM
REM ./C.cell (b20cbc046b6831c77cfcea5457e17084)
REM AIRSS Version 0.9.1 bugfix July 2018 build 013d7b7c2542+ Fri, 06 Jul 2018 19:26:36 +0100
REM compiler GCC version 9.2.1 20190827 (Red Hat 9.2.1-1)
REM options -cpp -mtune=generic -march=x86-64 -g -O0 -fpre-include=/usr/include/finclude/math-vector-fortran.h
REM seed 1649866053 -1921744235 -259789933 -1673289164 -612205593 453430779 -238158374 1963272971 223173320 -1551538544 1301370042 2146348272 1867745375 1189585437 -1232246954 479352099 634546122 5148355 1186925521 -13910230 1159923474 1138960883 1589531667 1280036367 -1295634909 -498199099 -1051332763 803406037 -1888098133 122067829 -863812914 521369314 -1451188559
REM
CELL 1.54180   50.00000   50.00000   50.00000   90.00000   90.00000   90.00000
LATT -1
SFAC C  
C      1  0.5002330000000  0.5923260000000  0.5013460000000 1.0
C      1  0.5002330000000  0.4602510000000  0.5013460000000 1.0
C      1  0.5002330000000  0.4076740000000  0.5013460000000 1.0
C      1  0.5002330000000  0.4337440000000  0.5013460000000 1.0
C      1  0.5002330000000  0.5397490000000  0.5013460000000 1.0
C      1  0.5002330000000  0.4867500000000  0.5013460000000 1.0
C      1  0.5002330000000  0.5132500000000  0.5013460000000 1.0
C      1  0.5002330000000  0.5662560000000  0.5013460000000 1.0
END
