TITL C-3201378-2706-1353 20.863604459733 125000 -1071.14937501815 0 0 172 (C2) n - 1
REM
REM in /home/nfs/bkarasulu/CARBON/AIRSS/Generating-Clusters/LCBOP/Higher-Symm/SD-CG/FIRE-CG
REM
REM
REM
REM
REM
REM ./C.cell (b20cbc046b6831c77cfcea5457e17084)
REM AIRSS Version 0.9.1 bugfix July 2018 build 013d7b7c2542+ Fri, 06 Jul 2018 19:26:36 +0100
REM compiler GCC version 9.2.1 20190827 (Red Hat 9.2.1-1)
REM options -cpp -mtune=generic -march=x86-64 -g -O0 -fpre-include=/usr/include/finclude/math-vector-fortran.h
REM seed 2081071567 759847362 -1230542718 689057837 68540019 1109590155 968233206 -1021601727 -1247644694 2089615222 177216538 1945032510 102066741 898931523 784581425 2113581015 -521473693 1307793858 1174152113 284109970 -1649569433 1445283985 -777199405 1345897682 136886552 -1710986220 1779014261 -486343512 971133786 -1928698169 -31614372 -2039819150 1665715424
REM
CELL 1.54180   50.00000   50.00000   50.00000   90.00000   90.00000   90.00000
LATT -1
SFAC C  
C      1  0.4710260000000  0.5291820000000  0.4397020000000 1.0
C      1  0.4710510000000  0.4398100000000  0.4707950000000 1.0
C      1  0.4709840000000  0.4708060000000  0.5601390000000 1.0
C      1  0.4711180000000  0.5602010000000  0.5292680000000 1.0
C      1  0.5288950000000  0.5291900000000  0.5601420000000 1.0
C      1  0.5287610000000  0.4397970000000  0.5292640000000 1.0
C      1  0.5288560000000  0.4708220000000  0.4397000000000 1.0
C      1  0.5288300000000  0.5601930000000  0.4708010000000 1.0
C      1  0.5483370000000  0.5743510000000  0.5115220000000 1.0
C      1  0.5482730000000  0.5115770000000  0.4255420000000 1.0
C      1  0.5483280000000  0.4257620000000  0.4885120000000 1.0
C      1  0.5483470000000  0.4884680000000  0.5742680000000 1.0
C      1  0.4515530000000  0.5742390000000  0.4885170000000 1.0
C      1  0.4515310000000  0.5115260000000  0.5742670000000 1.0
C      1  0.4515430000000  0.4256480000000  0.5115140000000 1.0
C      1  0.4516090000000  0.4884290000000  0.4255400000000 1.0
C      1  0.6237900000000  0.4942370000000  0.4779670000000 1.0
C      1  0.6248920000000  0.4753510000000  0.5089140000000 1.0
C      1  0.6237080000000  0.5080820000000  0.5213870000000 1.0
C      1  0.6232410000000  0.5209900000000  0.4926960000000 1.0
C      1  0.3761720000000  0.4919160000000  0.5213830000000 1.0
C      1  0.3766400000000  0.4790110000000  0.4926920000000 1.0
C      1  0.3760910000000  0.5057650000000  0.4779640000000 1.0
C      1  0.3749890000000  0.5246490000000  0.5089130000000 1.0
C      1  0.4152220000000  0.5522040000000  0.4646610000000 1.0
C      1  0.4153910000000  0.4644210000000  0.4474940000000 1.0
C      1  0.4152110000000  0.4475200000000  0.5354530000000 1.0
C      1  0.4152660000000  0.5355630000000  0.5523610000000 1.0
C      1  0.5846690000000  0.5524770000000  0.5354590000000 1.0
C      1  0.5846130000000  0.4644320000000  0.5523610000000 1.0
C      1  0.5846590000000  0.4477990000000  0.4646590000000 1.0
C      1  0.5844910000000  0.5355830000000  0.4474990000000 1.0
C      1  0.5009540000000  0.4410600000000  0.5240350000000 1.0
C      1  0.5010570000000  0.5240390000000  0.5589070000000 1.0
C      1  0.5009990000000  0.5589230000000  0.4759240000000 1.0
C      1  0.5010380000000  0.4759340000000  0.4410090000000 1.0
C      1  0.4988820000000  0.4410790000000  0.4759190000000 1.0
C      1  0.4988440000000  0.5240700000000  0.4410110000000 1.0
C      1  0.4989260000000  0.5589380000000  0.5240400000000 1.0
C      1  0.4988220000000  0.4759560000000  0.5589050000000 1.0
C      1  0.4144980000000  0.4900540000000  0.4599180000000 1.0
C      1  0.4142790000000  0.4599940000000  0.5098050000000 1.0
C      1  0.4140760000000  0.5098220000000  0.5399170000000 1.0
C      1  0.4142480000000  0.5398910000000  0.4904100000000 1.0
C      1  0.5858040000000  0.4901750000000  0.5399190000000 1.0
C      1  0.5856330000000  0.4601100000000  0.4904090000000 1.0
C      1  0.5853840000000  0.5099500000000  0.4599210000000 1.0
C      1  0.5856010000000  0.5400060000000  0.5098100000000 1.0
C      1  0.5605820000000  0.4990160000000  0.5248730000000 1.0
C      1  0.5604670000000  0.5249670000000  0.5011070000000 1.0
C      1  0.5604030000000  0.5010080000000  0.4747510000000 1.0
C      1  0.5605440000000  0.4751060000000  0.4992570000000 1.0
C      1  0.4394780000000  0.4989940000000  0.4747500000000 1.0
C      1  0.4393370000000  0.5248940000000  0.4992570000000 1.0
C      1  0.4392980000000  0.5009820000000  0.5248720000000 1.0
C      1  0.4394130000000  0.4750330000000  0.5011040000000 1.0
C      1  0.5644100000000  0.5718890000000  0.5373280000000 1.0
C      1  0.5642910000000  0.5374310000000  0.4280280000000 1.0
C      1  0.5644410000000  0.4283250000000  0.4627380000000 1.0
C      1  0.5643450000000  0.4626430000000  0.5717890000000 1.0
C      1  0.4354400000000  0.5716780000000  0.4627420000000 1.0
C      1  0.4355330000000  0.5373510000000  0.5717900000000 1.0
C      1  0.4354700000000  0.4281080000000  0.5373200000000 1.0
C      1  0.4355920000000  0.4625750000000  0.4280230000000 1.0
C      1  0.5002340000000  0.6097020000000  0.5487270000000 1.0
C      1  0.5000280000000  0.5487170000000  0.3902770000000 1.0
C      1  0.5002990000000  0.3903370000000  0.4513160000000 1.0
C      1  0.5001230000000  0.4513480000000  0.6096600000000 1.0
C      1  0.4995830000000  0.6096670000000  0.4513240000000 1.0
C      1  0.4997550000000  0.5486430000000  0.6096640000000 1.0
C      1  0.4996450000000  0.3902940000000  0.5487180000000 1.0
C      1  0.4998560000000  0.4512910000000  0.3902730000000 1.0
C      1  0.5644510000000  0.5911480000000  0.4916920000000 1.0
C      1  0.5645670000000  0.4917940000000  0.4088240000000 1.0
C      1  0.5642940000000  0.4088060000000  0.5083210000000 1.0
C      1  0.5645170000000  0.5082660000000  0.5910690000000 1.0
C      1  0.4355860000000  0.5911930000000  0.5083260000000 1.0
C      1  0.4353610000000  0.4917270000000  0.5910670000000 1.0
C      1  0.4354290000000  0.4088520000000  0.4916830000000 1.0
C      1  0.4353150000000  0.5082130000000  0.4088230000000 1.0
C      1  0.4533240000000  0.4398770000000  0.4235100000000 1.0
C      1  0.4531650000000  0.4235610000000  0.5600420000000 1.0
C      1  0.4532600000000  0.5600350000000  0.5764450000000 1.0
C      1  0.4530790000000  0.5763470000000  0.4399910000000 1.0
C      1  0.5466190000000  0.4399590000000  0.5764410000000 1.0
C      1  0.5468030000000  0.4236570000000  0.4399860000000 1.0
C      1  0.5465590000000  0.5601300000000  0.4235160000000 1.0
C      1  0.5467140000000  0.5764340000000  0.5600490000000 1.0
C      1  0.5009590000000  0.4734840000000  0.6278730000000 1.0
C      1  0.5010030000000  0.6278560000000  0.5265340000000 1.0
C      1  0.5008860000000  0.5265300000000  0.3721110000000 1.0
C      1  0.5011500000000  0.3721640000000  0.4734930000000 1.0
C      1  0.4989980000000  0.4734800000000  0.3721090000000 1.0
C      1  0.4987310000000  0.6278380000000  0.4735040000000 1.0
C      1  0.4989180000000  0.5265060000000  0.6278750000000 1.0
C      1  0.4988770000000  0.3721420000000  0.5265240000000 1.0
C      1  0.4280930000000  0.5342940000000  0.4205650000000 1.0
C      1  0.4282860000000  0.4204380000000  0.4655480000000 1.0
C      1  0.4282000000000  0.4655860000000  0.5794720000000 1.0
C      1  0.4284780000000  0.5796780000000  0.5345000000000 1.0
C      1  0.5716780000000  0.5344070000000  0.5794770000000 1.0
C      1  0.5714020000000  0.4203190000000  0.5344950000000 1.0
C      1  0.5717900000000  0.4657130000000  0.4205640000000 1.0
C      1  0.5715950000000  0.5795650000000  0.4655560000000 1.0
C      1  0.4084180000000  0.5571120000000  0.5345800000000 1.0
C      1  0.4080610000000  0.5343080000000  0.4433220000000 1.0
C      1  0.4082360000000  0.4430930000000  0.4654070000000 1.0
C      1  0.4081340000000  0.4654120000000  0.5568440000000 1.0
C      1  0.5916460000000  0.5569100000000  0.4654140000000 1.0
C      1  0.5917450000000  0.5345830000000  0.5568490000000 1.0
C      1  0.5914610000000  0.4428850000000  0.5345780000000 1.0
C      1  0.5918210000000  0.4656970000000  0.4433220000000 1.0
C      1  0.3949780000000  0.5105800000000  0.4561420000000 1.0
C      1  0.3950620000000  0.4562280000000  0.4889510000000 1.0
C      1  0.3949170000000  0.4889260000000  0.5436940000000 1.0
C      1  0.3951370000000  0.5445350000000  0.5109460000000 1.0
C      1  0.6049620000000  0.5110710000000  0.5436980000000 1.0
C      1  0.6047430000000  0.4554640000000  0.5109450000000 1.0
C      1  0.6049040000000  0.4894230000000  0.4561440000000 1.0
C      1  0.6048190000000  0.5437730000000  0.4889570000000 1.0
C      1  0.4982390000000  0.4674520000000  0.5134640000000 1.0
C      1  0.4982920000000  0.5134960000000  0.5325160000000 1.0
C      1  0.4982590000000  0.5325340000000  0.4864730000000 1.0
C      1  0.4982890000000  0.4865010000000  0.4673960000000 1.0
C      1  0.5016220000000  0.4674670000000  0.4864700000000 1.0
C      1  0.5015920000000  0.5135020000000  0.4673970000000 1.0
C      1  0.5016410000000  0.5325470000000  0.5134660000000 1.0
C      1  0.5015880000000  0.4865010000000  0.5325150000000 1.0
C      1  0.4798480000000  0.5238940000000  0.5772560000000 1.0
C      1  0.4797770000000  0.5772310000000  0.4760590000000 1.0
C      1  0.4798850000000  0.4760400000000  0.4226110000000 1.0
C      1  0.4797900000000  0.4226780000000  0.5239280000000 1.0
C      1  0.5199970000000  0.5239660000000  0.4226130000000 1.0
C      1  0.5200900000000  0.5773200000000  0.5239350000000 1.0
C      1  0.5200310000000  0.4761000000000  0.5772550000000 1.0
C      1  0.5201040000000  0.4227710000000  0.4760530000000 1.0
C      1  0.5442740000000  0.4492380000000  0.4235090000000 1.0
C      1  0.5440040000000  0.4234920000000  0.5508740000000 1.0
C      1  0.5441840000000  0.5507950000000  0.5764390000000 1.0
C      1  0.5440730000000  0.5765080000000  0.4491780000000 1.0
C      1  0.4556950000000  0.4491990000000  0.5764340000000 1.0
C      1  0.4558090000000  0.4234960000000  0.4491710000000 1.0
C      1  0.4556080000000  0.5507680000000  0.4235110000000 1.0
C      1  0.4558750000000  0.5765040000000  0.5508780000000 1.0
C      1  0.5258220000000  0.3996550000000  0.5558420000000 1.0
C      1  0.5259650000000  0.5556820000000  0.6002980000000 1.0
C      1  0.5258160000000  0.6003470000000  0.4443000000000 1.0
C      1  0.5260840000000  0.4442710000000  0.3996280000000 1.0
C      1  0.4740660000000  0.3996580000000  0.4442910000000 1.0
C      1  0.4737990000000  0.5557370000000  0.3996320000000 1.0
C      1  0.4740570000000  0.6003400000000  0.5558490000000 1.0
C      1  0.4739130000000  0.4443110000000  0.6002930000000 1.0
C      1  0.4559200000000  0.4934990000000  0.5489390000000 1.0
C      1  0.4560080000000  0.5489600000000  0.5066350000000 1.0
C      1  0.4560280000000  0.5064830000000  0.4508510000000 1.0
C      1  0.4560000000000  0.4510050000000  0.4934990000000 1.0
C      1  0.5438540000000  0.4935210000000  0.4508510000000 1.0
C      1  0.5438810000000  0.5489950000000  0.4935040000000 1.0
C      1  0.5439600000000  0.5064970000000  0.5489410000000 1.0
C      1  0.5438720000000  0.4510400000000  0.5066330000000 1.0
C      1  0.4773110000000  0.5498940000000  0.5909380000000 1.0
C      1  0.4771670000000  0.5908820000000  0.4500660000000 1.0
C      1  0.4773950000000  0.4500060000000  0.4090020000000 1.0
C      1  0.4772300000000  0.4090490000000  0.5499420000000 1.0
C      1  0.5224880000000  0.5500010000000  0.4090070000000 1.0
C      1  0.5226490000000  0.5909470000000  0.5499500000000 1.0
C      1  0.5225670000000  0.4500990000000  0.5909350000000 1.0
C      1  0.5227150000000  0.4091220000000  0.4500590000000 1.0
C      1  0.4999420000000  0.5000050000000  0.3674970000000 1.0
C      1  0.5000240000000  0.3675360000000  0.5000070000000 1.0
C      1  0.4999390000000  0.4999950000000  0.6325190000000 1.0
C      1  0.4998560000000  0.6324640000000  0.5000180000000 1.0
END
