TITL C-3201375-1262-1 1.56775972393401 125000 -271.48058620518 0 0 47 (C1) n - 1
REM
REM in /home/nfs/bkarasulu/CARBON/AIRSS/Generating-Clusters/LCBOP/Higher-Symm/SD-CG/FIRE-CG
REM
REM
REM
REM
REM
REM ./C.cell (b20cbc046b6831c77cfcea5457e17084)
REM AIRSS Version 0.9.1 bugfix July 2018 build 013d7b7c2542+ Fri, 06 Jul 2018 19:26:36 +0100
REM compiler GCC version 9.2.1 20190827 (Red Hat 9.2.1-1)
REM options -cpp -mtune=generic -march=x86-64 -g -O0 -fpre-include=/usr/include/finclude/math-vector-fortran.h
REM seed 704592797 1784241932 -1512318325 -1485759406 -247288501 -1244967753 2076359321 2086515532 1938143576 -1313847583 1339724385 1297788774 1901036910 173521061 -1122103932 -131914399 1028970000 -484147408 1768401845 1215396746 -1123210396 -593021927 -364390741 509781216 1377330571 -860612116 536988933 -1053701804 -1383876967 980605532 -227675073 -1290572874 -1331047504
REM
CELL 1.54180   50.00000   50.00000   50.00000   90.00000   90.00000   90.00000
LATT -1
SFAC C  
C      1  0.4088880000000  0.5370240000000  0.5049910000000 1.0
C      1  0.4477810000000  0.4617490000000  0.4676170000000 1.0
C      1  0.4756280000000  0.4782860000000  0.5519080000000 1.0
C      1  0.4495700000000  0.6064250000000  0.4764450000000 1.0
C      1  0.4640400000000  0.5321080000000  0.4728300000000 1.0
C      1  0.5610660000000  0.4717360000000  0.4902880000000 1.0
C      1  0.5811980000000  0.4710830000000  0.4210310000000 1.0
C      1  0.6141170000000  0.4270240000000  0.5087160000000 1.0
C      1  0.4464280000000  0.5131530000000  0.4845540000000 1.0
C      1  0.5212500000000  0.5033230000000  0.6069590000000 1.0
C      1  0.4353390000000  0.6183100000000  0.4567560000000 1.0
C      1  0.5005570000000  0.4890430000000  0.5608260000000 1.0
C      1  0.4274780000000  0.5805580000000  0.4274340000000 1.0
C      1  0.4598960000000  0.4108700000000  0.4591840000000 1.0
C      1  0.4309040000000  0.5200700000000  0.5073960000000 1.0
C      1  0.5416290000000  0.4565710000000  0.5035440000000 1.0
C      1  0.5041380000000  0.4969670000000  0.5874190000000 1.0
C      1  0.5427760000000  0.5072560000000  0.5409550000000 1.0
C      1  0.4780230000000  0.4529300000000  0.5396320000000 1.0
C      1  0.4573660000000  0.5807560000000  0.4793320000000 1.0
C      1  0.5991300000000  0.4976100000000  0.5054280000000 1.0
C      1  0.5419540000000  0.5265270000000  0.5215590000000 1.0
C      1  0.5084130000000  0.4241210000000  0.5075140000000 1.0
C      1  0.5875860000000  0.4733270000000  0.5003730000000 1.0
C      1  0.4380650000000  0.5091920000000  0.5321390000000 1.0
C      1  0.4253150000000  0.6065710000000  0.4345130000000 1.0
C      1  0.5340000000000  0.5038370000000  0.4651340000000 1.0
C      1  0.5287580000000  0.5492890000000  0.4509240000000 1.0
C      1  0.5321110000000  0.4305880000000  0.4948360000000 1.0
C      1  0.5678620000000  0.4777850000000  0.4423930000000 1.0
C      1  0.5180320000000  0.5265480000000  0.4617510000000 1.0
C      1  0.4672880000000  0.3860630000000  0.4560870000000 1.0
C      1  0.4396120000000  0.5599730000000  0.4399670000000 1.0
C      1  0.5543040000000  0.4846500000000  0.4658390000000 1.0
C      1  0.5652780000000  0.5100480000000  0.5877430000000 1.0
C      1  0.3896010000000  0.5541140000000  0.5011030000000 1.0
C      1  0.5226420000000  0.4871310000000  0.5421680000000 1.0
C      1  0.5476120000000  0.5084330000000  0.6079520000000 1.0
C      1  0.5007700000000  0.4450330000000  0.5255600000000 1.0
C      1  0.4449480000000  0.4872540000000  0.4741770000000 1.0
C      1  0.4911340000000  0.5261100000000  0.4694250000000 1.0
C      1  0.5229870000000  0.4648440000000  0.5245250000000 1.0
C      1  0.6018650000000  0.4496840000000  0.5047680000000 1.0
C      1  0.4531920000000  0.4942580000000  0.5480370000000 1.0
C      1  0.4540240000000  0.5570530000000  0.4641780000000 1.0
C      1  0.4531520000000  0.4362290000000  0.4629220000000 1.0
C      1  0.5622950000000  0.5084910000000  0.5611670000000 1.0
END
