TITL C-3201378-2706-100 9412.78500488832 125000 -596.485973570488 0 0 98 (C1) n - 1
REM
REM in /home/nfs/bkarasulu/CARBON/AIRSS/Generating-Clusters/LCBOP/Higher-Symm/SD-CG/FIRE-CG
REM
REM
REM
REM
REM
REM ./C.cell (b20cbc046b6831c77cfcea5457e17084)
REM AIRSS Version 0.9.1 bugfix July 2018 build 013d7b7c2542+ Fri, 06 Jul 2018 19:26:36 +0100
REM compiler GCC version 9.2.1 20190827 (Red Hat 9.2.1-1)
REM options -cpp -mtune=generic -march=x86-64 -g -O0 -fpre-include=/usr/include/finclude/math-vector-fortran.h
REM seed 2048047549 543728758 -1763035199 582085100 1091764397 -1397625080 250598314 646600262 155856733 909843443 -43658313 -668629994 1545318879 -566570221 1967028697 1639688131 544365670 -125914895 1235272801 -547376076 1054078131 -1631338629 181047065 713098902 -1062709105 1679041120 -217860349 1220693073 -888864854 -307831534 77844382 -791301324 -2034244260
REM
CELL 1.54180   50.00000   50.00000   50.00000   90.00000   90.00000   90.00000
LATT -1
SFAC C  
C      1  0.5500970000000  0.4403270000000  0.4576410000000 1.0
C      1  0.5300170000000  0.5773020000000  0.4573380000000 1.0
C      1  0.4188810000000  0.4903160000000  0.4490450000000 1.0
C      1  0.5020410000000  0.4466920000000  0.4362760000000 1.0
C      1  0.5353600000000  0.5301420000000  0.4467810000000 1.0
C      1  0.4562420000000  0.5220170000000  0.4348570000000 1.0
C      1  0.5097980000000  0.5792410000000  0.4357000000000 1.0
C      1  0.4250640000000  0.4707020000000  0.4286580000000 1.0
C      1  0.5626950000000  0.4600270000000  0.4405960000000 1.0
C      1  0.5644760000000  0.5173950000000  0.5199910000000 1.0
C      1  0.4501870000000  0.5423100000000  0.5118850000000 1.0
C      1  0.4780720000000  0.4303600000000  0.5163520000000 1.0
C      1  0.5305850000000  0.4594370000000  0.5850440000000 1.0
C      1  0.4993010000000  0.5305140000000  0.5881710000000 1.0
C      1  0.4549190000000  0.5007920000000  0.5924740000000 1.0
C      1  0.5721740000000  0.4477310000000  0.5093480000000 1.0
C      1  0.5080150000000  0.5846980000000  0.5100330000000 1.0
C      1  0.4158540000000  0.4750290000000  0.5057790000000 1.0
C      1  0.5007030000000  0.5297640000000  0.4137550000000 1.0
C      1  0.4759260000000  0.4846080000000  0.4124240000000 1.0
C      1  0.5254710000000  0.4872220000000  0.4185240000000 1.0
C      1  0.5482360000000  0.5548760000000  0.4558290000000 1.0
C      1  0.4299440000000  0.5164710000000  0.4455420000000 1.0
C      1  0.5224610000000  0.4330750000000  0.4528270000000 1.0
C      1  0.5771600000000  0.4791280000000  0.4556020000000 1.0
C      1  0.4861560000000  0.5910820000000  0.4462790000000 1.0
C      1  0.4181020000000  0.4446720000000  0.4376780000000 1.0
C      1  0.5215690000000  0.5622470000000  0.5572790000000 1.0
C      1  0.4230700000000  0.5028420000000  0.5556040000000 1.0
C      1  0.5726020000000  0.4474580000000  0.5629340000000 1.0
C      1  0.4649980000000  0.4765760000000  0.4745820000000 1.0
C      1  0.5167650000000  0.4755280000000  0.4814020000000 1.0
C      1  0.5065080000000  0.5382510000000  0.4858800000000 1.0
C      1  0.5354670000000  0.4960960000000  0.4790040000000 1.0
C      1  0.4844710000000  0.5503730000000  0.4723960000000 1.0
C      1  0.4569380000000  0.4504320000000  0.4636960000000 1.0
C      1  0.5104090000000  0.4163050000000  0.4737660000000 1.0
C      1  0.5693440000000  0.5524260000000  0.4757090000000 1.0
C      1  0.4246610000000  0.5324200000000  0.4688880000000 1.0
C      1  0.4623150000000  0.5237280000000  0.5302100000000 1.0
C      1  0.4877300000000  0.4470450000000  0.5384810000000 1.0
C      1  0.5412000000000  0.5111740000000  0.5362250000000 1.0
C      1  0.5042500000000  0.5583980000000  0.4162450000000 1.0
C      1  0.4493220000000  0.4734630000000  0.4131460000000 1.0
C      1  0.5490690000000  0.4716520000000  0.4187480000000 1.0
C      1  0.4792620000000  0.5870420000000  0.5120340000000 1.0
C      1  0.4289760000000  0.4496870000000  0.5101480000000 1.0
C      1  0.5871230000000  0.4718670000000  0.5093700000000 1.0
C      1  0.5216680000000  0.5152810000000  0.5826360000000 1.0
C      1  0.4755030000000  0.5158890000000  0.5816920000000 1.0
C      1  0.5038260000000  0.4551240000000  0.5822280000000 1.0
C      1  0.5628720000000  0.4933510000000  0.4734230000000 1.0
C      1  0.4761320000000  0.5772210000000  0.4673480000000 1.0
C      1  0.4318650000000  0.4374680000000  0.4600580000000 1.0
C      1  0.5663440000000  0.4397820000000  0.5360660000000 1.0
C      1  0.5170000000000  0.5635420000000  0.5281350000000 1.0
C      1  0.4142270000000  0.4919100000000  0.5298290000000 1.0
C      1  0.5227030000000  0.5876390000000  0.4844620000000 1.0
C      1  0.4110300000000  0.4827600000000  0.4772580000000 1.0
C      1  0.5618850000000  0.4374270000000  0.4844090000000 1.0
C      1  0.5576850000000  0.4673620000000  0.5773960000000 1.0
C      1  0.4971080000000  0.5576120000000  0.5743410000000 1.0
C      1  0.4397060000000  0.4856680000000  0.5735350000000 1.0
C      1  0.4717880000000  0.5331150000000  0.4552570000000 1.0
C      1  0.4762290000000  0.4396800000000  0.4457360000000 1.0
C      1  0.5240480000000  0.5207090000000  0.4713840000000 1.0
C      1  0.4558850000000  0.4976420000000  0.4922020000000 1.0
C      1  0.5144200000000  0.4559460000000  0.5014520000000 1.0
C      1  0.5115460000000  0.5391200000000  0.5136270000000 1.0
C      1  0.4229920000000  0.5326740000000  0.5626430000000 1.0
C      1  0.5942290000000  0.4351230000000  0.5756880000000 1.0
C      1  0.5483790000000  0.5536780000000  0.5685240000000 1.0
C      1  0.5242040000000  0.5158950000000  0.4238610000000 1.0
C      1  0.4757140000000  0.5135810000000  0.4150440000000 1.0
C      1  0.5012190000000  0.4713110000000  0.4199270000000 1.0
C      1  0.4411870000000  0.5244170000000  0.4905110000000 1.0
C      1  0.5005670000000  0.4304890000000  0.4963790000000 1.0
C      1  0.5658350000000  0.5388310000000  0.5008290000000 1.0
C      1  0.5841170000000  0.4971680000000  0.5177900000000 1.0
C      1  0.4582240000000  0.5695520000000  0.5125100000000 1.0
C      1  0.4501550000000  0.4329150000000  0.5119390000000 1.0
C      1  0.4677380000000  0.5559320000000  0.5647110000000 1.0
C      1  0.4537750000000  0.4611490000000  0.5689170000000 1.0
C      1  0.5626840000000  0.4963450000000  0.5755150000000 1.0
C      1  0.5047890000000  0.4664300000000  0.5260430000000 1.0
C      1  0.5160180000000  0.5141040000000  0.5249580000000 1.0
C      1  0.4709610000000  0.5003920000000  0.5171220000000 1.0
C      1  0.4382630000000  0.5565220000000  0.5680960000000 1.0
C      1  0.6145210000000  0.4238570000000  0.5875400000000 1.0
C      1  0.5673510000000  0.5352690000000  0.5777130000000 1.0
C      1  0.4060880000000  0.5522610000000  0.4698250000000 1.0
C      1  0.5091640000000  0.3891210000000  0.4715000000000 1.0
C      1  0.5938590000000  0.5634900000000  0.4700820000000 1.0
C      1  0.5394160000000  0.5052210000000  0.5635900000000 1.0
C      1  0.4691030000000  0.5278880000000  0.5561910000000 1.0
C      1  0.4807760000000  0.4520570000000  0.5652480000000 1.0
C      1  0.4971580000000  0.4932280000000  0.5244970000000 1.0
C      1  0.4923390000000  0.4809760000000  0.4687320000000 1.0
END
