TITL C-3201375-1262-987 -7.53751632836356e-07 125000 -1144.83197320645 0 0 181 (C1) n - 1
REM
REM in /home/nfs/bkarasulu/CARBON/AIRSS/Generating-Clusters/LCBOP/Higher-Symm/SD-CG/FIRE-CG
REM
REM
REM
REM
REM
REM ./C.cell (b20cbc046b6831c77cfcea5457e17084)
REM AIRSS Version 0.9.1 bugfix July 2018 build 013d7b7c2542+ Fri, 06 Jul 2018 19:26:36 +0100
REM compiler GCC version 9.2.1 20190827 (Red Hat 9.2.1-1)
REM options -cpp -mtune=generic -march=x86-64 -g -O0 -fpre-include=/usr/include/finclude/math-vector-fortran.h
REM seed -1629509235 365195551 -997549202 1484533289 -1328622873 -1015319395 1344969988 -687640453 -2001137638 -237268518 -1937757421 -353816760 -2119837856 -258433314 -1606047635 1904649716 1828286401 1371075593 205728070 1991864749 -1057201121 -2018202659 75282207 1623227353 -1474848948 1260292854 1196609494 -1285378343 -1780538082 1092223843 -385080102 -438679883 127841630
REM
CELL 1.54180   50.00000   50.00000   50.00000   90.00000   90.00000   90.00000
LATT -1
SFAC C  
C      1  0.5352650000000  0.5992030000000  0.4497030000000 1.0
C      1  0.5317510000000  0.5717570000000  0.5763200000000 1.0
C      1  0.5363930000000  0.4508530000000  0.5943780000000 1.0
C      1  0.5347960000000  0.3963670000000  0.4821210000000 1.0
C      1  0.5345380000000  0.4850320000000  0.3944980000000 1.0
C      1  0.4294680000000  0.4452570000000  0.6200020000000 1.0
C      1  0.4219180000000  0.3791460000000  0.5048460000000 1.0
C      1  0.4234800000000  0.4584770000000  0.3919480000000 1.0
C      1  0.4227860000000  0.5903140000000  0.4211040000000 1.0
C      1  0.4251440000000  0.5982400000000  0.5601680000000 1.0
C      1  0.4846730000000  0.3971370000000  0.5266780000000 1.0
C      1  0.4837470000000  0.4455700000000  0.4139270000000 1.0
C      1  0.4882710000000  0.5680570000000  0.4162700000000 1.0
C      1  0.4870300000000  0.5991050000000  0.5388280000000 1.0
C      1  0.4795250000000  0.4912900000000  0.6034320000000 1.0
C      1  0.4393620000000  0.5748510000000  0.5525060000000 1.0
C      1  0.4414530000000  0.4430040000000  0.5943370000000 1.0
C      1  0.4377050000000  0.3999450000000  0.4939650000000 1.0
C      1  0.4381790000000  0.4745670000000  0.4102430000000 1.0
C      1  0.4398620000000  0.5867780000000  0.4432050000000 1.0
C      1  0.5086340000000  0.3848730000000  0.4854230000000 1.0
C      1  0.5070450000000  0.4795970000000  0.3876310000000 1.0
C      1  0.5090520000000  0.6065120000000  0.4391140000000 1.0
C      1  0.5045930000000  0.5805890000000  0.5802120000000 1.0
C      1  0.5100530000000  0.4490990000000  0.6049650000000 1.0
C      1  0.5041740000000  0.4494530000000  0.4826210000000 1.0
C      1  0.5081040000000  0.5045640000000  0.4452120000000 1.0
C      1  0.5126330000000  0.5583450000000  0.4842190000000 1.0
C      1  0.5046460000000  0.5313540000000  0.5454900000000 1.0
C      1  0.5018790000000  0.4654750000000  0.5448360000000 1.0
C      1  0.5453050000000  0.4885850000000  0.5245280000000 1.0
C      1  0.5462720000000  0.4757190000000  0.4988600000000 1.0
C      1  0.5482270000000  0.4959980000000  0.4784860000000 1.0
C      1  0.5496970000000  0.5215370000000  0.4917760000000 1.0
C      1  0.5477640000000  0.5168310000000  0.5200680000000 1.0
C      1  0.3770130000000  0.4629560000000  0.4897710000000 1.0
C      1  0.3817580000000  0.5048580000000  0.4566690000000 1.0
C      1  0.3851780000000  0.5510160000000  0.4870680000000 1.0
C      1  0.3899380000000  0.5322030000000  0.5390260000000 1.0
C      1  0.3786790000000  0.4797990000000  0.5402930000000 1.0
C      1  0.4462630000000  0.4447530000000  0.4564440000000 1.0
C      1  0.4493660000000  0.5344610000000  0.4437030000000 1.0
C      1  0.4537790000000  0.5797850000000  0.4994700000000 1.0
C      1  0.4237260000000  0.4874740000000  0.5831800000000 1.0
C      1  0.4423320000000  0.4341320000000  0.5340310000000 1.0
C      1  0.5424590000000  0.5456460000000  0.5837710000000 1.0
C      1  0.5457400000000  0.4359930000000  0.5710510000000 1.0
C      1  0.5444540000000  0.4137820000000  0.4606630000000 1.0
C      1  0.5457410000000  0.5107650000000  0.4023090000000 1.0
C      1  0.5458540000000  0.5997140000000  0.4774010000000 1.0
C      1  0.5811400000000  0.5372660000000  0.4293820000000 1.0
C      1  0.5791310000000  0.5784110000000  0.5121910000000 1.0
C      1  0.5812950000000  0.5119010000000  0.5777750000000 1.0
C      1  0.5820880000000  0.4307180000000  0.5346730000000 1.0
C      1  0.5814840000000  0.4461070000000  0.4437170000000 1.0
C      1  0.5053900000000  0.4460250000000  0.4550440000000 1.0
C      1  0.5097990000000  0.5290910000000  0.4316830000000 1.0
C      1  0.5115750000000  0.5777890000000  0.5044200000000 1.0
C      1  0.5017030000000  0.5184540000000  0.5704360000000 1.0
C      1  0.5043840000000  0.4378440000000  0.5407360000000 1.0
C      1  0.4493900000000  0.5728080000000  0.3854130000000 1.0
C      1  0.4522630000000  0.6335740000000  0.5415140000000 1.0
C      1  0.4483570000000  0.4849980000000  0.6408650000000 1.0
C      1  0.4494170000000  0.3652770000000  0.5414820000000 1.0
C      1  0.4488610000000  0.4176020000000  0.3936070000000 1.0
C      1  0.5254560000000  0.4253070000000  0.5545800000000 1.0
C      1  0.5244570000000  0.4273440000000  0.4460580000000 1.0
C      1  0.5266670000000  0.5300360000000  0.4092690000000 1.0
C      1  0.5266890000000  0.6007250000000  0.4983270000000 1.0
C      1  0.5224400000000  0.5259280000000  0.5886190000000 1.0
C      1  0.3621640000000  0.4948990000000  0.5233900000000 1.0
C      1  0.3608530000000  0.4853240000000  0.4958890000000 1.0
C      1  0.3636270000000  0.5083080000000  0.4782000000000 1.0
C      1  0.3659280000000  0.5321640000000  0.4951260000000 1.0
C      1  0.3678500000000  0.5235480000000  0.5231180000000 1.0
C      1  0.6173230000000  0.5498900000000  0.4920970000000 1.0
C      1  0.6176970000000  0.5235030000000  0.5434230000000 1.0
C      1  0.6191210000000  0.4664220000000  0.5342840000000 1.0
C      1  0.6189110000000  0.4576650000000  0.4771940000000 1.0
C      1  0.6184370000000  0.5091380000000  0.4510260000000 1.0
C      1  0.4339110000000  0.5055600000000  0.6004780000000 1.0
C      1  0.4471720000000  0.4121300000000  0.5510090000000 1.0
C      1  0.4539940000000  0.4215740000000  0.4417860000000 1.0
C      1  0.4535160000000  0.5355900000000  0.4158430000000 1.0
C      1  0.4599850000000  0.6076250000000  0.5012540000000 1.0
C      1  0.4318910000000  0.4977830000000  0.4745970000000 1.0
C      1  0.4253400000000  0.5207050000000  0.4944010000000 1.0
C      1  0.4378200000000  0.5151120000000  0.5226330000000 1.0
C      1  0.4335690000000  0.4829350000000  0.5253920000000 1.0
C      1  0.4324920000000  0.4726880000000  0.4942300000000 1.0
C      1  0.4458660000000  0.5609260000000  0.4554220000000 1.0
C      1  0.4418370000000  0.5704240000000  0.5240610000000 1.0
C      1  0.4353930000000  0.4630690000000  0.5742970000000 1.0
C      1  0.4382890000000  0.4265970000000  0.5056960000000 1.0
C      1  0.4379910000000  0.4655470000000  0.4377300000000 1.0
C      1  0.4280550000000  0.5865300000000  0.3948700000000 1.0
C      1  0.4315820000000  0.6241860000000  0.5562140000000 1.0
C      1  0.4347570000000  0.4615690000000  0.6408860000000 1.0
C      1  0.4286700000000  0.3617090000000  0.5244100000000 1.0
C      1  0.4292000000000  0.4333530000000  0.3837240000000 1.0
C      1  0.6323790000000  0.5126770000000  0.5217730000000 1.0
C      1  0.6330210000000  0.4839670000000  0.5169740000000 1.0
C      1  0.6330340000000  0.4796090000000  0.4882170000000 1.0
C      1  0.6326430000000  0.5056440000000  0.4752500000000 1.0
C      1  0.6321450000000  0.5260760000000  0.4959850000000 1.0
C      1  0.5709200000000  0.4158300000000  0.5118340000000 1.0
C      1  0.5706470000000  0.4629440000000  0.4220850000000 1.0
C      1  0.5700810000000  0.5632630000000  0.4388350000000 1.0
C      1  0.5673380000000  0.5758270000000  0.5397710000000 1.0
C      1  0.5712290000000  0.4854270000000  0.5851690000000 1.0
C      1  0.5705730000000  0.5855320000000  0.4848910000000 1.0
C      1  0.5690820000000  0.5378260000000  0.5744150000000 1.0
C      1  0.5716360000000  0.4416360000000  0.5592850000000 1.0
C      1  0.5707920000000  0.4263570000000  0.4620310000000 1.0
C      1  0.5714510000000  0.5134510000000  0.4155980000000 1.0
C      1  0.4834550000000  0.4956870000000  0.3886660000000 1.0
C      1  0.4849700000000  0.6155720000000  0.4514140000000 1.0
C      1  0.4807670000000  0.5656550000000  0.5852820000000 1.0
C      1  0.4915800000000  0.4286100000000  0.5995980000000 1.0
C      1  0.4849340000000  0.3869740000000  0.4699640000000 1.0
C      1  0.5319480000000  0.4945670000000  0.4560240000000 1.0
C      1  0.5355810000000  0.5430010000000  0.4813990000000 1.0
C      1  0.5307130000000  0.5324970000000  0.5351770000000 1.0
C      1  0.5258850000000  0.4797080000000  0.5423690000000 1.0
C      1  0.5286590000000  0.4548380000000  0.4947660000000 1.0
C      1  0.6075950000000  0.4774030000000  0.5573720000000 1.0
C      1  0.6074400000000  0.4392070000000  0.4949100000000 1.0
C      1  0.6072680000000  0.4863790000000  0.4389700000000 1.0
C      1  0.6062460000000  0.5542320000000  0.4667080000000 1.0
C      1  0.6048830000000  0.5481810000000  0.5396180000000 1.0
C      1  0.4814810000000  0.4420500000000  0.4973740000000 1.0
C      1  0.4837210000000  0.4894530000000  0.4467770000000 1.0
C      1  0.4908420000000  0.5585890000000  0.4667520000000 1.0
C      1  0.4848810000000  0.5449780000000  0.5302040000000 1.0
C      1  0.4778650000000  0.4770910000000  0.5545730000000 1.0
C      1  0.4959910000000  0.5522520000000  0.4391350000000 1.0
C      1  0.4929470000000  0.5737180000000  0.5255110000000 1.0
C      1  0.4831780000000  0.4972640000000  0.5754640000000 1.0
C      1  0.4884240000000  0.4253460000000  0.5210360000000 1.0
C      1  0.4885130000000  0.4612930000000  0.4381050000000 1.0
C      1  0.4037240000000  0.4600140000000  0.4899350000000 1.0
C      1  0.4080950000000  0.4987130000000  0.4557940000000 1.0
C      1  0.4111410000000  0.5439800000000  0.4876240000000 1.0
C      1  0.4168450000000  0.5281570000000  0.5406080000000 1.0
C      1  0.4050950000000  0.4777130000000  0.5367300000000 1.0
C      1  0.5500400000000  0.5816310000000  0.4322830000000 1.0
C      1  0.5461010000000  0.5854210000000  0.5553810000000 1.0
C      1  0.5508650000000  0.4745050000000  0.6006610000000 1.0
C      1  0.5500350000000  0.3981860000000  0.5063310000000 1.0
C      1  0.5495810000000  0.4625040000000  0.4037360000000 1.0
C      1  0.4993140000000  0.4523640000000  0.3915680000000 1.0
C      1  0.5020310000000  0.5925510000000  0.4147880000000 1.0
C      1  0.4982530000000  0.6032400000000  0.5641840000000 1.0
C      1  0.4981100000000  0.4730990000000  0.6142710000000 1.0
C      1  0.5016130000000  0.3796840000000  0.5126640000000 1.0
C      1  0.4497190000000  0.4646590000000  0.5460000000000 1.0
C      1  0.4514800000000  0.4477090000000  0.4875260000000 1.0
C      1  0.4597230000000  0.5076810000000  0.4623410000000 1.0
C      1  0.4642440000000  0.5651450000000  0.4768500000000 1.0
C      1  0.4666010000000  0.5260340000000  0.5166090000000 1.0
C      1  0.4696050000000  0.6176820000000  0.5258970000000 1.0
C      1  0.4557880000000  0.4989160000000  0.6172880000000 1.0
C      1  0.4631300000000  0.3898610000000  0.5437760000000 1.0
C      1  0.4651370000000  0.4239860000000  0.4157740000000 1.0
C      1  0.4661460000000  0.5572130000000  0.4018670000000 1.0
C      1  0.4569560000000  0.5638890000000  0.5722030000000 1.0
C      1  0.4654160000000  0.4281220000000  0.5938080000000 1.0
C      1  0.4590460000000  0.3915790000000  0.4767030000000 1.0
C      1  0.4584830000000  0.4910020000000  0.3985410000000 1.0
C      1  0.4589600000000  0.6077400000000  0.4489470000000 1.0
C      1  0.5850270000000  0.4649630000000  0.5694560000000 1.0
C      1  0.5844840000000  0.4241650000000  0.4872700000000 1.0
C      1  0.5846270000000  0.4887280000000  0.4219210000000 1.0
C      1  0.5836790000000  0.5711980000000  0.4635890000000 1.0
C      1  0.5816350000000  0.5548650000000  0.5545730000000 1.0
C      1  0.6065630000000  0.4435160000000  0.5234320000000 1.0
C      1  0.6061260000000  0.4607330000000  0.4521790000000 1.0
C      1  0.6054790000000  0.5338170000000  0.4463220000000 1.0
C      1  0.6039020000000  0.5616280000000  0.5141100000000 1.0
C      1  0.6058970000000  0.5058680000000  0.5620680000000 1.0
C      1  0.4741530000000  0.5167320000000  0.4896960000000 1.0
END
