TITL C-3201375-1262-634 0.427021059548845 125000 -763.116401955077 0 0 126 (C1) n - 1
REM
REM in /home/nfs/bkarasulu/CARBON/AIRSS/Generating-Clusters/LCBOP/Higher-Symm/SD-CG/FIRE-CG
REM
REM
REM
REM
REM
REM ./C.cell (b20cbc046b6831c77cfcea5457e17084)
REM AIRSS Version 0.9.1 bugfix July 2018 build 013d7b7c2542+ Fri, 06 Jul 2018 19:26:36 +0100
REM compiler GCC version 9.2.1 20190827 (Red Hat 9.2.1-1)
REM options -cpp -mtune=generic -march=x86-64 -g -O0 -fpre-include=/usr/include/finclude/math-vector-fortran.h
REM seed 2132395232 677428541 206274890 -1099075344 -983399664 -1184503803 1814031281 -2146640761 -371967058 -403739452 611933412 443324997 328445388 -1237556165 -1672394552 -228801827 1781346131 1670976632 -1873760561 -239027659 -1536186183 1576228820 2084652773 -1957424826 1771065948 -1310433222 -621965092 -1177008983 2126686937 -591318575 1372263238 -1850388841 2138742190
REM
CELL 1.54180   50.00000   50.00000   50.00000   90.00000   90.00000   90.00000
LATT -1
SFAC C  
C      1  0.4192430000000  0.4911960000000  0.4655830000000 1.0
C      1  0.5136410000000  0.4684500000000  0.4058690000000 1.0
C      1  0.5684000000000  0.4520270000000  0.4348080000000 1.0
C      1  0.5899550000000  0.4643390000000  0.5235450000000 1.0
C      1  0.4394840000000  0.4643640000000  0.5757080000000 1.0
C      1  0.4689660000000  0.6096720000000  0.4917710000000 1.0
C      1  0.4900440000000  0.6128000000000  0.4721880000000 1.0
C      1  0.5152200000000  0.6148880000000  0.4863580000000 1.0
C      1  0.5097520000000  0.6129300000000  0.5146730000000 1.0
C      1  0.4813820000000  0.6082970000000  0.5178160000000 1.0
C      1  0.4809120000000  0.4292960000000  0.4781220000000 1.0
C      1  0.5006000000000  0.4053510000000  0.4773540000000 1.0
C      1  0.5105360000000  0.4022440000000  0.5061940000000 1.0
C      1  0.4924200000000  0.4186840000000  0.5222200000000 1.0
C      1  0.4716510000000  0.4316910000000  0.5053620000000 1.0
C      1  0.5640950000000  0.4898050000000  0.4808750000000 1.0
C      1  0.5448150000000  0.4883430000000  0.5559780000000 1.0
C      1  0.4830950000000  0.5011170000000  0.5608310000000 1.0
C      1  0.4507620000000  0.5191770000000  0.5057130000000 1.0
C      1  0.5060850000000  0.5090160000000  0.4467990000000 1.0
C      1  0.5436410000000  0.5147530000000  0.5519380000000 1.0
C      1  0.4853470000000  0.5284980000000  0.5532850000000 1.0
C      1  0.4693920000000  0.5387280000000  0.4982180000000 1.0
C      1  0.5136590000000  0.5302130000000  0.4614310000000 1.0
C      1  0.5603340000000  0.5136210000000  0.4927670000000 1.0
C      1  0.4809140000000  0.5381330000000  0.3443410000000 1.0
C      1  0.6411970000000  0.5512960000000  0.4394740000000 1.0
C      1  0.6050760000000  0.5642950000000  0.6191050000000 1.0
C      1  0.4183100000000  0.5244240000000  0.6184930000000 1.0
C      1  0.3388320000000  0.5501370000000  0.4866680000000 1.0
C      1  0.5926850000000  0.4089650000000  0.5378700000000 1.0
C      1  0.4924060000000  0.4213070000000  0.5502870000000 1.0
C      1  0.4435690000000  0.4368000000000  0.5097520000000 1.0
C      1  0.4683050000000  0.4370080000000  0.4537220000000 1.0
C      1  0.5240760000000  0.4058270000000  0.4579520000000 1.0
C      1  0.5893160000000  0.5656660000000  0.4472870000000 1.0
C      1  0.5769190000000  0.5730920000000  0.5734010000000 1.0
C      1  0.4618120000000  0.5447600000000  0.5931580000000 1.0
C      1  0.3929480000000  0.5501180000000  0.4917210000000 1.0
C      1  0.4745520000000  0.5552480000000  0.3955860000000 1.0
C      1  0.5485110000000  0.4184540000000  0.4631810000000 1.0
C      1  0.5762160000000  0.4278210000000  0.5510330000000 1.0
C      1  0.4667640000000  0.4269880000000  0.5608210000000 1.0
C      1  0.4267480000000  0.4525560000000  0.4932440000000 1.0
C      1  0.4853360000000  0.4384470000000  0.4309820000000 1.0
C      1  0.5612850000000  0.3910860000000  0.5038510000000 1.0
C      1  0.5361990000000  0.4016920000000  0.5653250000000 1.0
C      1  0.4431810000000  0.3929590000000  0.5314880000000 1.0
C      1  0.4223570000000  0.4168740000000  0.4611900000000 1.0
C      1  0.4886900000000  0.3872500000000  0.4346950000000 1.0
C      1  0.4853390000000  0.5532240000000  0.6060660000000 1.0
C      1  0.4058750000000  0.5359560000000  0.5121850000000 1.0
C      1  0.4513380000000  0.5491940000000  0.4100120000000 1.0
C      1  0.5696190000000  0.5596060000000  0.4283410000000 1.0
C      1  0.5884220000000  0.5687250000000  0.5482520000000 1.0
C      1  0.4874720000000  0.6078640000000  0.4450610000000 1.0
C      1  0.5404350000000  0.6126330000000  0.4751590000000 1.0
C      1  0.5281050000000  0.6111120000000  0.5353200000000 1.0
C      1  0.4703920000000  0.5958880000000  0.5399650000000 1.0
C      1  0.4423800000000  0.6039570000000  0.4865600000000 1.0
C      1  0.5917790000000  0.5686830000000  0.5966150000000 1.0
C      1  0.4394720000000  0.5353560000000  0.6068960000000 1.0
C      1  0.3651850000000  0.5500610000000  0.4893950000000 1.0
C      1  0.4773230000000  0.5466300000000  0.3691770000000 1.0
C      1  0.6158710000000  0.5583270000000  0.4428010000000 1.0
C      1  0.5180560000000  0.3872950000000  0.4369100000000 1.0
C      1  0.5842580000000  0.3903790000000  0.5202880000000 1.0
C      1  0.5120130000000  0.4148290000000  0.5687470000000 1.0
C      1  0.4291530000000  0.4157410000000  0.5218860000000 1.0
C      1  0.4419030000000  0.4308240000000  0.4466030000000 1.0
C      1  0.3974960000000  0.5131000000000  0.6293630000000 1.0
C      1  0.3129060000000  0.5502400000000  0.4839420000000 1.0
C      1  0.4845870000000  0.5297320000000  0.3199370000000 1.0
C      1  0.6661390000000  0.5443880000000  0.4363450000000 1.0
C      1  0.6180220000000  0.5599650000000  0.6413150000000 1.0
C      1  0.5007130000000  0.4745590000000  0.4789070000000 1.0
C      1  0.5252340000000  0.4650890000000  0.4915980000000 1.0
C      1  0.5222290000000  0.4644950000000  0.5206800000000 1.0
C      1  0.4938230000000  0.4718910000000  0.5256090000000 1.0
C      1  0.4812980000000  0.4803550000000  0.5000400000000 1.0
C      1  0.4090970000000  0.5646330000000  0.4733270000000 1.0
C      1  0.4951980000000  0.5704140000000  0.4078900000000 1.0
C      1  0.5821100000000  0.5795920000000  0.4709940000000 1.0
C      1  0.5500660000000  0.5823430000000  0.5750920000000 1.0
C      1  0.4624070000000  0.5461950000000  0.5631330000000 1.0
C      1  0.4515680000000  0.4023570000000  0.5576840000000 1.0
C      1  0.4091120000000  0.4355650000000  0.4781180000000 1.0
C      1  0.4836860000000  0.4118010000000  0.4194500000000 1.0
C      1  0.5652390000000  0.4026000000000  0.4787990000000 1.0
C      1  0.5594190000000  0.4165660000000  0.5705270000000 1.0
C      1  0.5443250000000  0.4656770000000  0.5390970000000 1.0
C      1  0.4801440000000  0.4749120000000  0.5505100000000 1.0
C      1  0.4554480000000  0.4922700000000  0.4975780000000 1.0
C      1  0.5008230000000  0.4815310000000  0.4511340000000 1.0
C      1  0.5495310000000  0.4658570000000  0.4772210000000 1.0
C      1  0.4540010000000  0.3775160000000  0.5094160000000 1.0
C      1  0.4308850000000  0.3907980000000  0.4686610000000 1.0
C      1  0.4800150000000  0.3845620000000  0.4640840000000 1.0
C      1  0.5349960000000  0.3899880000000  0.5159280000000 1.0
C      1  0.5358560000000  0.3834620000000  0.5436670000000 1.0
C      1  0.5555100000000  0.4455590000000  0.4581080000000 1.0
C      1  0.5696170000000  0.4520410000000  0.5374730000000 1.0
C      1  0.4619150000000  0.4553780000000  0.5626320000000 1.0
C      1  0.4333840000000  0.4787980000000  0.4855310000000 1.0
C      1  0.5001370000000  0.4626680000000  0.4290340000000 1.0
C      1  0.5921810000000  0.5720330000000  0.4959810000000 1.0
C      1  0.5324420000000  0.5721670000000  0.5943220000000 1.0
C      1  0.4378910000000  0.5348290000000  0.5496080000000 1.0
C      1  0.4158350000000  0.5539720000000  0.4483440000000 1.0
C      1  0.5219340000000  0.5622360000000  0.4066780000000 1.0
C      1  0.5102190000000  0.5626110000000  0.6053120000000 1.0
C      1  0.4301080000000  0.5277640000000  0.5234260000000 1.0
C      1  0.4311910000000  0.5489430000000  0.4272780000000 1.0
C      1  0.5471460000000  0.5588550000000  0.4142560000000 1.0
C      1  0.5937210000000  0.5686150000000  0.5222540000000 1.0
C      1  0.5320210000000  0.5302660000000  0.5319480000000 1.0
C      1  0.5037810000000  0.5371120000000  0.5332820000000 1.0
C      1  0.4957200000000  0.5428990000000  0.5058530000000 1.0
C      1  0.5178110000000  0.5383220000000  0.4878860000000 1.0
C      1  0.5405470000000  0.5299600000000  0.5040200000000 1.0
C      1  0.4657650000000  0.5744900000000  0.5548250000000 1.0
C      1  0.4215310000000  0.5884150000000  0.4813010000000 1.0
C      1  0.4888130000000  0.5929760000000  0.4231600000000 1.0
C      1  0.5632530000000  0.6002290000000  0.4698390000000 1.0
C      1  0.5407150000000  0.6007930000000  0.5562340000000 1.0
C      1  0.4552980000000  0.3805730000000  0.4801810000000 1.0
END
