TITL C-3201373-1215-164 -4.68363364347719e-07 125000 -130.750027236056 0 0 23 (D3h) n - 1
REM
REM in /home/nfs/bkarasulu/CARBON/AIRSS/Generating-Clusters/LCBOP/Higher-Symm/SD-CG/FIRE-CG
REM
REM
REM
REM
REM
REM ./C.cell (b20cbc046b6831c77cfcea5457e17084)
REM AIRSS Version 0.9.1 bugfix July 2018 build 013d7b7c2542+ Fri, 06 Jul 2018 19:26:36 +0100
REM compiler GCC version 9.2.1 20190827 (Red Hat 9.2.1-1)
REM options -cpp -mtune=generic -march=x86-64 -g -O0 -fpre-include=/usr/include/finclude/math-vector-fortran.h
REM seed -1500691728 1132457484 126108713 -632325907 1888324466 1288520190 -1759798820 -1888577806 1113146407 -42466482 -2018218455 1688421297 1941923665 1442710667 -23184851 1753209975 1173655796 -543697313 -484032486 -779077973 -788846489 316618148 535979224 1892932250 -249646412 -1309273499 -398470730 -352445605 -2019796046 1982286200 -1762525519 1615036630 1768563473
REM
CELL 1.54180   50.00000   50.00000   50.00000   90.00000   90.00000   90.00000
LATT -1
SFAC C  
C      1  0.5267460000000  0.5643790000000  0.4901790000000 1.0
C      1  0.4799110000000  0.5644120000000  0.4810900000000 1.0
C      1  0.4954570000000  0.5644010000000  0.5261940000000 1.0
C      1  0.4953700000000  0.4390290000000  0.5261920000000 1.0
C      1  0.5266580000000  0.4390080000000  0.4901770000000 1.0
C      1  0.4798240000000  0.4390410000000  0.4810880000000 1.0
C      1  0.5059550000000  0.4483270000000  0.4716840000000 1.0
C      1  0.4741700000000  0.4483490000000  0.5082700000000 1.0
C      1  0.5217470000000  0.4483150000000  0.5175030000000 1.0
C      1  0.4742450000000  0.5551110000000  0.5082720000000 1.0
C      1  0.5218210000000  0.5550780000000  0.5175050000000 1.0
C      1  0.5060290000000  0.5550900000000  0.4716860000000 1.0
C      1  0.5230270000000  0.5260390000000  0.5185700000000 1.0
C      1  0.5063180000000  0.5260520000000  0.4700910000000 1.0
C      1  0.4726890000000  0.5260750000000  0.5088010000000 1.0
C      1  0.4726550000000  0.4773870000000  0.5088000000000 1.0
C      1  0.5229940000000  0.4773520000000  0.5185690000000 1.0
C      1  0.5062840000000  0.4773650000000  0.4700900000000 1.0
C      1  0.5092440000000  0.5017060000000  0.4549280000000 1.0
C      1  0.5346710000000  0.5016870000000  0.5286990000000 1.0
C      1  0.4580690000000  0.5017410000000  0.5138340000000 1.0
C      1  0.5006720000000  0.5167370000000  0.4991540000000 1.0
C      1  0.5006510000000  0.4866860000000  0.4991530000000 1.0
END
