TITL C-3201373-1215-1373 2.4636027521821 125000 -329.733780614867 0 0 55 (C1) n - 1
REM
REM in /home/nfs/bkarasulu/CARBON/AIRSS/Generating-Clusters/LCBOP/Higher-Symm/SD-CG/FIRE-CG
REM
REM
REM
REM
REM
REM ./C.cell (b20cbc046b6831c77cfcea5457e17084)
REM AIRSS Version 0.9.1 bugfix July 2018 build 013d7b7c2542+ Fri, 06 Jul 2018 19:26:36 +0100
REM compiler GCC version 9.2.1 20190827 (Red Hat 9.2.1-1)
REM options -cpp -mtune=generic -march=x86-64 -g -O0 -fpre-include=/usr/include/finclude/math-vector-fortran.h
REM seed 881263078 452740801 1216463750 -71207774 -337869500 -216830829 -1557468323 1536461733 657066521 1046112819 -12481943 1763089110 453504692 -28760761 985017571 433951239 2068934072 -1408810909 623930253 2064423698 -1165338924 1989441287 1172400070 -1951504795 909422645 -1038884569 801252240 -410018297 -1729696241 1146193658 -283982156 -2107659143 -1121958892
REM
CELL 1.54180   50.00000   50.00000   50.00000   90.00000   90.00000   90.00000
LATT -1
SFAC C  
C      1  0.3560300000000  0.5724000000000  0.5459230000000 1.0
C      1  0.3801800000000  0.5529710000000  0.5076700000000 1.0
C      1  0.6072080000000  0.4552880000000  0.4412540000000 1.0
C      1  0.4570010000000  0.4980790000000  0.4989640000000 1.0
C      1  0.3569160000000  0.5524770000000  0.5660580000000 1.0
C      1  0.3876820000000  0.5267360000000  0.5153000000000 1.0
C      1  0.5194180000000  0.5391660000000  0.4897750000000 1.0
C      1  0.5869690000000  0.5200490000000  0.4684760000000 1.0
C      1  0.5534420000000  0.5806070000000  0.4233670000000 1.0
C      1  0.5604980000000  0.5902340000000  0.4948080000000 1.0
C      1  0.5633690000000  0.4156820000000  0.4840360000000 1.0
C      1  0.4967680000000  0.4339210000000  0.5057460000000 1.0
C      1  0.4946800000000  0.4899100000000  0.4456670000000 1.0
C      1  0.5503390000000  0.4778710000000  0.4244390000000 1.0
C      1  0.5809360000000  0.4837670000000  0.5094700000000 1.0
C      1  0.5261990000000  0.4962080000000  0.5337530000000 1.0
C      1  0.4720900000000  0.4460910000000  0.4992220000000 1.0
C      1  0.5824500000000  0.4150990000000  0.4631830000000 1.0
C      1  0.5486350000000  0.5109540000000  0.5318260000000 1.0
C      1  0.5686770000000  0.5091810000000  0.5120980000000 1.0
C      1  0.5127310000000  0.4491560000000  0.5242890000000 1.0
C      1  0.5690830000000  0.4348930000000  0.5048380000000 1.0
C      1  0.4156410000000  0.5469510000000  0.6038780000000 1.0
C      1  0.4476800000000  0.5161430000000  0.5434240000000 1.0
C      1  0.4392360000000  0.5101370000000  0.5173920000000 1.0
C      1  0.3903620000000  0.5553010000000  0.6049750000000 1.0
C      1  0.5162620000000  0.4804740000000  0.4609490000000 1.0
C      1  0.5413890000000  0.4735790000000  0.4507350000000 1.0
C      1  0.5156540000000  0.4764890000000  0.5168300000000 1.0
C      1  0.5726870000000  0.4613060000000  0.4948740000000 1.0
C      1  0.5537430000000  0.5710560000000  0.4765050000000 1.0
C      1  0.5535260000000  0.5767940000000  0.4491470000000 1.0
C      1  0.3712840000000  0.5151990000000  0.5353270000000 1.0
C      1  0.3579490000000  0.5258850000000  0.5561900000000 1.0
C      1  0.5140650000000  0.4814990000000  0.4891100000000 1.0
C      1  0.5605410000000  0.4661960000000  0.4699320000000 1.0
C      1  0.4727810000000  0.5144670000000  0.4815410000000 1.0
C      1  0.5980820000000  0.4812030000000  0.4343800000000 1.0
C      1  0.5999410000000  0.5035920000000  0.4516420000000 1.0
C      1  0.4936220000000  0.5316850000000  0.4901540000000 1.0
C      1  0.4355520000000  0.5359130000000  0.5901020000000 1.0
C      1  0.4464350000000  0.5250370000000  0.5684210000000 1.0
C      1  0.3675180000000  0.5577740000000  0.5913900000000 1.0
C      1  0.4129560000000  0.5163210000000  0.5099620000000 1.0
C      1  0.5680330000000  0.5258160000000  0.4888000000000 1.0
C      1  0.5468000000000  0.5447980000000  0.4851590000000 1.0
C      1  0.4748030000000  0.5057840000000  0.4546270000000 1.0
C      1  0.5758970000000  0.4817540000000  0.4166050000000 1.0
C      1  0.4594700000000  0.4698150000000  0.4980240000000 1.0
C      1  0.5995090000000  0.4309030000000  0.4496170000000 1.0
C      1  0.5583670000000  0.4311300000000  0.5305940000000 1.0
C      1  0.5333760000000  0.4368840000000  0.5389760000000 1.0
C      1  0.5361010000000  0.4079910000000  0.4824150000000 1.0
C      1  0.5112480000000  0.4149950000000  0.4903800000000 1.0
C      1  0.3666420000000  0.5721060000000  0.5210770000000 1.0
END
