TITL C-3201375-1262-559 142383.689950212 125000 -588.014465034205 0 0 104 (C1) n - 1
REM
REM in /home/nfs/bkarasulu/CARBON/AIRSS/Generating-Clusters/LCBOP/Higher-Symm/SD-CG/FIRE-CG
REM
REM
REM
REM
REM
REM ./C.cell (b20cbc046b6831c77cfcea5457e17084)
REM AIRSS Version 0.9.1 bugfix July 2018 build 013d7b7c2542+ Fri, 06 Jul 2018 19:26:36 +0100
REM compiler GCC version 9.2.1 20190827 (Red Hat 9.2.1-1)
REM options -cpp -mtune=generic -march=x86-64 -g -O0 -fpre-include=/usr/include/finclude/math-vector-fortran.h
REM seed -198190582 -1417168283 1497582517 854747378 2125168907 -738588213 -24568045 1701055548 766603976 1843554256 -1629144843 117129706 -339681368 1865108757 -1544096072 -1601673668 -1878573978 97961779 -1961361264 -753688758 -107940510 461800337 1401572287 741040519 -1943745497 -482297365 -340601230 -395004173 1509117073 -1035325381 1886637274 -1119361104 -938905198
REM
CELL 1.54180   50.00000   50.00000   50.00000   90.00000   90.00000   90.00000
LATT -1
SFAC C  
C      1  0.4566170000000  0.5226090000000  0.5066560000000 1.0
C      1  0.5381610000000  0.5272100000000  0.4953340000000 1.0
C      1  0.4635490000000  0.5135020000000  0.4773470000000 1.0
C      1  0.5401100000000  0.5021040000000  0.4754510000000 1.0
C      1  0.4783820000000  0.4862370000000  0.4782110000000 1.0
C      1  0.5407670000000  0.4731630000000  0.4932060000000 1.0
C      1  0.4650990000000  0.4731630000000  0.5040260000000 1.0
C      1  0.5380620000000  0.4834310000000  0.5234010000000 1.0
C      1  0.4562580000000  0.4958730000000  0.5234280000000 1.0
C      1  0.5329020000000  0.5130200000000  0.5217160000000 1.0
C      1  0.4561180000000  0.4588310000000  0.5567120000000 1.0
C      1  0.5450770000000  0.5013280000000  0.5873340000000 1.0
C      1  0.4509710000000  0.5532750000000  0.6151950000000 1.0
C      1  0.5482150000000  0.5779400000000  0.5259740000000 1.0
C      1  0.4637640000000  0.5638400000000  0.4886080000000 1.0
C      1  0.5357230000000  0.5415370000000  0.4431740000000 1.0
C      1  0.4556680000000  0.4911900000000  0.4192070000000 1.0
C      1  0.5444210000000  0.4610510000000  0.4389010000000 1.0
C      1  0.4667470000000  0.4373060000000  0.4718740000000 1.0
C      1  0.5379260000000  0.4329480000000  0.5230190000000 1.0
C      1  0.5157990000000  0.4675840000000  0.4034860000000 1.0
C      1  0.4917560000000  0.4179800000000  0.4409920000000 1.0
C      1  0.5123040000000  0.4000560000000  0.5038950000000 1.0
C      1  0.4834140000000  0.4228790000000  0.5594620000000 1.0
C      1  0.5082790000000  0.4735450000000  0.5945410000000 1.0
C      1  0.4851940000000  0.5352770000000  0.5857660000000 1.0
C      1  0.5105640000000  0.5788080000000  0.5548550000000 1.0
C      1  0.4871920000000  0.6001450000000  0.4990630000000 1.0
C      1  0.5077820000000  0.5770010000000  0.4397020000000 1.0
C      1  0.4843710000000  0.5254160000000  0.4054600000000 1.0
C      1  0.4263380000000  0.4576840000000  0.4466740000000 1.0
C      1  0.5744630000000  0.4343280000000  0.4846120000000 1.0
C      1  0.4294120000000  0.4395010000000  0.5092200000000 1.0
C      1  0.5670180000000  0.4606020000000  0.5585180000000 1.0
C      1  0.4287080000000  0.5027010000000  0.5653520000000 1.0
C      1  0.5731700000000  0.5327650000000  0.5580570000000 1.0
C      1  0.4242610000000  0.5629690000000  0.5169820000000 1.0
C      1  0.5707820000000  0.5650550000000  0.4764490000000 1.0
C      1  0.4248810000000  0.5231560000000  0.4469200000000 1.0
C      1  0.5705970000000  0.5063230000000  0.4329260000000 1.0
C      1  0.5695890000000  0.4620640000000  0.4865420000000 1.0
C      1  0.4377440000000  0.4625340000000  0.4942320000000 1.0
C      1  0.5639960000000  0.4825630000000  0.5405190000000 1.0
C      1  0.4285750000000  0.4983790000000  0.5373200000000 1.0
C      1  0.5759050000000  0.5080410000000  0.5471660000000 1.0
C      1  0.4288190000000  0.5354840000000  0.5114360000000 1.0
C      1  0.5645320000000  0.5428270000000  0.4908310000000 1.0
C      1  0.4362480000000  0.5043090000000  0.4650740000000 1.0
C      1  0.5679370000000  0.5009970000000  0.4607250000000 1.0
C      1  0.4294660000000  0.4755260000000  0.4690560000000 1.0
C      1  0.5430930000000  0.4723200000000  0.4123080000000 1.0
C      1  0.4639300000000  0.4258340000000  0.4458190000000 1.0
C      1  0.5401970000000  0.4087960000000  0.5071350000000 1.0
C      1  0.4557580000000  0.4306150000000  0.5519590000000 1.0
C      1  0.5372060000000  0.4744430000000  0.5942470000000 1.0
C      1  0.4583910000000  0.5354570000000  0.5958370000000 1.0
C      1  0.5408990000000  0.5734460000000  0.5536970000000 1.0
C      1  0.4604670000000  0.5898670000000  0.5010690000000 1.0
C      1  0.5364220000000  0.5703350000000  0.4421830000000 1.0
C      1  0.4559990000000  0.5189440000000  0.4105840000000 1.0
C      1  0.5624630000000  0.4106450000000  0.4901020000000 1.0
C      1  0.4385190000000  0.4244670000000  0.5301880000000 1.0
C      1  0.5542680000000  0.4554900000000  0.5820180000000 1.0
C      1  0.4397540000000  0.5173700000000  0.5848290000000 1.0
C      1  0.5586780000000  0.5546100000000  0.5654370000000 1.0
C      1  0.4364460000000  0.5872880000000  0.5156040000000 1.0
C      1  0.5582970000000  0.5798740000000  0.4572440000000 1.0
C      1  0.4353260000000  0.5329960000000  0.4237070000000 1.0
C      1  0.5602400000000  0.4946440000000  0.4105980000000 1.0
C      1  0.4402140000000  0.4370830000000  0.4349850000000 1.0
C      1  0.4757680000000  0.4972820000000  0.5458670000000 1.0
C      1  0.5204220000000  0.5228020000000  0.5447630000000 1.0
C      1  0.4782090000000  0.5371200000000  0.5212270000000 1.0
C      1  0.5177440000000  0.5515790000000  0.4939130000000 1.0
C      1  0.4845920000000  0.5315590000000  0.4644190000000 1.0
C      1  0.5173010000000  0.5023740000000  0.4555900000000 1.0
C      1  0.4968370000000  0.4803510000000  0.4531850000000 1.0
C      1  0.5201080000000  0.4525460000000  0.4803110000000 1.0
C      1  0.4857500000000  0.4512700000000  0.5103710000000 1.0
C      1  0.5147330000000  0.4697540000000  0.5384860000000 1.0
C      1  0.4987540000000  0.4154610000000  0.5351760000000 1.0
C      1  0.4943590000000  0.4538760000000  0.5780370000000 1.0
C      1  0.5010000000000  0.5094050000000  0.5873170000000 1.0
C      1  0.4940480000000  0.5556550000000  0.5643320000000 1.0
C      1  0.5047920000000  0.5902640000000  0.5204780000000 1.0
C      1  0.4970650000000  0.5840080000000  0.4668490000000 1.0
C      1  0.4962810000000  0.5458100000000  0.4230800000000 1.0
C      1  0.4979840000000  0.4912000000000  0.4061750000000 1.0
C      1  0.5059150000000  0.4409480000000  0.4279070000000 1.0
C      1  0.5015860000000  0.4102350000000  0.4768220000000 1.0
C      1  0.5097410000000  0.4430290000000  0.5280540000000 1.0
C      1  0.4837930000000  0.4721490000000  0.5572490000000 1.0
C      1  0.5253400000000  0.5148680000000  0.5719260000000 1.0
C      1  0.4970540000000  0.5381800000000  0.5413010000000 1.0
C      1  0.5262390000000  0.5753630000000  0.5085920000000 1.0
C      1  0.4910240000000  0.5562540000000  0.4785810000000 1.0
C      1  0.5083340000000  0.5281510000000  0.4450500000000 1.0
C      1  0.4809530000000  0.4821390000000  0.4278110000000 1.0
C      1  0.5174580000000  0.4565940000000  0.4512220000000 1.0
C      1  0.4932790000000  0.4375790000000  0.4856300000000 1.0
C      1  0.3845850000000  0.5121390000000  0.5172400000000 1.0
C      1  0.6123590000000  0.4843050000000  0.4751360000000 1.0
C      1  0.4110920000000  0.5151710000000  0.5217270000000 1.0
C      1  0.5852950000000  0.4823510000000  0.4739780000000 1.0
END
