TITL C-3201377-4638-1381 5.75754002632227e-07 125000 -64.9310937111689 0 0 13 (Ci) n - 1
REM
REM in /home/nfs/bkarasulu/CARBON/AIRSS/Generating-Clusters/LCBOP/Higher-Symm/SD-CG/FIRE-CG
REM
REM
REM
REM
REM
REM ./C.cell (b20cbc046b6831c77cfcea5457e17084)
REM AIRSS Version 0.9.1 bugfix July 2018 build 013d7b7c2542+ Fri, 06 Jul 2018 19:26:36 +0100
REM compiler GCC version 9.2.1 20190827 (Red Hat 9.2.1-1)
REM options -cpp -mtune=generic -march=x86-64 -g -O0 -fpre-include=/usr/include/finclude/math-vector-fortran.h
REM seed -1573948978 -1976198256 1745240411 -1648419000 7922794 -1682425240 -207690598 -1574847568 -1905190020 1201223290 -528991428 72118586 1886409931 2083400413 1420755088 -759973377 -972442177 372337590 -1449158256 1940977976 -1883402391 1054841170 670121992 -2115132701 743876418 389821801 4105922 750144147 1338531439 -2035342903 -92802657 1202853963 -1110766708
REM
CELL 1.54180   50.00000   50.00000   50.00000   90.00000   90.00000   90.00000
LATT -1
SFAC C  
C      1  0.5268540000000  0.4911720000000  0.4604610000000 1.0
C      1  0.4708110000000  0.5036800000000  0.5388470000000 1.0
C      1  0.5405750000000  0.5132120000000  0.4518230000000 1.0
C      1  0.4570900000000  0.4816400000000  0.5474860000000 1.0
C      1  0.5221790000000  0.4871920000000  0.4882270000000 1.0
C      1  0.4754850000000  0.5076600000000  0.5110800000000 1.0
C      1  0.5172010000000  0.4723130000000  0.4422180000000 1.0
C      1  0.4804630000000  0.5225400000000  0.5570890000000 1.0
C      1  0.5079170000000  0.4545060000000  0.4256070000000 1.0
C      1  0.4897470000000  0.5403470000000  0.5736990000000 1.0
C      1  0.5403280000000  0.4734980000000  0.5034460000000 1.0
C      1  0.4573360000000  0.5213530000000  0.4958610000000 1.0
C      1  0.4988320000000  0.4974260000000  0.4996540000000 1.0
END
