TITL C-3201378-2706-1181 -0.00656532487519903 125000 -287.314847320071 0 0 48 (C1) n - 1
REM
REM in /home/nfs/bkarasulu/CARBON/AIRSS/Generating-Clusters/LCBOP/Higher-Symm/SD-CG/FIRE-CG
REM
REM
REM
REM
REM
REM ./C.cell (b20cbc046b6831c77cfcea5457e17084)
REM AIRSS Version 0.9.1 bugfix July 2018 build 013d7b7c2542+ Fri, 06 Jul 2018 19:26:36 +0100
REM compiler GCC version 9.2.1 20190827 (Red Hat 9.2.1-1)
REM options -cpp -mtune=generic -march=x86-64 -g -O0 -fpre-include=/usr/include/finclude/math-vector-fortran.h
REM seed -905519726 1585855170 -1409930402 1511793058 -1778039899 1716174490 2004751242 -1480115409 -1237077929 -1500595682 122329432 1215421217 -1694558718 -2046302094 1933924975 1757938653 -1400586720 -1344670043 -1701397701 -2085679183 1745394509 1369052258 1155934178 761764856 1033170213 -931476136 -215343497 -1627430962 -1342394376 546515727 -116796134 229660067 -355698258
REM
CELL 1.54180   50.00000   50.00000   50.00000   90.00000   90.00000   90.00000
LATT -1
SFAC C  
C      1  0.4635030000000  0.4722220000000  0.5206180000000 1.0
C      1  0.5144810000000  0.4805740000000  0.5007760000000 1.0
C      1  0.5125070000000  0.5306370000000  0.5809960000000 1.0
C      1  0.4863930000000  0.4872920000000  0.3906820000000 1.0
C      1  0.4699260000000  0.5601310000000  0.5846750000000 1.0
C      1  0.5156110000000  0.5293590000000  0.3869450000000 1.0
C      1  0.5628800000000  0.4502250000000  0.4679000000000 1.0
C      1  0.5155480000000  0.4197250000000  0.5103360000000 1.0
C      1  0.4262830000000  0.5152830000000  0.5228590000000 1.0
C      1  0.5370030000000  0.5221560000000  0.4748470000000 1.0
C      1  0.5705150000000  0.4679000000000  0.5414030000000 1.0
C      1  0.4463450000000  0.5333360000000  0.4600320000000 1.0
C      1  0.4943330000000  0.4653680000000  0.5569260000000 1.0
C      1  0.4996490000000  0.4579460000000  0.4568000000000 1.0
C      1  0.4646920000000  0.5878910000000  0.5046760000000 1.0
C      1  0.5657800000000  0.5291360000000  0.5585340000000 1.0
C      1  0.4511500000000  0.5387470000000  0.4870110000000 1.0
C      1  0.5531500000000  0.4888260000000  0.5349230000000 1.0
C      1  0.4987790000000  0.5092850000000  0.3822640000000 1.0
C      1  0.4938770000000  0.5487550000000  0.5864640000000 1.0
C      1  0.4700690000000  0.4979550000000  0.5083990000000 1.0
C      1  0.4962850000000  0.5026070000000  0.4992670000000 1.0
C      1  0.5426040000000  0.5451230000000  0.4277710000000 1.0
C      1  0.4261600000000  0.5532920000000  0.5585520000000 1.0
C      1  0.5410170000000  0.4895250000000  0.5098130000000 1.0
C      1  0.4358700000000  0.4681160000000  0.5253830000000 1.0
C      1  0.4440310000000  0.5270870000000  0.4348370000000 1.0
C      1  0.5856760000000  0.4473650000000  0.5466450000000 1.0
C      1  0.5385750000000  0.4168920000000  0.4969910000000 1.0
C      1  0.5575650000000  0.4272170000000  0.4810610000000 1.0
C      1  0.4494700000000  0.5178490000000  0.5060640000000 1.0
C      1  0.5101300000000  0.5241260000000  0.4859960000000 1.0
C      1  0.5184810000000  0.4673910000000  0.4748110000000 1.0
C      1  0.4831410000000  0.4556710000000  0.5330470000000 1.0
C      1  0.5467920000000  0.4733580000000  0.4678750000000 1.0
C      1  0.4950440000000  0.4332090000000  0.5209740000000 1.0
C      1  0.5477160000000  0.5089970000000  0.5543180000000 1.0
C      1  0.4578660000000  0.5645840000000  0.4952270000000 1.0
C      1  0.4452610000000  0.5619810000000  0.5749100000000 1.0
C      1  0.5318260000000  0.5422890000000  0.4036150000000 1.0
C      1  0.5087030000000  0.4839570000000  0.5693190000000 1.0
C      1  0.4868200000000  0.4586650000000  0.4335400000000 1.0
C      1  0.4181230000000  0.4885210000000  0.5269940000000 1.0
C      1  0.5514650000000  0.4984050000000  0.4834980000000 1.0
C      1  0.4186240000000  0.5362900000000  0.5395070000000 1.0
C      1  0.5448410000000  0.5379130000000  0.4532680000000 1.0
C      1  0.4820150000000  0.4690380000000  0.4095310000000 1.0
C      1  0.5234240000000  0.5077850000000  0.5691220000000 1.0
END
