TITL C-3201378-2706-1331 2.28707252619961e-08 125000 -569.781569484443 0 0 96 (C1) n - 1
REM
REM in /home/nfs/bkarasulu/CARBON/AIRSS/Generating-Clusters/LCBOP/Higher-Symm/SD-CG/FIRE-CG
REM
REM
REM
REM
REM
REM ./C.cell (b20cbc046b6831c77cfcea5457e17084)
REM AIRSS Version 0.9.1 bugfix July 2018 build 013d7b7c2542+ Fri, 06 Jul 2018 19:26:36 +0100
REM compiler GCC version 9.2.1 20190827 (Red Hat 9.2.1-1)
REM options -cpp -mtune=generic -march=x86-64 -g -O0 -fpre-include=/usr/include/finclude/math-vector-fortran.h
REM seed 799128323 -118484004 1358711964 -1368410784 -1938904992 -1428258912 2095218409 425487558 -1165673154 328816350 1505448380 -609221347 1628466118 1220710096 -255689385 774581238 -2037255639 -2111041807 591305122 -1015973906 161879470 1863371273 -2057295006 -407050615 -1743898276 -484215415 1063200216 1249837538 1837039276 1854887645 1004259698 -1819437770 -511844773
REM
CELL 1.54180   50.00000   50.00000   50.00000   90.00000   90.00000   90.00000
LATT -1
SFAC C  
C      1  0.5443140000000  0.4417490000000  0.5380820000000 1.0
C      1  0.4542630000000  0.4387070000000  0.4628270000000 1.0
C      1  0.5036660000000  0.5429570000000  0.3959850000000 1.0
C      1  0.4866830000000  0.5308240000000  0.6045220000000 1.0
C      1  0.4630770000000  0.5155610000000  0.6036020000000 1.0
C      1  0.5567540000000  0.5358520000000  0.4271640000000 1.0
C      1  0.4219570000000  0.4267430000000  0.5100900000000 1.0
C      1  0.5756750000000  0.4342360000000  0.4886030000000 1.0
C      1  0.5518620000000  0.4240060000000  0.4779890000000 1.0
C      1  0.4462330000000  0.4194530000000  0.5225280000000 1.0
C      1  0.4754010000000  0.4255380000000  0.4802270000000 1.0
C      1  0.5229340000000  0.4283340000000  0.5210390000000 1.0
C      1  0.4532940000000  0.5789440000000  0.5007600000000 1.0
C      1  0.5448700000000  0.5819330000000  0.4937680000000 1.0
C      1  0.4331120000000  0.4759260000000  0.5464700000000 1.0
C      1  0.5477660000000  0.4773630000000  0.4344980000000 1.0
C      1  0.4883670000000  0.4730250000000  0.4968790000000 1.0
C      1  0.5159960000000  0.4748760000000  0.5012810000000 1.0
C      1  0.5268380000000  0.4226280000000  0.4931240000000 1.0
C      1  0.4717990000000  0.4204250000000  0.5081880000000 1.0
C      1  0.4861810000000  0.5228670000000  0.4374500000000 1.0
C      1  0.5157450000000  0.5264410000000  0.5638490000000 1.0
C      1  0.5214680000000  0.4818820000000  0.5274780000000 1.0
C      1  0.4804580000000  0.4776150000000  0.4707700000000 1.0
C      1  0.4692350000000  0.4798240000000  0.5168580000000 1.0
C      1  0.5347190000000  0.4781200000000  0.4800090000000 1.0
C      1  0.4488170000000  0.5058210000000  0.5832130000000 1.0
C      1  0.5745070000000  0.5168230000000  0.4342770000000 1.0
C      1  0.4483100000000  0.4981500000000  0.5566420000000 1.0
C      1  0.5688470000000  0.4925580000000  0.4471380000000 1.0
C      1  0.4544780000000  0.4240420000000  0.5502130000000 1.0
C      1  0.5429940000000  0.4227500000000  0.4502580000000 1.0
C      1  0.4372900000000  0.5559070000000  0.4916270000000 1.0
C      1  0.5615770000000  0.5610510000000  0.5072900000000 1.0
C      1  0.5607530000000  0.5497930000000  0.5347140000000 1.0
C      1  0.4385120000000  0.5445550000000  0.4652310000000 1.0
C      1  0.5129770000000  0.5343720000000  0.5055580000000 1.0
C      1  0.4862770000000  0.5321920000000  0.4957390000000 1.0
C      1  0.5026530000000  0.5505400000000  0.3710720000000 1.0
C      1  0.4990700000000  0.5378600000000  0.6277030000000 1.0
C      1  0.4703450000000  0.5544910000000  0.5370250000000 1.0
C      1  0.5285170000000  0.5511030000000  0.4626890000000 1.0
C      1  0.5333970000000  0.5074050000000  0.5784650000000 1.0
C      1  0.4672380000000  0.5046300000000  0.4223060000000 1.0
C      1  0.4991240000000  0.5876850000000  0.4633800000000 1.0
C      1  0.4988150000000  0.5903320000000  0.5281530000000 1.0
C      1  0.4819360000000  0.4332320000000  0.5522740000000 1.0
C      1  0.5143360000000  0.4266280000000  0.4474010000000 1.0
C      1  0.4863450000000  0.4664590000000  0.4441330000000 1.0
C      1  0.5118370000000  0.4722350000000  0.5535050000000 1.0
C      1  0.4134140000000  0.5252110000000  0.5216940000000 1.0
C      1  0.5868000000000  0.5277130000000  0.4840860000000 1.0
C      1  0.4952740000000  0.5392480000000  0.5787600000000 1.0
C      1  0.5069330000000  0.5359750000000  0.4228050000000 1.0
C      1  0.5494930000000  0.5164560000000  0.5994390000000 1.0
C      1  0.4522210000000  0.5149880000000  0.4010120000000 1.0
C      1  0.4999100000000  0.4447740000000  0.4312350000000 1.0
C      1  0.4925880000000  0.4554200000000  0.5660110000000 1.0
C      1  0.5619970000000  0.4884850000000  0.4758360000000 1.0
C      1  0.4666670000000  0.5039830000000  0.5338940000000 1.0
C      1  0.4629830000000  0.4767520000000  0.4302580000000 1.0
C      1  0.5350690000000  0.4799210000000  0.5696450000000 1.0
C      1  0.5633480000000  0.5129820000000  0.5357960000000 1.0
C      1  0.4370810000000  0.5084370000000  0.4655410000000 1.0
C      1  0.4420800000000  0.4631120000000  0.4470660000000 1.0
C      1  0.5563720000000  0.4663710000000  0.5535190000000 1.0
C      1  0.4080880000000  0.4678400000000  0.4807700000000 1.0
C      1  0.5914760000000  0.4723700000000  0.5206170000000 1.0
C      1  0.4448900000000  0.4661630000000  0.5236210000000 1.0
C      1  0.5275730000000  0.4728240000000  0.4525490000000 1.0
C      1  0.4947440000000  0.4253800000000  0.5274750000000 1.0
C      1  0.5035120000000  0.4224760000000  0.4739140000000 1.0
C      1  0.5897870000000  0.4519020000000  0.5031300000000 1.0
C      1  0.4084470000000  0.4454830000000  0.4960360000000 1.0
C      1  0.4769540000000  0.5540410000000  0.5638500000000 1.0
C      1  0.5309410000000  0.5426410000000  0.4361700000000 1.0
C      1  0.5363480000000  0.5059010000000  0.5298460000000 1.0
C      1  0.4645930000000  0.5016190000000  0.4701200000000 1.0
C      1  0.4547480000000  0.5615740000000  0.4486530000000 1.0
C      1  0.5428620000000  0.5677890000000  0.5487090000000 1.0
C      1  0.4821060000000  0.5240200000000  0.4672620000000 1.0
C      1  0.5183500000000  0.5275680000000  0.5338550000000 1.0
C      1  0.5662910000000  0.5252170000000  0.6173320000000 1.0
C      1  0.4364440000000  0.5247270000000  0.3827000000000 1.0
C      1  0.4736360000000  0.5783970000000  0.5215320000000 1.0
C      1  0.5245360000000  0.5780570000000  0.4721510000000 1.0
C      1  0.5342260000000  0.5341470000000  0.4848440000000 1.0
C      1  0.4649810000000  0.5300550000000  0.5197100000000 1.0
C      1  0.4758440000000  0.5787530000000  0.4521520000000 1.0
C      1  0.5216910000000  0.5838170000000  0.5417360000000 1.0
C      1  0.5751640000000  0.4855260000000  0.5398480000000 1.0
C      1  0.4244120000000  0.4816840000000  0.4620540000000 1.0
C      1  0.4859000000000  0.4593530000000  0.5922880000000 1.0
C      1  0.4989380000000  0.4415150000000  0.4040850000000 1.0
C      1  0.4362840000000  0.5355380000000  0.5113970000000 1.0
C      1  0.5623860000000  0.5373550000000  0.4909510000000 1.0
END
