TITL C-3201377-4638-1840 -37.978993924098 125000 -1043.91109841617 0 0 170 (C1) n - 1
REM
REM in /home/nfs/bkarasulu/CARBON/AIRSS/Generating-Clusters/LCBOP/Higher-Symm/SD-CG/FIRE-CG
REM
REM
REM
REM
REM
REM ./C.cell (b20cbc046b6831c77cfcea5457e17084)
REM AIRSS Version 0.9.1 bugfix July 2018 build 013d7b7c2542+ Fri, 06 Jul 2018 19:26:36 +0100
REM compiler GCC version 9.2.1 20190827 (Red Hat 9.2.1-1)
REM options -cpp -mtune=generic -march=x86-64 -g -O0 -fpre-include=/usr/include/finclude/math-vector-fortran.h
REM seed 2055811662 -2035544599 51628721 -986464394 -58820693 -1316605009 -1264543126 -1520231046 1774812909 139969978 -451855019 -2000502120 1438653234 178500860 -487379632 1595975640 258021916 -220083546 -1322779058 774588779 -1986738429 -943657499 997487231 1690818489 323216526 1646478477 -163910152 -814613233 43762147 -1361677380 2022526392 1998592570 1175861160
REM
CELL 1.54180   50.00000   50.00000   50.00000   90.00000   90.00000   90.00000
LATT -1
SFAC C  
C      1  0.5534060000000  0.4234230000000  0.5748670000000 1.0
C      1  0.5609590000000  0.5725350000000  0.5655070000000 1.0
C      1  0.5513010000000  0.4873080000000  0.6142220000000 1.0
C      1  0.5520360000000  0.5150840000000  0.6125190000000 1.0
C      1  0.5416280000000  0.4678750000000  0.5183580000000 1.0
C      1  0.5375850000000  0.5220600000000  0.4932950000000 1.0
C      1  0.5627360000000  0.5269200000000  0.5878490000000 1.0
C      1  0.5605090000000  0.4717550000000  0.5909520000000 1.0
C      1  0.6194560000000  0.5098480000000  0.5383860000000 1.0
C      1  0.6202320000000  0.4830380000000  0.5380990000000 1.0
C      1  0.4811180000000  0.4298560000000  0.4220050000000 1.0
C      1  0.4691510000000  0.5844230000000  0.4325080000000 1.0
C      1  0.4743570000000  0.3865890000000  0.4871210000000 1.0
C      1  0.4746090000000  0.6101300000000  0.4941170000000 1.0
C      1  0.5937160000000  0.5330470000000  0.5004820000000 1.0
C      1  0.6019700000000  0.4592880000000  0.4965190000000 1.0
C      1  0.4159330000000  0.4426470000000  0.4693700000000 1.0
C      1  0.4188630000000  0.5586250000000  0.4789780000000 1.0
C      1  0.5601920000000  0.5999480000000  0.5103260000000 1.0
C      1  0.5600770000000  0.3953330000000  0.5108890000000 1.0
C      1  0.3853050000000  0.5204190000000  0.5450460000000 1.0
C      1  0.3839470000000  0.4663160000000  0.5435790000000 1.0
C      1  0.4297630000000  0.5061440000000  0.5518720000000 1.0
C      1  0.4285340000000  0.4786130000000  0.5521260000000 1.0
C      1  0.4864410000000  0.6068690000000  0.4310000000000 1.0
C      1  0.4891700000000  0.4040990000000  0.4307920000000 1.0
C      1  0.4640790000000  0.5613810000000  0.4782800000000 1.0
C      1  0.4631390000000  0.4366950000000  0.4656010000000 1.0
C      1  0.5318720000000  0.5894710000000  0.4448020000000 1.0
C      1  0.5311440000000  0.4120230000000  0.4504750000000 1.0
C      1  0.5742440000000  0.4277490000000  0.4375630000000 1.0
C      1  0.5711840000000  0.5650300000000  0.4392250000000 1.0
C      1  0.4370240000000  0.4870360000000  0.4951820000000 1.0
C      1  0.4425940000000  0.5449570000000  0.4705170000000 1.0
C      1  0.5968200000000  0.5047120000000  0.4357130000000 1.0
C      1  0.6083500000000  0.5190040000000  0.4139000000000 1.0
C      1  0.4132380000000  0.5288320000000  0.5448680000000 1.0
C      1  0.4117280000000  0.4569110000000  0.5423930000000 1.0
C      1  0.4504690000000  0.5202560000000  0.4580850000000 1.0
C      1  0.4397590000000  0.4984410000000  0.4716700000000 1.0
C      1  0.4865580000000  0.4437400000000  0.5918850000000 1.0
C      1  0.4919500000000  0.5602320000000  0.5813010000000 1.0
C      1  0.5516940000000  0.4438740000000  0.5946850000000 1.0
C      1  0.5573660000000  0.5557340000000  0.5881870000000 1.0
C      1  0.6098000000000  0.5301990000000  0.5237660000000 1.0
C      1  0.6130600000000  0.4625230000000  0.5223360000000 1.0
C      1  0.5357350000000  0.5361710000000  0.6237700000000 1.0
C      1  0.5339960000000  0.4693570000000  0.6287740000000 1.0
C      1  0.4551430000000  0.4305130000000  0.4101760000000 1.0
C      1  0.4426440000000  0.5810880000000  0.4221750000000 1.0
C      1  0.5028070000000  0.3829630000000  0.4758390000000 1.0
C      1  0.5061190000000  0.6166500000000  0.4806630000000 1.0
C      1  0.4438800000000  0.5945060000000  0.5023240000000 1.0
C      1  0.4470540000000  0.4026460000000  0.4920780000000 1.0
C      1  0.4347430000000  0.4145250000000  0.5163410000000 1.0
C      1  0.4350050000000  0.5753970000000  0.5248270000000 1.0
C      1  0.4495050000000  0.4742070000000  0.6116360000000 1.0
C      1  0.4477790000000  0.5423480000000  0.6013930000000 1.0
C      1  0.5908560000000  0.5339220000000  0.3973480000000 1.0
C      1  0.5687340000000  0.5057980000000  0.4383690000000 1.0
C      1  0.3832990000000  0.5091390000000  0.4711610000000 1.0
C      1  0.3867810000000  0.4806970000000  0.4710460000000 1.0
C      1  0.5142590000000  0.5335020000000  0.5476410000000 1.0
C      1  0.5148730000000  0.4644160000000  0.5608340000000 1.0
C      1  0.5087520000000  0.6085150000000  0.4484670000000 1.0
C      1  0.5075540000000  0.3952860000000  0.4496330000000 1.0
C      1  0.5163810000000  0.6020920000000  0.5925740000000 1.0
C      1  0.5074870000000  0.4019050000000  0.6087110000000 1.0
C      1  0.3854920000000  0.5203220000000  0.4456310000000 1.0
C      1  0.4061460000000  0.4671510000000  0.4524790000000 1.0
C      1  0.4967930000000  0.5557090000000  0.5528930000000 1.0
C      1  0.4938580000000  0.4452070000000  0.5636630000000 1.0
C      1  0.4908810000000  0.4914840000000  0.5942750000000 1.0
C      1  0.4875480000000  0.5174680000000  0.6039250000000 1.0
C      1  0.3865940000000  0.5232310000000  0.4959900000000 1.0
C      1  0.3840750000000  0.4662240000000  0.4954480000000 1.0
C      1  0.5500080000000  0.4857500000000  0.3999050000000 1.0
C      1  0.5726410000000  0.4793330000000  0.3864140000000 1.0
C      1  0.5377910000000  0.6135220000000  0.5806120000000 1.0
C      1  0.5269680000000  0.3873650000000  0.5968370000000 1.0
C      1  0.4319000000000  0.4037500000000  0.4436570000000 1.0
C      1  0.4176000000000  0.6035400000000  0.4586340000000 1.0
C      1  0.5028720000000  0.5088230000000  0.5513360000000 1.0
C      1  0.5053440000000  0.4891370000000  0.5701280000000 1.0
C      1  0.5297920000000  0.4442950000000  0.6149090000000 1.0
C      1  0.5342920000000  0.5594700000000  0.6065960000000 1.0
C      1  0.5346520000000  0.5674360000000  0.4926790000000 1.0
C      1  0.5257380000000  0.4248820000000  0.5027970000000 1.0
C      1  0.5576840000000  0.4835480000000  0.5641400000000 1.0
C      1  0.5570090000000  0.5133410000000  0.5626110000000 1.0
C      1  0.5830830000000  0.5066490000000  0.4910330000000 1.0
C      1  0.5997650000000  0.4845220000000  0.4816630000000 1.0
C      1  0.4772730000000  0.4661490000000  0.5182360000000 1.0
C      1  0.4898750000000  0.5151020000000  0.5023420000000 1.0
C      1  0.5400300000000  0.6106990000000  0.4891530000000 1.0
C      1  0.5403170000000  0.3863820000000  0.4889830000000 1.0
C      1  0.5585000000000  0.6004180000000  0.5691560000000 1.0
C      1  0.5477760000000  0.3968460000000  0.5824330000000 1.0
C      1  0.4319070000000  0.5220980000000  0.6097390000000 1.0
C      1  0.4332920000000  0.4955680000000  0.6140980000000 1.0
C      1  0.4831770000000  0.4380630000000  0.4846930000000 1.0
C      1  0.4826530000000  0.5645950000000  0.5013570000000 1.0
C      1  0.5055470000000  0.4301070000000  0.6088140000000 1.0
C      1  0.5120350000000  0.5744080000000  0.5964140000000 1.0
C      1  0.5362180000000  0.4129780000000  0.4781510000000 1.0
C      1  0.5421320000000  0.5871810000000  0.4719390000000 1.0
C      1  0.4187520000000  0.5332390000000  0.4133690000000 1.0
C      1  0.4377480000000  0.4786530000000  0.4139250000000 1.0
C      1  0.5154610000000  0.4700410000000  0.4772400000000 1.0
C      1  0.5065060000000  0.5304190000000  0.4594530000000 1.0
C      1  0.5904820000000  0.5601940000000  0.4886310000000 1.0
C      1  0.5933480000000  0.4330910000000  0.4868480000000 1.0
C      1  0.5860140000000  0.5870570000000  0.5013310000000 1.0
C      1  0.5844000000000  0.4097740000000  0.5020130000000 1.0
C      1  0.5229720000000  0.4810650000000  0.3899670000000 1.0
C      1  0.5128400000000  0.5084410000000  0.3865120000000 1.0
C      1  0.5669820000000  0.5451110000000  0.3923730000000 1.0
C      1  0.5457860000000  0.4960410000000  0.4263750000000 1.0
C      1  0.6097520000000  0.4892480000000  0.4555470000000 1.0
C      1  0.6352290000000  0.5184340000000  0.4090630000000 1.0
C      1  0.5901610000000  0.4308170000000  0.4587820000000 1.0
C      1  0.5868980000000  0.5606810000000  0.4603820000000 1.0
C      1  0.4380650000000  0.4093390000000  0.4179690000000 1.0
C      1  0.4239900000000  0.5996690000000  0.4327260000000 1.0
C      1  0.4981940000000  0.5130970000000  0.4399510000000 1.0
C      1  0.5186010000000  0.4935980000000  0.4361110000000 1.0
C      1  0.4775440000000  0.5676410000000  0.4532810000000 1.0
C      1  0.4994630000000  0.4519380000000  0.4255310000000 1.0
C      1  0.4324190000000  0.5564880000000  0.4121590000000 1.0
C      1  0.4434240000000  0.4543080000000  0.4018580000000 1.0
C      1  0.5530340000000  0.5597810000000  0.5411400000000 1.0
C      1  0.5490530000000  0.4327010000000  0.5482620000000 1.0
C      1  0.5451420000000  0.5699890000000  0.4270230000000 1.0
C      1  0.5474900000000  0.4232580000000  0.4300020000000 1.0
C      1  0.4379870000000  0.4204390000000  0.4674110000000 1.0
C      1  0.4240320000000  0.5877890000000  0.4809820000000 1.0
C      1  0.4695510000000  0.5126250000000  0.4369170000000 1.0
C      1  0.4584600000000  0.4975630000000  0.4159710000000 1.0
C      1  0.4522270000000  0.4773960000000  0.5143700000000 1.0
C      1  0.4691740000000  0.5200810000000  0.5173720000000 1.0
C      1  0.3779480000000  0.5089280000000  0.5194490000000 1.0
C      1  0.3766500000000  0.4797890000000  0.5189590000000 1.0
C      1  0.5436770000000  0.4170530000000  0.5249130000000 1.0
C      1  0.5459770000000  0.5746330000000  0.5182980000000 1.0
C      1  0.4049400000000  0.5453750000000  0.4999490000000 1.0
C      1  0.4032900000000  0.4448580000000  0.4960030000000 1.0
C      1  0.5401910000000  0.4767800000000  0.4918960000000 1.0
C      1  0.5552210000000  0.5011600000000  0.4896800000000 1.0
C      1  0.5030240000000  0.5577280000000  0.4593640000000 1.0
C      1  0.5109270000000  0.4684560000000  0.4479490000000 1.0
C      1  0.4978110000000  0.4217880000000  0.5025410000000 1.0
C      1  0.5076870000000  0.5641240000000  0.4875640000000 1.0
C      1  0.4183450000000  0.5505340000000  0.5259270000000 1.0
C      1  0.4170400000000  0.4373520000000  0.5204530000000 1.0
C      1  0.4751470000000  0.4684960000000  0.6016370000000 1.0
C      1  0.4754610000000  0.5418790000000  0.5959830000000 1.0
C      1  0.5203710000000  0.5339450000000  0.3946120000000 1.0
C      1  0.5166090000000  0.4549440000000  0.4017030000000 1.0
C      1  0.5426740000000  0.5332900000000  0.5456670000000 1.0
C      1  0.5417790000000  0.4626790000000  0.5471510000000 1.0
C      1  0.3739280000000  0.4792770000000  0.5668880000000 1.0
C      1  0.3744260000000  0.5066400000000  0.5674820000000 1.0
C      1  0.5413890000000  0.5518740000000  0.4037940000000 1.0
C      1  0.5369570000000  0.4345770000000  0.4059170000000 1.0
C      1  0.4144210000000  0.4841370000000  0.4294970000000 1.0
C      1  0.4049540000000  0.5121360000000  0.4267550000000 1.0
C      1  0.4922110000000  0.4639370000000  0.4933060000000 1.0
C      1  0.5110710000000  0.5205230000000  0.4854090000000 1.0
C      1  0.4789140000000  0.4474940000000  0.5399150000000 1.0
C      1  0.4840700000000  0.5662270000000  0.5297300000000 1.0
END
