TITL C-3201372-1405-1644 23280.2704385457 125000 -765.147765217415 0 0 129 (C1) n - 1
REM
REM in /home/nfs/bkarasulu/CARBON/AIRSS/Generating-Clusters/LCBOP/Higher-Symm/SD-CG/FIRE-CG
REM
REM
REM
REM
REM
REM ./C.cell (b20cbc046b6831c77cfcea5457e17084)
REM AIRSS Version 0.9.1 bugfix July 2018 build 013d7b7c2542+ Fri, 06 Jul 2018 19:26:36 +0100
REM compiler GCC version 9.2.1 20190827 (Red Hat 9.2.1-1)
REM options -cpp -mtune=generic -march=x86-64 -g -O0 -fpre-include=/usr/include/finclude/math-vector-fortran.h
REM seed -87289837 1476629696 2112725591 1980814079 1072020856 -164854910 -12396075 -2144698350 157054850 617433911 -751075671 -1378285105 -2007879322 2106111068 470971391 87791408 -355073270 1809181499 1566445161 1047667012 318385221 470331514 -575830227 1927627136 -413053597 -1605368063 -1714939668 2037164881 -1017205782 525767691 1594151708 1318511145 1161405615
REM
CELL 1.54180   50.00000   50.00000   50.00000   90.00000   90.00000   90.00000
LATT -1
SFAC C  
C      1  0.5202150000000  0.4823550000000  0.4977350000000 1.0
C      1  0.4813900000000  0.5214700000000  0.5134810000000 1.0
C      1  0.4181550000000  0.5627650000000  0.5098830000000 1.0
C      1  0.5904220000000  0.4590020000000  0.4983010000000 1.0
C      1  0.4018390000000  0.5451350000000  0.5510940000000 1.0
C      1  0.6030400000000  0.4821420000000  0.4558520000000 1.0
C      1  0.4888200000000  0.4239500000000  0.5633340000000 1.0
C      1  0.5076930000000  0.5523510000000  0.4160530000000 1.0
C      1  0.4712320000000  0.6076910000000  0.4835950000000 1.0
C      1  0.5538430000000  0.3898390000000  0.5045390000000 1.0
C      1  0.4652990000000  0.4789370000000  0.5941270000000 1.0
C      1  0.5218000000000  0.5121120000000  0.3726370000000 1.0
C      1  0.4845980000000  0.4579130000000  0.4699930000000 1.0
C      1  0.5003140000000  0.5272580000000  0.5370810000000 1.0
C      1  0.3935730000000  0.4970850000000  0.5041880000000 1.0
C      1  0.5943570000000  0.5255670000000  0.4978370000000 1.0
C      1  0.5343600000000  0.5544200000000  0.4204640000000 1.0
C      1  0.4626060000000  0.4184180000000  0.5599210000000 1.0
C      1  0.5737880000000  0.5158820000000  0.5735890000000 1.0
C      1  0.4291440000000  0.5002880000000  0.4353390000000 1.0
C      1  0.5505260000000  0.4377870000000  0.4473180000000 1.0
C      1  0.4662000000000  0.5818080000000  0.5496910000000 1.0
C      1  0.5899720000000  0.5061780000000  0.4481980000000 1.0
C      1  0.4017470000000  0.5171660000000  0.5548390000000 1.0
C      1  0.5824310000000  0.5320950000000  0.5507230000000 1.0
C      1  0.4126850000000  0.4821180000000  0.4544560000000 1.0
C      1  0.5481790000000  0.4055690000000  0.5272760000000 1.0
C      1  0.4654620000000  0.5884580000000  0.4635870000000 1.0
C      1  0.5784440000000  0.5602290000000  0.5516490000000 1.0
C      1  0.4166260000000  0.4526030000000  0.4573270000000 1.0
C      1  0.5357570000000  0.5010730000000  0.6130530000000 1.0
C      1  0.4493240000000  0.4953530000000  0.3831330000000 1.0
C      1  0.5503020000000  0.4030100000000  0.4813030000000 1.0
C      1  0.4803090000000  0.6002020000000  0.5078750000000 1.0
C      1  0.5788290000000  0.5861220000000  0.5404830000000 1.0
C      1  0.4260880000000  0.4293510000000  0.4730020000000 1.0
C      1  0.5793600000000  0.4427900000000  0.4501180000000 1.0
C      1  0.4386140000000  0.5772290000000  0.5527730000000 1.0
C      1  0.5451690000000  0.4995770000000  0.6391100000000 1.0
C      1  0.4355610000000  0.4939860000000  0.3592720000000 1.0
C      1  0.4835670000000  0.4327810000000  0.4174850000000 1.0
C      1  0.5321130000000  0.5344440000000  0.5706570000000 1.0
C      1  0.5317180000000  0.4608240000000  0.4451180000000 1.0
C      1  0.4562740000000  0.5040630000000  0.5228990000000 1.0
C      1  0.5124220000000  0.5508990000000  0.5834200000000 1.0
C      1  0.4901070000000  0.4111960000000  0.4353940000000 1.0
C      1  0.5202950000000  0.4608330000000  0.5449660000000 1.0
C      1  0.4762100000000  0.5295290000000  0.4475770000000 1.0
C      1  0.4513980000000  0.4626810000000  0.4983280000000 1.0
C      1  0.5341430000000  0.5502990000000  0.5062910000000 1.0
C      1  0.4184560000000  0.5636450000000  0.5384370000000 1.0
C      1  0.5923780000000  0.4595840000000  0.4689390000000 1.0
C      1  0.5054760000000  0.4694590000000  0.5193730000000 1.0
C      1  0.4954860000000  0.5142220000000  0.4630540000000 1.0
C      1  0.5072660000000  0.5783420000000  0.5804810000000 1.0
C      1  0.5168680000000  0.4021860000000  0.4312590000000 1.0
C      1  0.6141730000000  0.6218560000000  0.5599460000000 1.0
C      1  0.4249950000000  0.4245530000000  0.5261560000000 1.0
C      1  0.4562550000000  0.4809330000000  0.5672430000000 1.0
C      1  0.5217050000000  0.5098070000000  0.4525990000000 1.0
C      1  0.5137090000000  0.4848990000000  0.5627930000000 1.0
C      1  0.4676410000000  0.4750380000000  0.4309290000000 1.0
C      1  0.5117410000000  0.4317780000000  0.5486600000000 1.0
C      1  0.4873290000000  0.5537210000000  0.4357900000000 1.0
C      1  0.6134700000000  0.4630320000000  0.5128470000000 1.0
C      1  0.3946130000000  0.5668850000000  0.4964480000000 1.0
C      1  0.5425680000000  0.5285670000000  0.4906370000000 1.0
C      1  0.4532380000000  0.4730920000000  0.5235960000000 1.0
C      1  0.5328920000000  0.4878750000000  0.4387660000000 1.0
C      1  0.4592890000000  0.5073090000000  0.5534780000000 1.0
C      1  0.5264310000000  0.4920740000000  0.3933740000000 1.0
C      1  0.4577330000000  0.5047530000000  0.6069670000000 1.0
C      1  0.4781110000000  0.4967300000000  0.3813560000000 1.0
C      1  0.5067730000000  0.4978170000000  0.6104240000000 1.0
C      1  0.5730350000000  0.5044770000000  0.4239570000000 1.0
C      1  0.4124310000000  0.5096660000000  0.5802960000000 1.0
C      1  0.3958890000000  0.5020590000000  0.5309590000000 1.0
C      1  0.5913690000000  0.5241690000000  0.4707380000000 1.0
C      1  0.4674180000000  0.4427010000000  0.4864590000000 1.0
C      1  0.5160130000000  0.5509420000000  0.5261300000000 1.0
C      1  0.5664160000000  0.4271630000000  0.5299540000000 1.0
C      1  0.4448690000000  0.5703840000000  0.4702380000000 1.0
C      1  0.4667170000000  0.4772840000000  0.4583930000000 1.0
C      1  0.5242900000000  0.5117460000000  0.5512710000000 1.0
C      1  0.4484560000000  0.4850710000000  0.4791620000000 1.0
C      1  0.5458730000000  0.4997410000000  0.5322040000000 1.0
C      1  0.5917360000000  0.5234220000000  0.5248380000000 1.0
C      1  0.3982350000000  0.4933170000000  0.4774700000000 1.0
C      1  0.4843740000000  0.4608940000000  0.4131110000000 1.0
C      1  0.4884680000000  0.5355040000000  0.5856160000000 1.0
C      1  0.4488210000000  0.5204430000000  0.4444360000000 1.0
C      1  0.5498800000000  0.4704330000000  0.5366340000000 1.0
C      1  0.4666920000000  0.5526900000000  0.5095420000000 1.0
C      1  0.5428100000000  0.4531340000000  0.4929450000000 1.0
C      1  0.4883000000000  0.5781410000000  0.4506420000000 1.0
C      1  0.5202660000000  0.4119360000000  0.5295300000000 1.0
C      1  0.4920460000000  0.4732800000000  0.6037750000000 1.0
C      1  0.4949360000000  0.5151860000000  0.3667350000000 1.0
C      1  0.4167690000000  0.4244880000000  0.5000860000000 1.0
C      1  0.5956890000000  0.6053450000000  0.5518760000000 1.0
C      1  0.5132160000000  0.5893310000000  0.4584930000000 1.0
C      1  0.5029250000000  0.4020700000000  0.5086280000000 1.0
C      1  0.5465960000000  0.4948070000000  0.4146110000000 1.0
C      1  0.4311420000000  0.5122760000000  0.5999580000000 1.0
C      1  0.4844250000000  0.5180790000000  0.6076030000000 1.0
C      1  0.4980710000000  0.4791530000000  0.3957430000000 1.0
C      1  0.5640650000000  0.5930650000000  0.5174800000000 1.0
C      1  0.4543660000000  0.4219900000000  0.4707310000000 1.0
C      1  0.4925890000000  0.3969330000000  0.4839840000000 1.0
C      1  0.5331230000000  0.5968770000000  0.4747030000000 1.0
C      1  0.5410880000000  0.5033300000000  0.5040770000000 1.0
C      1  0.4412990000000  0.5072060000000  0.4963170000000 1.0
C      1  0.4424140000000  0.4335120000000  0.5472230000000 1.0
C      1  0.5481240000000  0.5481480000000  0.4429570000000 1.0
C      1  0.4767390000000  0.4058730000000  0.4612810000000 1.0
C      1  0.5501630000000  0.5983850000000  0.4952680000000 1.0
C      1  0.4795570000000  0.5264080000000  0.5600060000000 1.0
C      1  0.5082550000000  0.4535310000000  0.4581910000000 1.0
C      1  0.4753960000000  0.5768870000000  0.5231110000000 1.0
C      1  0.5446260000000  0.4304370000000  0.4763250000000 1.0
C      1  0.4481130000000  0.4612760000000  0.5484640000000 1.0
C      1  0.5403620000000  0.5293310000000  0.4624610000000 1.0
C      1  0.5566710000000  0.5057530000000  0.5928890000000 1.0
C      1  0.4333290000000  0.4950170000000  0.4071320000000 1.0
C      1  0.5409070000000  0.4148420000000  0.4309970000000 1.0
C      1  0.4853610000000  0.5891030000000  0.5689000000000 1.0
C      1  0.5643710000000  0.4534200000000  0.5150680000000 1.0
C      1  0.4422250000000  0.5576790000000  0.4954210000000 1.0
C      1  0.4942380000000  0.5073970000000  0.4895080000000 1.0
END
