TITL C-3201379-3821-1365 27633.1408246279 125000 -402.03397367081 0 0 68 (D2) n - 1
REM
REM in /home/nfs/bkarasulu/CARBON/AIRSS/Generating-Clusters/LCBOP/Higher-Symm/SD-CG/FIRE-CG
REM
REM
REM
REM
REM
REM ./C.cell (b20cbc046b6831c77cfcea5457e17084)
REM AIRSS Version 0.9.1 bugfix July 2018 build 013d7b7c2542+ Fri, 06 Jul 2018 19:26:36 +0100
REM compiler GCC version 9.2.1 20190827 (Red Hat 9.2.1-1)
REM options -cpp -mtune=generic -march=x86-64 -g -O0 -fpre-include=/usr/include/finclude/math-vector-fortran.h
REM seed 1292940383 1915933174 -1067281359 2110366139 -802049998 1623834860 230102204 -1857466013 1368886494 1097508076 946174078 -1102243195 1542462668 -1622290959 -765691976 -754325512 -686084302 1410906425 390326191 413593340 1928270126 1863038594 490571966 947143099 -1734264040 -2028578176 -1642405649 1316756321 1004603361 -1543138750 1632073507 736445251 -1226737175
REM
CELL 1.54180   50.00000   50.00000   50.00000   90.00000   90.00000   90.00000
LATT -1
SFAC C  
C      1  0.4621130000000  0.4500980000000  0.5298580000000 1.0
C      1  0.5379330000000  0.4501430000000  0.4701270000000 1.0
C      1  0.5379010000000  0.5498930000000  0.5298560000000 1.0
C      1  0.4620530000000  0.5498660000000  0.4701610000000 1.0
C      1  0.5324630000000  0.4798080000000  0.5642870000000 1.0
C      1  0.4675560000000  0.4797980000000  0.4357070000000 1.0
C      1  0.4675670000000  0.5201710000000  0.5643090000000 1.0
C      1  0.5324130000000  0.5202220000000  0.4356970000000 1.0
C      1  0.5795060000000  0.4610690000000  0.4958070000000 1.0
C      1  0.4205300000000  0.4609940000000  0.5041810000000 1.0
C      1  0.4204930000000  0.5389320000000  0.4958570000000 1.0
C      1  0.5794710000000  0.5390050000000  0.5041550000000 1.0
C      1  0.4978110000000  0.5145230000000  0.4635940000000 1.0
C      1  0.5021750000000  0.5145130000000  0.5364090000000 1.0
C      1  0.5021710000000  0.4854880000000  0.4635890000000 1.0
C      1  0.4978420000000  0.4854760000000  0.5364050000000 1.0
C      1  0.5415240000000  0.5570930000000  0.4777180000000 1.0
C      1  0.4584230000000  0.5570460000000  0.5223000000000 1.0
C      1  0.4584650000000  0.4429150000000  0.4777200000000 1.0
C      1  0.5415880000000  0.4429470000000  0.5222620000000 1.0
C      1  0.5533800000000  0.4991030000000  0.5499430000000 1.0
C      1  0.4466210000000  0.4990690000000  0.4500570000000 1.0
C      1  0.4466440000000  0.5008810000000  0.5499690000000 1.0
C      1  0.5533550000000  0.5009470000000  0.4500310000000 1.0
C      1  0.4182150000000  0.5124920000000  0.5075450000000 1.0
C      1  0.5817730000000  0.5125710000000  0.4924580000000 1.0
C      1  0.5817880000000  0.4875060000000  0.5075020000000 1.0
C      1  0.4182230000000  0.4874320000000  0.4924940000000 1.0
C      1  0.5437890000000  0.4723100000000  0.4506790000000 1.0
C      1  0.4562360000000  0.4722530000000  0.5493120000000 1.0
C      1  0.4561870000000  0.5277060000000  0.4507090000000 1.0
C      1  0.5437870000000  0.5277320000000  0.5493000000000 1.0
C      1  0.5093820000000  0.4383620000000  0.4675340000000 1.0
C      1  0.4906750000000  0.4383430000000  0.5324470000000 1.0
C      1  0.4906010000000  0.5616480000000  0.4675590000000 1.0
C      1  0.5093410000000  0.5616470000000  0.5324620000000 1.0
C      1  0.5536740000000  0.4473070000000  0.4953070000000 1.0
C      1  0.4463740000000  0.4472550000000  0.5046770000000 1.0
C      1  0.4463240000000  0.5526940000000  0.4953500000000 1.0
C      1  0.5536280000000  0.5527440000000  0.5046680000000 1.0
C      1  0.5035690000000  0.5814910000000  0.5130000000000 1.0
C      1  0.4963550000000  0.5814910000000  0.4870270000000 1.0
C      1  0.4964370000000  0.4185050000000  0.5129760000000 1.0
C      1  0.5036390000000  0.4185130000000  0.4870000000000 1.0
C      1  0.5086610000000  0.5228100000000  0.4885340000000 1.0
C      1  0.4913180000000  0.5227980000000  0.5114720000000 1.0
C      1  0.4913340000000  0.4771940000000  0.4885310000000 1.0
C      1  0.5086880000000  0.4771980000000  0.5114610000000 1.0
C      1  0.4855710000000  0.4988980000000  0.5784940000000 1.0
C      1  0.5144300000000  0.4989360000000  0.4215050000000 1.0
C      1  0.5144670000000  0.5010770000000  0.5784870000000 1.0
C      1  0.4855320000000  0.5010880000000  0.4215120000000 1.0
C      1  0.4414680000000  0.4888120000000  0.4754230000000 1.0
C      1  0.5585420000000  0.4888590000000  0.5245730000000 1.0
C      1  0.5585200000000  0.5111960000000  0.4753980000000 1.0
C      1  0.4414700000000  0.5111330000000  0.5246050000000 1.0
C      1  0.5174400000000  0.4765660000000  0.4402710000000 1.0
C      1  0.4825820000000  0.4765310000000  0.5597200000000 1.0
C      1  0.4825310000000  0.5234530000000  0.4402870000000 1.0
C      1  0.5174470000000  0.5234500000000  0.5597190000000 1.0
C      1  0.5345820000000  0.4889320000000  0.5086110000000 1.0
C      1  0.4654280000000  0.4889020000000  0.4913850000000 1.0
C      1  0.4654220000000  0.5110650000000  0.5086310000000 1.0
C      1  0.5345680000000  0.5111010000000  0.4913720000000 1.0
C      1  0.5233950000000  0.4512370000000  0.5442400000000 1.0
C      1  0.4766500000000  0.4512290000000  0.4557450000000 1.0
C      1  0.4766250000000  0.5487490000000  0.5442660000000 1.0
C      1  0.5233300000000  0.5487840000000  0.4557490000000 1.0
END
