TITL C-3201376-6384-803 -6.17696320807858e-08 125000 -121.790912515425 0 0 20 (1) n - 1
REM
REM in /home/nfs/bkarasulu/CARBON/AIRSS/Generating-Clusters/LCBOP/Higher-Symm/SD-CG/FIRE-CG
REM
REM
REM
REM
REM
REM ./C.cell (b20cbc046b6831c77cfcea5457e17084)
REM AIRSS Version 0.9.1 bugfix July 2018 build 013d7b7c2542+ Fri, 06 Jul 2018 19:26:36 +0100
REM compiler GCC version 9.2.1 20190827 (Red Hat 9.2.1-1)
REM options -cpp -mtune=generic -march=x86-64 -g -O0 -fpre-include=/usr/include/finclude/math-vector-fortran.h
REM seed -1443110157 -692720027 -66530376 -32892425 802461062 563996508 -539177235 -2021485799 -422266138 726708220 -1850779787 612763239 293337057 1203564230 -219475376 1906041708 -315298763 -1141394887 94921757 -661246685 1316534997 -777322113 -1637296027 -1273145124 61422133 1251302931 -1517092563 1991235770 -66339125 1823093256 234262329 106765051 526820896
REM
CELL 1.54180   50.00000   50.00000   50.00000   90.00000   90.00000   90.00000
LATT -1
SFAC C  
C      1  0.4738010000000  0.5806330000000  0.5011370000000 1.0
C      1  0.4152180000000  0.5000000000000  0.5011370000000 1.0
C      1  0.4738010000000  0.4193670000000  0.5011370000000 1.0
C      1  0.5685900000000  0.4501660000000  0.5011370000000 1.0
C      1  0.5685900000000  0.5498340000000  0.5011370000000 1.0
C      1  0.5261990000000  0.5806330000000  0.5011370000000 1.0
C      1  0.5847820000000  0.5000000000000  0.5011370000000 1.0
C      1  0.5261990000000  0.4193670000000  0.5011370000000 1.0
C      1  0.4314100000000  0.4501660000000  0.5011370000000 1.0
C      1  0.4314100000000  0.5498340000000  0.5011370000000 1.0
C      1  0.5000000000000  0.5847820000000  0.5011370000000 1.0
C      1  0.4501660000000  0.4314100000000  0.5011370000000 1.0
C      1  0.5498340000000  0.4314100000000  0.5011370000000 1.0
C      1  0.4193670000000  0.5261990000000  0.5011370000000 1.0
C      1  0.5806330000000  0.5261990000000  0.5011370000000 1.0
C      1  0.5000000000000  0.4152180000000  0.5011370000000 1.0
C      1  0.5498340000000  0.5685900000000  0.5011370000000 1.0
C      1  0.4193670000000  0.4738010000000  0.5011370000000 1.0
C      1  0.4501660000000  0.5685900000000  0.5011370000000 1.0
C      1  0.5806330000000  0.4738010000000  0.5011370000000 1.0
END
