TITL C-3201378-2706-50 -198.603529961005 125000 -747.859830205583 0 0 123 (C1) n - 1
REM
REM in /home/nfs/bkarasulu/CARBON/AIRSS/Generating-Clusters/LCBOP/Higher-Symm/SD-CG/FIRE-CG
REM
REM
REM
REM
REM
REM ./C.cell (b20cbc046b6831c77cfcea5457e17084)
REM AIRSS Version 0.9.1 bugfix July 2018 build 013d7b7c2542+ Fri, 06 Jul 2018 19:26:36 +0100
REM compiler GCC version 9.2.1 20190827 (Red Hat 9.2.1-1)
REM options -cpp -mtune=generic -march=x86-64 -g -O0 -fpre-include=/usr/include/finclude/math-vector-fortran.h
REM seed -597119700 -2138019193 -1793212585 -857543944 992352857 -642913023 912382457 -1065142387 -1614446504 -526469487 361424841 -800406650 -1286921465 -1426692626 1245948402 1757672031 -1636013123 -618004596 1027552997 -543206012 -1133109832 1357951732 -497901162 -1399268101 667711457 595429906 1518201844 -427153522 2013653822 -260594208 -2060009119 2060095729 105925226
REM
CELL 1.54180   50.00000   50.00000   50.00000   90.00000   90.00000   90.00000
LATT -1
SFAC C  
C      1  0.4831310000000  0.6414380000000  0.4475010000000 1.0
C      1  0.3924090000000  0.4128280000000  0.4396200000000 1.0
C      1  0.6370490000000  0.4360280000000  0.4248890000000 1.0
C      1  0.5577990000000  0.4435070000000  0.4390890000000 1.0
C      1  0.5233910000000  0.5725750000000  0.4403170000000 1.0
C      1  0.4231120000000  0.4870730000000  0.4398590000000 1.0
C      1  0.4726520000000  0.4432780000000  0.5833220000000 1.0
C      1  0.5574540000000  0.5051020000000  0.5896440000000 1.0
C      1  0.4686040000000  0.5478080000000  0.5853100000000 1.0
C      1  0.4957600000000  0.3801630000000  0.4831440000000 1.0
C      1  0.5913870000000  0.5163210000000  0.4722000000000 1.0
C      1  0.4053330000000  0.5732720000000  0.4822210000000 1.0
C      1  0.4291030000000  0.4760850000000  0.5016400000000 1.0
C      1  0.5621980000000  0.4528380000000  0.5096300000000 1.0
C      1  0.5157110000000  0.5780320000000  0.5074220000000 1.0
C      1  0.5206660000000  0.4384350000000  0.5787000000000 1.0
C      1  0.5433530000000  0.5504850000000  0.5801580000000 1.0
C      1  0.4379430000000  0.5119000000000  0.5756410000000 1.0
C      1  0.4876790000000  0.5683820000000  0.5782450000000 1.0
C      1  0.4543760000000  0.4624830000000  0.5730860000000 1.0
C      1  0.5526870000000  0.4782120000000  0.5815330000000 1.0
C      1  0.5353590000000  0.5356170000000  0.4056950000000 1.0
C      1  0.4489690000000  0.5175810000000  0.4070680000000 1.0
C      1  0.5134080000000  0.4594500000000  0.4200910000000 1.0
C      1  0.5259270000000  0.4106080000000  0.4584090000000 1.0
C      1  0.5563460000000  0.5413660000000  0.4530320000000 1.0
C      1  0.4132830000000  0.5324500000000  0.4556470000000 1.0
C      1  0.4729730000000  0.4800760000000  0.4797920000000 1.0
C      1  0.5528630000000  0.4989860000000  0.4987990000000 1.0
C      1  0.4893500000000  0.5434180000000  0.4911780000000 1.0
C      1  0.4597460000000  0.5235110000000  0.4526550000000 1.0
C      1  0.5087390000000  0.4527950000000  0.4470820000000 1.0
C      1  0.5142690000000  0.5217550000000  0.4580850000000 1.0
C      1  0.5269300000000  0.4728720000000  0.5332800000000 1.0
C      1  0.5098470000000  0.5418870000000  0.5387140000000 1.0
C      1  0.4602510000000  0.4927950000000  0.5310970000000 1.0
C      1  0.4944870000000  0.4327550000000  0.5682050000000 1.0
C      1  0.5601770000000  0.5282510000000  0.5725970000000 1.0
C      1  0.4463230000000  0.5392450000000  0.5694610000000 1.0
C      1  0.5852650000000  0.4394720000000  0.4331720000000 1.0
C      1  0.5120890000000  0.5981740000000  0.4405650000000 1.0
C      1  0.4096680000000  0.4624150000000  0.4378020000000 1.0
C      1  0.4147650000000  0.5046010000000  0.4622150000000 1.0
C      1  0.5478670000000  0.4288670000000  0.4641740000000 1.0
C      1  0.5411670000000  0.5644000000000  0.4623160000000 1.0
C      1  0.4364910000000  0.4766780000000  0.5297910000000 1.0
C      1  0.5513200000000  0.4586950000000  0.5362730000000 1.0
C      1  0.5108070000000  0.5706180000000  0.5356610000000 1.0
C      1  0.4886580000000  0.5274580000000  0.5939650000000 1.0
C      1  0.4838400000000  0.4996760000000  0.5916640000000 1.0
C      1  0.5055060000000  0.4819170000000  0.5952660000000 1.0
C      1  0.5125880000000  0.5288830000000  0.4849760000000 1.0
C      1  0.4656180000000  0.5075030000000  0.4751690000000 1.0
C      1  0.5198340000000  0.4713930000000  0.4659570000000 1.0
C      1  0.4260380000000  0.5863900000000  0.4675820000000 1.0
C      1  0.4738690000000  0.3895820000000  0.4674180000000 1.0
C      1  0.5775290000000  0.4919750000000  0.4622210000000 1.0
C      1  0.5403050000000  0.5172480000000  0.4497920000000 1.0
C      1  0.4395300000000  0.5431150000000  0.4493760000000 1.0
C      1  0.5023600000000  0.4257820000000  0.4514960000000 1.0
C      1  0.5756580000000  0.5227520000000  0.5476360000000 1.0
C      1  0.4409070000000  0.5549070000000  0.5445760000000 1.0
C      1  0.4872100000000  0.4243370000000  0.5412570000000 1.0
C      1  0.5942570000000  0.5252190000000  0.4996250000000 1.0
C      1  0.4082810000000  0.5692780000000  0.5100350000000 1.0
C      1  0.4953090000000  0.3859500000000  0.5108490000000 1.0
C      1  0.4838470000000  0.5316850000000  0.5412580000000 1.0
C      1  0.4829130000000  0.4767120000000  0.5311070000000 1.0
C      1  0.5272760000000  0.4984810000000  0.5453700000000 1.0
C      1  0.5321250000000  0.5180250000000  0.5032110000000 1.0
C      1  0.4687810000000  0.5253390000000  0.4972310000000 1.0
C      1  0.5011930000000  0.4746380000000  0.4875040000000 1.0
C      1  0.3852470000000  0.5002830000000  0.5772990000000 1.0
C      1  0.5572190000000  0.3989850000000  0.5824690000000 1.0
C      1  0.5650540000000  0.5998930000000  0.5777590000000 1.0
C      1  0.5459940000000  0.5111010000000  0.4009080000000 1.0
C      1  0.4676300000000  0.5367600000000  0.4035590000000 1.0
C      1  0.4896850000000  0.4667060000000  0.4068600000000 1.0
C      1  0.5052870000000  0.4706140000000  0.5154940000000 1.0
C      1  0.5272190000000  0.5221990000000  0.5307030000000 1.0
C      1  0.4660580000000  0.5187480000000  0.5241990000000 1.0
C      1  0.6113250000000  0.4375080000000  0.4288490000000 1.0
C      1  0.4981430000000  0.6205070000000  0.4434930000000 1.0
C      1  0.4003100000000  0.4376370000000  0.4383300000000 1.0
C      1  0.5729720000000  0.4783210000000  0.5030040000000 1.0
C      1  0.4897160000000  0.5712380000000  0.4957790000000 1.0
C      1  0.4517170000000  0.4621380000000  0.4888230000000 1.0
C      1  0.4443670000000  0.4542020000000  0.5466950000000 1.0
C      1  0.5670270000000  0.4722140000000  0.5571810000000 1.0
C      1  0.4871960000000  0.5787700000000  0.5520120000000 1.0
C      1  0.4439770000000  0.4923190000000  0.4194540000000 1.0
C      1  0.5425120000000  0.4608310000000  0.4185630000000 1.0
C      1  0.5169270000000  0.5540590000000  0.4180250000000 1.0
C      1  0.5940780000000  0.4858700000000  0.5206540000000 1.0
C      1  0.4665970000000  0.5816420000000  0.5091290000000 1.0
C      1  0.4579750000000  0.4377140000000  0.5026230000000 1.0
C      1  0.4617840000000  0.5756620000000  0.5369270000000 1.0
C      1  0.4611710000000  0.4345060000000  0.5312380000000 1.0
C      1  0.5841670000000  0.4939220000000  0.5461730000000 1.0
C      1  0.5783400000000  0.5378440000000  0.5209300000000 1.0
C      1  0.4208270000000  0.5476150000000  0.5238850000000 1.0
C      1  0.5045150000000  0.4101360000000  0.5227730000000 1.0
C      1  0.5840160000000  0.5380090000000  0.4552510000000 1.0
C      1  0.3951320000000  0.5509280000000  0.4672920000000 1.0
C      1  0.5208110000000  0.3850520000000  0.4697370000000 1.0
C      1  0.4775750000000  0.4123180000000  0.4528060000000 1.0
C      1  0.5485710000000  0.4907990000000  0.4567170000000 1.0
C      1  0.4422210000000  0.5712470000000  0.4516210000000 1.0
C      1  0.4169370000000  0.4998340000000  0.4912790000000 1.0
C      1  0.5485990000000  0.4335420000000  0.4938940000000 1.0
C      1  0.5404460000000  0.5702270000000  0.4926380000000 1.0
C      1  0.5392350000000  0.4178310000000  0.5818270000000 1.0
C      1  0.5548930000000  0.5760140000000  0.5801210000000 1.0
C      1  0.4106470000000  0.5060940000000  0.5776050000000 1.0
C      1  0.5271570000000  0.4654350000000  0.5870760000000 1.0
C      1  0.5163980000000  0.5477930000000  0.5879340000000 1.0
C      1  0.4577470000000  0.4907940000000  0.5813150000000 1.0
C      1  0.5615620000000  0.5592650000000  0.5101680000000 1.0
C      1  0.4158920000000  0.5220310000000  0.5106820000000 1.0
C      1  0.5279600000000  0.4204480000000  0.5099080000000 1.0
C      1  0.4640160000000  0.4731810000000  0.4124280000000 1.0
C      1  0.5513740000000  0.4848730000000  0.4055580000000 1.0
C      1  0.4898590000000  0.5505140000000  0.4097820000000 1.0
END
