TITL C-3201372-1405-585 338707.960744903 125000 -886.42581574138 0 0 154 (C1) n - 1
REM
REM in /home/nfs/bkarasulu/CARBON/AIRSS/Generating-Clusters/LCBOP/Higher-Symm/SD-CG/FIRE-CG
REM
REM
REM
REM
REM
REM ./C.cell (b20cbc046b6831c77cfcea5457e17084)
REM AIRSS Version 0.9.1 bugfix July 2018 build 013d7b7c2542+ Fri, 06 Jul 2018 19:26:36 +0100
REM compiler GCC version 9.2.1 20190827 (Red Hat 9.2.1-1)
REM options -cpp -mtune=generic -march=x86-64 -g -O0 -fpre-include=/usr/include/finclude/math-vector-fortran.h
REM seed 104194438 1669214323 929065403 1475534820 730813162 658077744 1288069803 -614705110 -1641970274 193867884 -975938962 -748140269 -69204561 -1793034291 2012296073 -1739590225 -767253512 -451113539 -2040516763 -533886398 -913144847 348160634 -2023410019 -103416874 1999520647 781531508 -1527892903 -603257405 198446496 2076299272 2082548390 -1046894018 439226379
REM
CELL 1.54180   50.00000   50.00000   50.00000   90.00000   90.00000   90.00000
LATT -1
SFAC C  
C      1  0.5789230000000  0.5206970000000  0.5783620000000 1.0
C      1  0.5704190000000  0.4573640000000  0.4274740000000 1.0
C      1  0.5213880000000  0.4206720000000  0.5701700000000 1.0
C      1  0.4593800000000  0.4314850000000  0.4214360000000 1.0
C      1  0.4197920000000  0.4778290000000  0.5706390000000 1.0
C      1  0.4288970000000  0.5413320000000  0.4232900000000 1.0
C      1  0.4790440000000  0.5755660000000  0.5739620000000 1.0
C      1  0.5395860000000  0.5696900000000  0.4282920000000 1.0
C      1  0.5032930000000  0.4456640000000  0.4322860000000 1.0
C      1  0.4623710000000  0.4561490000000  0.5708310000000 1.0
C      1  0.4452800000000  0.4976260000000  0.4332880000000 1.0
C      1  0.4539690000000  0.5355010000000  0.5695830000000 1.0
C      1  0.4926250000000  0.5593630000000  0.4297390000000 1.0
C      1  0.5381530000000  0.5389600000000  0.5643510000000 1.0
C      1  0.5558660000000  0.5017850000000  0.4323470000000 1.0
C      1  0.5430590000000  0.4634020000000  0.5689550000000 1.0
C      1  0.5019280000000  0.4730250000000  0.5956980000000 1.0
C      1  0.4829890000000  0.4821900000000  0.4024030000000 1.0
C      1  0.4730880000000  0.4962450000000  0.5949660000000 1.0
C      1  0.4795400000000  0.5185690000000  0.4027080000000 1.0
C      1  0.4977620000000  0.5232800000000  0.5947650000000 1.0
C      1  0.5156590000000  0.5198930000000  0.4049470000000 1.0
C      1  0.5248100000000  0.5005080000000  0.5966070000000 1.0
C      1  0.5190130000000  0.4839540000000  0.4041640000000 1.0
C      1  0.5709900000000  0.4192850000000  0.5287900000000 1.0
C      1  0.4940090000000  0.3980660000000  0.4754720000000 1.0
C      1  0.4182170000000  0.4305770000000  0.5250340000000 1.0
C      1  0.3969940000000  0.5096340000000  0.4758090000000 1.0
C      1  0.4294540000000  0.5826090000000  0.5262840000000 1.0
C      1  0.5068430000000  0.6061340000000  0.4743740000000 1.0
C      1  0.5783070000000  0.5636490000000  0.5219400000000 1.0
C      1  0.6118340000000  0.4897070000000  0.4754550000000 1.0
C      1  0.4570870000000  0.5357960000000  0.4868810000000 1.0
C      1  0.4939100000000  0.5537440000000  0.5150160000000 1.0
C      1  0.5318620000000  0.5407200000000  0.4815120000000 1.0
C      1  0.5601460000000  0.5067650000000  0.5124180000000 1.0
C      1  0.5475930000000  0.4606200000000  0.4867040000000 1.0
C      1  0.5054900000000  0.4486870000000  0.5149480000000 1.0
C      1  0.4635900000000  0.4573900000000  0.4853380000000 1.0
C      1  0.4450870000000  0.4942980000000  0.5158950000000 1.0
C      1  0.4439430000000  0.4217140000000  0.4562050000000 1.0
C      1  0.4071040000000  0.4841820000000  0.5440890000000 1.0
C      1  0.4215920000000  0.5559760000000  0.4573660000000 1.0
C      1  0.4840490000000  0.5923610000000  0.5430930000000 1.0
C      1  0.5533890000000  0.5743490000000  0.4545690000000 1.0
C      1  0.5971380000000  0.5163230000000  0.5436780000000 1.0
C      1  0.5791070000000  0.4419580000000  0.4589510000000 1.0
C      1  0.5159950000000  0.4090570000000  0.5428550000000 1.0
C      1  0.4067540000000  0.5325750000000  0.5626830000000 1.0
C      1  0.4560480000000  0.5887740000000  0.4381760000000 1.0
C      1  0.5334140000000  0.5868950000000  0.5596740000000 1.0
C      1  0.5868510000000  0.5389530000000  0.4374110000000 1.0
C      1  0.5909420000000  0.4692180000000  0.5636550000000 1.0
C      1  0.5377120000000  0.4129780000000  0.4369630000000 1.0
C      1  0.4676860000000  0.4091340000000  0.5614910000000 1.0
C      1  0.4147370000000  0.4604340000000  0.4388020000000 1.0
C      1  0.5018930000000  0.4384430000000  0.5845280000000 1.0
C      1  0.4577440000000  0.4586510000000  0.4119390000000 1.0
C      1  0.4377540000000  0.4971630000000  0.5854800000000 1.0
C      1  0.4549380000000  0.5443600000000  0.4110240000000 1.0
C      1  0.4995250000000  0.5569890000000  0.5837140000000 1.0
C      1  0.5405560000000  0.5425070000000  0.4159180000000 1.0
C      1  0.5604920000000  0.5007030000000  0.5888880000000 1.0
C      1  0.5433890000000  0.4581810000000  0.4142070000000 1.0
C      1  0.4667410000000  0.5088040000000  0.4787830000000 1.0
C      1  0.4765280000000  0.5348710000000  0.5280190000000 1.0
C      1  0.5061760000000  0.5412560000000  0.4707520000000 1.0
C      1  0.5331500000000  0.5167930000000  0.5206050000000 1.0
C      1  0.5463630000000  0.4853570000000  0.4738370000000 1.0
C      1  0.5211470000000  0.4714220000000  0.5244380000000 1.0
C      1  0.4906760000000  0.4676080000000  0.4762990000000 1.0
C      1  0.4652490000000  0.4779660000000  0.5271200000000 1.0
C      1  0.3896380000000  0.4793490000000  0.5146330000000 1.0
C      1  0.4060000000000  0.5648020000000  0.4866200000000 1.0
C      1  0.4785600000000  0.6109480000000  0.5144570000000 1.0
C      1  0.5626400000000  0.5904740000000  0.4834250000000 1.0
C      1  0.6144550000000  0.5208220000000  0.5136620000000 1.0
C      1  0.5960150000000  0.4354170000000  0.4888000000000 1.0
C      1  0.5208310000000  0.3935340000000  0.5169520000000 1.0
C      1  0.4356660000000  0.4064110000000  0.4857280000000 1.0
C      1  0.5969670000000  0.5328700000000  0.4634720000000 1.0
C      1  0.5924500000000  0.4596590000000  0.5367650000000 1.0
C      1  0.5384780000000  0.4146330000000  0.4674680000000 1.0
C      1  0.4581950000000  0.4085630000000  0.5345810000000 1.0
C      1  0.4078090000000  0.4658190000000  0.4659270000000 1.0
C      1  0.4069000000000  0.5427750000000  0.5358700000000 1.0
C      1  0.4624890000000  0.5946610000000  0.4655530000000 1.0
C      1  0.5405090000000  0.5880140000000  0.5321450000000 1.0
C      1  0.4847090000000  0.4254810000000  0.4279290000000 1.0
C      1  0.4347450000000  0.4541930000000  0.5724810000000 1.0
C      1  0.4241810000000  0.5152650000000  0.4287610000000 1.0
C      1  0.4545730000000  0.5630830000000  0.5751420000000 1.0
C      1  0.5130530000000  0.5782660000000  0.4258760000000 1.0
C      1  0.5652710000000  0.5429410000000  0.5714930000000 1.0
C      1  0.5776320000000  0.4841610000000  0.4272030000000 1.0
C      1  0.5448360000000  0.4357670000000  0.5719480000000 1.0
C      1  0.5524770000000  0.5482480000000  0.4655340000000 1.0
C      1  0.5768340000000  0.5025020000000  0.5335180000000 1.0
C      1  0.5540560000000  0.4397220000000  0.4698830000000 1.0
C      1  0.4985720000000  0.4293200000000  0.5325340000000 1.0
C      1  0.4485260000000  0.4460180000000  0.4659430000000 1.0
C      1  0.4258280000000  0.5022800000000  0.5332870000000 1.0
C      1  0.4462650000000  0.5513410000000  0.4673540000000 1.0
C      1  0.5008780000000  0.5741150000000  0.5317970000000 1.0
C      1  0.4670430000000  0.5675790000000  0.4218040000000 1.0
C      1  0.5240660000000  0.5622840000000  0.5717520000000 1.0
C      1  0.5626430000000  0.5282400000000  0.4255140000000 1.0
C      1  0.5662090000000  0.4763690000000  0.5767940000000 1.0
C      1  0.5282680000000  0.4371110000000  0.4240320000000 1.0
C      1  0.4760360000000  0.4327930000000  0.5758130000000 1.0
C      1  0.4377800000000  0.4719490000000  0.4257620000000 1.0
C      1  0.4298830000000  0.5231720000000  0.5771960000000 1.0
C      1  0.4602620000000  0.4534020000000  0.5136760000000 1.0
C      1  0.4422360000000  0.4939100000000  0.4874180000000 1.0
C      1  0.4519150000000  0.5407930000000  0.5144650000000 1.0
C      1  0.4930280000000  0.5607170000000  0.4868240000000 1.0
C      1  0.5349460000000  0.5435400000000  0.5094620000000 1.0
C      1  0.5655600000000  0.5023760000000  0.4850330000000 1.0
C      1  0.5481150000000  0.4610640000000  0.5154910000000 1.0
C      1  0.5059090000000  0.4450330000000  0.4869880000000 1.0
C      1  0.4884680000000  0.5852080000000  0.4726110000000 1.0
C      1  0.5505760000000  0.5626480000000  0.5236390000000 1.0
C      1  0.5898990000000  0.5063000000000  0.4708620000000 1.0
C      1  0.5676660000000  0.4470010000000  0.5303880000000 1.0
C      1  0.5101620000000  0.4207330000000  0.4737220000000 1.0
C      1  0.4458150000000  0.4333590000000  0.5277840000000 1.0
C      1  0.4179250000000  0.4914660000000  0.4733420000000 1.0
C      1  0.4319500000000  0.5549630000000  0.5291210000000 1.0
C      1  0.3936590000000  0.5404980000000  0.5101410000000 1.0
C      1  0.4520910000000  0.6033560000000  0.4912430000000 1.0
C      1  0.5392090000000  0.6033150000000  0.5075920000000 1.0
C      1  0.6045010000000  0.5451910000000  0.4888030000000 1.0
C      1  0.6073230000000  0.4604850000000  0.5118110000000 1.0
C      1  0.5470110000000  0.4000440000000  0.4937890000000 1.0
C      1  0.4608350000000  0.3952940000000  0.5088200000000 1.0
C      1  0.3980370000000  0.4541160000000  0.4904700000000 1.0
C      1  0.4274440000000  0.5907950000000  0.4997840000000 1.0
C      1  0.5125840000000  0.6131740000000  0.5005580000000 1.0
C      1  0.5886680000000  0.5684040000000  0.4966200000000 1.0
C      1  0.6173180000000  0.4862650000000  0.5025320000000 1.0
C      1  0.5732590000000  0.4099510000000  0.5027650000000 1.0
C      1  0.4882730000000  0.3891010000000  0.5011330000000 1.0
C      1  0.4099850000000  0.4288250000000  0.4985650000000 1.0
C      1  0.3872800000000  0.5134200000000  0.5015630000000 1.0
C      1  0.4726280000000  0.5207160000000  0.5523030000000 1.0
C      1  0.4942240000000  0.5354050000000  0.4461040000000 1.0
C      1  0.5288050000000  0.5156770000000  0.5503740000000 1.0
C      1  0.5333320000000  0.4909930000000  0.4493170000000 1.0
C      1  0.5166470000000  0.4814730000000  0.5525050000000 1.0
C      1  0.4994850000000  0.4776600000000  0.4489240000000 1.0
C      1  0.4795230000000  0.4841230000000  0.5515210000000 1.0
C      1  0.4760620000000  0.5058150000000  0.4474580000000 1.0
C      1  0.4916360000000  0.4949040000000  0.4914960000000 1.0
C      1  0.5132360000000  0.4971580000000  0.5092290000000 1.0
END
