TITL C-3201377-4638-1751 -1.93189681647336 125000 -286.628054247013 0 0 49 (C1) n - 1
REM
REM in /home/nfs/bkarasulu/CARBON/AIRSS/Generating-Clusters/LCBOP/Higher-Symm/SD-CG/FIRE-CG
REM
REM
REM
REM
REM
REM ./C.cell (b20cbc046b6831c77cfcea5457e17084)
REM AIRSS Version 0.9.1 bugfix July 2018 build 013d7b7c2542+ Fri, 06 Jul 2018 19:26:36 +0100
REM compiler GCC version 9.2.1 20190827 (Red Hat 9.2.1-1)
REM options -cpp -mtune=generic -march=x86-64 -g -O0 -fpre-include=/usr/include/finclude/math-vector-fortran.h
REM seed 477340081 1078680164 912962135 661771266 -364616879 -1786932072 441547121 -567158187 1671748319 -748999647 -582854896 -2126086208 -155334352 435123757 1416328536 1979456153 -1247020940 -1325076641 1018542105 -1789843867 -1390699819 1738158302 1930786675 1603451573 -1415256123 972934778 1723024457 -53720155 -556509090 -1138172464 670751543 -1893306200 2078872046
REM
CELL 1.54180   50.00000   50.00000   50.00000   90.00000   90.00000   90.00000
LATT -1
SFAC C  
C      1  0.4617580000000  0.4746060000000  0.5365560000000 1.0
C      1  0.5798450000000  0.6070120000000  0.5017980000000 1.0
C      1  0.5005770000000  0.6012500000000  0.3907500000000 1.0
C      1  0.4279840000000  0.3844600000000  0.4315930000000 1.0
C      1  0.4998850000000  0.5828130000000  0.4533080000000 1.0
C      1  0.4226790000000  0.4431570000000  0.4594440000000 1.0
C      1  0.4939680000000  0.5514070000000  0.5178960000000 1.0
C      1  0.4864520000000  0.3946130000000  0.5133820000000 1.0
C      1  0.4704970000000  0.5713820000000  0.4146440000000 1.0
C      1  0.4043670000000  0.4243720000000  0.4169670000000 1.0
C      1  0.4775830000000  0.4929850000000  0.5506140000000 1.0
C      1  0.6012230000000  0.6223120000000  0.5050900000000 1.0
C      1  0.5571480000000  0.5912540000000  0.4977700000000 1.0
C      1  0.4515190000000  0.4495450000000  0.5294500000000 1.0
C      1  0.4377930000000  0.4308600000000  0.4796790000000 1.0
C      1  0.5233820000000  0.5982000000000  0.4538950000000 1.0
C      1  0.5164000000000  0.5370260000000  0.5242740000000 1.0
C      1  0.4975610000000  0.4048590000000  0.5370020000000 1.0
C      1  0.5066770000000  0.4419980000000  0.5879470000000 1.0
C      1  0.5552800000000  0.5217520000000  0.5721520000000 1.0
C      1  0.5409620000000  0.5955060000000  0.4754310000000 1.0
C      1  0.4411890000000  0.4441240000000  0.5041080000000 1.0
C      1  0.4798080000000  0.5843460000000  0.3929520000000 1.0
C      1  0.4124860000000  0.3987730000000  0.4149550000000 1.0
C      1  0.5189310000000  0.6120480000000  0.4069020000000 1.0
C      1  0.4410690000000  0.3884070000000  0.4545560000000 1.0
C      1  0.5331480000000  0.4356790000000  0.5493280000000 1.0
C      1  0.5056850000000  0.4940060000000  0.5461190000000 1.0
C      1  0.4495590000000  0.4049370000000  0.4756260000000 1.0
C      1  0.5297030000000  0.6162200000000  0.4325370000000 1.0
C      1  0.4794280000000  0.4151220000000  0.5567850000000 1.0
C      1  0.5404710000000  0.5504880000000  0.5316950000000 1.0
C      1  0.4094020000000  0.4423730000000  0.4362670000000 1.0
C      1  0.4796830000000  0.5715750000000  0.4398950000000 1.0
C      1  0.6222360000000  0.6374130000000  0.5082570000000 1.0
C      1  0.4661120000000  0.5099230000000  0.5688120000000 1.0
C      1  0.5235760000000  0.4538850000000  0.5686330000000 1.0
C      1  0.5435910000000  0.4980720000000  0.5760790000000 1.0
C      1  0.5505650000000  0.5712170000000  0.5160530000000 1.0
C      1  0.4565350000000  0.4281070000000  0.5469230000000 1.0
C      1  0.5442300000000  0.3929620000000  0.5295690000000 1.0
C      1  0.5245310000000  0.4950210000000  0.5014960000000 1.0
C      1  0.5538780000000  0.5419520000000  0.5547800000000 1.0
C      1  0.4887030000000  0.4226130000000  0.5823530000000 1.0
C      1  0.4698730000000  0.3959010000000  0.4926720000000 1.0
C      1  0.5459630000000  0.6377930000000  0.4370990000000 1.0
C      1  0.5157130000000  0.5084990000000  0.5236520000000 1.0
C      1  0.5255040000000  0.4108540000000  0.5382970000000 1.0
C      1  0.5241020000000  0.4817120000000  0.5643330000000 1.0
END
