TITL C-3201377-4638-877 0.0290000521393527 125000 -272.79414625851 0 0 48 (C1) n - 1
REM
REM in /home/nfs/bkarasulu/CARBON/AIRSS/Generating-Clusters/LCBOP/Higher-Symm/SD-CG/FIRE-CG
REM
REM
REM
REM
REM
REM ./C.cell (b20cbc046b6831c77cfcea5457e17084)
REM AIRSS Version 0.9.1 bugfix July 2018 build 013d7b7c2542+ Fri, 06 Jul 2018 19:26:36 +0100
REM compiler GCC version 9.2.1 20190827 (Red Hat 9.2.1-1)
REM options -cpp -mtune=generic -march=x86-64 -g -O0 -fpre-include=/usr/include/finclude/math-vector-fortran.h
REM seed 1482706141 1250344019 -543532608 82887178 -959722822 -1131081084 -930461885 -316894832 1632056768 -613074044 -1489830661 1413316747 -1529007541 1722794680 -518338976 103198874 1460858789 -359017599 -1831531573 -86632081 -1091144298 196184391 -1659724277 1426466154 1710729551 -1767913249 -1132985442 1714658486 975021598 1391947381 -70123444 213480786 1489849868
REM
CELL 1.54180   50.00000   50.00000   50.00000   90.00000   90.00000   90.00000
LATT -1
SFAC C  
C      1  0.4440740000000  0.4836060000000  0.5627390000000 1.0
C      1  0.5610050000000  0.4933300000000  0.5365730000000 1.0
C      1  0.5833870000000  0.4894880000000  0.5493530000000 1.0
C      1  0.4627320000000  0.4895230000000  0.5455350000000 1.0
C      1  0.4911230000000  0.5704970000000  0.5283790000000 1.0
C      1  0.5111500000000  0.5698670000000  0.4640600000000 1.0
C      1  0.5203250000000  0.5695770000000  0.5288980000000 1.0
C      1  0.4832690000000  0.5708400000000  0.4726180000000 1.0
C      1  0.5143030000000  0.5409070000000  0.5672770000000 1.0
C      1  0.4697480000000  0.5389920000000  0.4402700000000 1.0
C      1  0.4869390000000  0.5386340000000  0.5630100000000 1.0
C      1  0.4949670000000  0.5408310000000  0.4288780000000 1.0
C      1  0.4962250000000  0.4706690000000  0.5118070000000 1.0
C      1  0.5330110000000  0.4781290000000  0.4784000000000 1.0
C      1  0.5253380000000  0.4783320000000  0.5061110000000 1.0
C      1  0.4824820000000  0.4704680000000  0.4844380000000 1.0
C      1  0.4813950000000  0.4030590000000  0.5580320000000 1.0
C      1  0.4882700000000  0.4330960000000  0.4462300000000 1.0
C      1  0.4619850000000  0.4082580000000  0.5774850000000 1.0
C      1  0.5132330000000  0.4278740000000  0.4352140000000 1.0
C      1  0.4867180000000  0.5211550000000  0.4844480000000 1.0
C      1  0.5228120000000  0.5221000000000  0.5246610000000 1.0
C      1  0.5152000000000  0.5222620000000  0.4679610000000 1.0
C      1  0.4913520000000  0.5214390000000  0.5160160000000 1.0
C      1  0.4760880000000  0.5903330000000  0.5157640000000 1.0
C      1  0.5305910000000  0.5812480000000  0.4808160000000 1.0
C      1  0.5343600000000  0.5811010000000  0.5074880000000 1.0
C      1  0.4723700000000  0.5905160000000  0.4891190000000 1.0
C      1  0.4711790000000  0.5446130000000  0.4689580000000 1.0
C      1  0.5282150000000  0.5447560000000  0.5420290000000 1.0
C      1  0.5150430000000  0.5449880000000  0.4493740000000 1.0
C      1  0.4804540000000  0.5440700000000  0.5349460000000 1.0
C      1  0.4926710000000  0.3782250000000  0.5560040000000 1.0
C      1  0.4642660000000  0.4220030000000  0.4407440000000 1.0
C      1  0.4438400000000  0.4140560000000  0.5952730000000 1.0
C      1  0.5329780000000  0.4183230000000  0.4210640000000 1.0
C      1  0.5372170000000  0.4979310000000  0.5229810000000 1.0
C      1  0.4704820000000  0.4955420000000  0.4775770000000 1.0
C      1  0.4825890000000  0.4935920000000  0.5263860000000 1.0
C      1  0.5368740000000  0.5039590000000  0.4672690000000 1.0
C      1  0.5847350000000  0.5186330000000  0.4472060000000 1.0
C      1  0.4443830000000  0.4966330000000  0.4678130000000 1.0
C      1  0.4196400000000  0.4956800000000  0.4596840000000 1.0
C      1  0.5616110000000  0.5111530000000  0.4566080000000 1.0
C      1  0.4891260000000  0.4235760000000  0.5406830000000 1.0
C      1  0.4941520000000  0.4535830000000  0.4652170000000 1.0
C      1  0.4940400000000  0.4450250000000  0.5259800000000 1.0
C      1  0.5220570000000  0.4575290000000  0.4626280000000 1.0
END
