TITL C-3201372-1405-799 270478.454627932 125000 -698.487453474601 0 0 115 (C1) n - 1
REM
REM in /home/nfs/bkarasulu/CARBON/AIRSS/Generating-Clusters/LCBOP/Higher-Symm/SD-CG/FIRE-CG
REM
REM
REM
REM
REM
REM ./C.cell (b20cbc046b6831c77cfcea5457e17084)
REM AIRSS Version 0.9.1 bugfix July 2018 build 013d7b7c2542+ Fri, 06 Jul 2018 19:26:36 +0100
REM compiler GCC version 9.2.1 20190827 (Red Hat 9.2.1-1)
REM options -cpp -mtune=generic -march=x86-64 -g -O0 -fpre-include=/usr/include/finclude/math-vector-fortran.h
REM seed -1186183709 -1445984383 -648633588 -1044977222 -1155061892 -1000891564 320910085 -1970209166 -249111083 -1691882925 -1614948113 1562888867 -150442297 256307138 527288545 31517655 278144286 1769532556 -1410605108 -1205480158 1039133835 -1890528571 1846695142 -839742283 -1694952981 -117259927 531549125 -1421567172 -1358639086 -1354804447 -1468659720 1010928533 -172052487
REM
CELL 1.54180   50.00000   50.00000   50.00000   90.00000   90.00000   90.00000
LATT -1
SFAC C  
C      1  0.5162360000000  0.5472820000000  0.5206800000000 1.0
C      1  0.5234490000000  0.5485360000000  0.4904020000000 1.0
C      1  0.4986270000000  0.5527710000000  0.4755960000000 1.0
C      1  0.4749460000000  0.5477100000000  0.4934460000000 1.0
C      1  0.4867970000000  0.5551790000000  0.5199820000000 1.0
C      1  0.5214970000000  0.3833500000000  0.5168560000000 1.0
C      1  0.5199090000000  0.3881920000000  0.4824880000000 1.0
C      1  0.4873840000000  0.3847970000000  0.4720680000000 1.0
C      1  0.4703130000000  0.3821050000000  0.5024530000000 1.0
C      1  0.4907760000000  0.3861660000000  0.5294880000000 1.0
C      1  0.4900240000000  0.4957720000000  0.4515560000000 1.0
C      1  0.4499710000000  0.4996910000000  0.4938630000000 1.0
C      1  0.4794890000000  0.4954080000000  0.5453960000000 1.0
C      1  0.5382770000000  0.4997470000000  0.5352470000000 1.0
C      1  0.5442160000000  0.4975570000000  0.4746050000000 1.0
C      1  0.4793460000000  0.4678280000000  0.4914130000000 1.0
C      1  0.4866290000000  0.4604340000000  0.5188300000000 1.0
C      1  0.5139820000000  0.4685800000000  0.5175190000000 1.0
C      1  0.5241270000000  0.4600030000000  0.4910120000000 1.0
C      1  0.5001810000000  0.4567090000000  0.4740760000000 1.0
C      1  0.4747980000000  0.5167550000000  0.4962990000000 1.0
C      1  0.4892660000000  0.5100480000000  0.5231340000000 1.0
C      1  0.5182270000000  0.5172320000000  0.5221250000000 1.0
C      1  0.5235670000000  0.5141410000000  0.4859530000000 1.0
C      1  0.4962830000000  0.5108520000000  0.4752280000000 1.0
C      1  0.5295760000000  0.4793380000000  0.4142510000000 1.0
C      1  0.4277550000000  0.4794000000000  0.4450190000000 1.0
C      1  0.4259900000000  0.4790530000000  0.5504290000000 1.0
C      1  0.5256780000000  0.4788260000000  0.5859410000000 1.0
C      1  0.5909250000000  0.4795600000000  0.5030110000000 1.0
C      1  0.5253300000000  0.5272760000000  0.4169560000000 1.0
C      1  0.4285810000000  0.5273820000000  0.4499420000000 1.0
C      1  0.4304950000000  0.5271620000000  0.5519890000000 1.0
C      1  0.5279130000000  0.5270240000000  0.5825680000000 1.0
C      1  0.5872080000000  0.5275180000000  0.4986520000000 1.0
C      1  0.4127870000000  0.4615180000000  0.4898130000000 1.0
C      1  0.4635830000000  0.4608230000000  0.5797100000000 1.0
C      1  0.5656590000000  0.4616010000000  0.5613490000000 1.0
C      1  0.5762910000000  0.4610300000000  0.4567020000000 1.0
C      1  0.4812980000000  0.4617790000000  0.4124130000000 1.0
C      1  0.4807510000000  0.4155750000000  0.4526870000000 1.0
C      1  0.4507030000000  0.4166510000000  0.5018100000000 1.0
C      1  0.4860000000000  0.4165680000000  0.5450390000000 1.0
C      1  0.5404000000000  0.4149360000000  0.5325700000000 1.0
C      1  0.5373150000000  0.4174800000000  0.4714560000000 1.0
C      1  0.4212310000000  0.5040990000000  0.5370440000000 1.0
C      1  0.5110610000000  0.5035810000000  0.5862870000000 1.0
C      1  0.5869430000000  0.5047900000000  0.5166070000000 1.0
C      1  0.5417160000000  0.5040770000000  0.4228630000000 1.0
C      1  0.4398490000000  0.5041700000000  0.4366880000000 1.0
C      1  0.4137730000000  0.5280350000000  0.4963040000000 1.0
C      1  0.4705490000000  0.5271030000000  0.5787300000000 1.0
C      1  0.5678570000000  0.5283890000000  0.5543040000000 1.0
C      1  0.5713260000000  0.5276000000000  0.4525520000000 1.0
C      1  0.4771470000000  0.5273310000000  0.4190080000000 1.0
C      1  0.5915160000000  0.4842780000000  0.4728190000000 1.0
C      1  0.5014820000000  0.4846780000000  0.4042370000000 1.0
C      1  0.4095770000000  0.4844110000000  0.4686580000000 1.0
C      1  0.4425060000000  0.4839500000000  0.5753850000000 1.0
C      1  0.5546570000000  0.4843040000000  0.5790750000000 1.0
C      1  0.4496870000000  0.5611670000000  0.4837870000000 1.0
C      1  0.4684280000000  0.5631890000000  0.5430030000000 1.0
C      1  0.5310410000000  0.5613360000000  0.5429460000000 1.0
C      1  0.5498630000000  0.5613140000000  0.4838630000000 1.0
C      1  0.4998640000000  0.5624630000000  0.4469590000000 1.0
C      1  0.5001600000000  0.5162770000000  0.4058870000000 1.0
C      1  0.4096710000000  0.5163370000000  0.4701380000000 1.0
C      1  0.4442530000000  0.5158240000000  0.5755900000000 1.0
C      1  0.5552790000000  0.5162600000000  0.5776590000000 1.0
C      1  0.5901040000000  0.5162030000000  0.4713790000000 1.0
C      1  0.4534310000000  0.5908570000000  0.4844180000000 1.0
C      1  0.4694910000000  0.5932820000000  0.5405000000000 1.0
C      1  0.5278570000000  0.5909140000000  0.5400040000000 1.0
C      1  0.5464430000000  0.5910370000000  0.4855430000000 1.0
C      1  0.5003060000000  0.5923990000000  0.4502620000000 1.0
C      1  0.4837530000000  0.5509720000000  0.5676130000000 1.0
C      1  0.5602140000000  0.5514690000000  0.5370950000000 1.0
C      1  0.5532710000000  0.5510020000000  0.4543800000000 1.0
C      1  0.4730000000000  0.5510230000000  0.4358280000000 1.0
C      1  0.4295970000000  0.5513050000000  0.5056220000000 1.0
C      1  0.5286420000000  0.4606070000000  0.4359940000000 1.0
C      1  0.4491720000000  0.4618480000000  0.4533450000000 1.0
C      1  0.4400090000000  0.4606710000000  0.5331570000000 1.0
C      1  0.5144200000000  0.4612050000000  0.5657580000000 1.0
C      1  0.5686700000000  0.4620410000000  0.5089480000000 1.0
C      1  0.4666710000000  0.4448380000000  0.4344830000000 1.0
C      1  0.4306600000000  0.4448380000000  0.5093410000000 1.0
C      1  0.4884640000000  0.4438170000000  0.5681520000000 1.0
C      1  0.5625210000000  0.4444070000000  0.5355930000000 1.0
C      1  0.5499190000000  0.4444140000000  0.4498750000000 1.0
C      1  0.5274670000000  0.5498940000000  0.4364160000000 1.0
C      1  0.4477520000000  0.5498040000000  0.4541100000000 1.0
C      1  0.4400800000000  0.5500900000000  0.5352420000000 1.0
C      1  0.5150350000000  0.5498120000000  0.5681200000000 1.0
C      1  0.5690700000000  0.5498700000000  0.5067610000000 1.0
C      1  0.5662990000000  0.5063850000000  0.5355570000000 1.0
C      1  0.5535670000000  0.5052390000000  0.4483110000000 1.0
C      1  0.4680870000000  0.5051330000000  0.4348020000000 1.0
C      1  0.4269470000000  0.5061560000000  0.5097340000000 1.0
C      1  0.4870260000000  0.5047570000000  0.5716750000000 1.0
C      1  0.5215050000000  0.4263420000000  0.5181550000000 1.0
C      1  0.5320040000000  0.4324070000000  0.4931250000000 1.0
C      1  0.4891700000000  0.4300610000000  0.4727130000000 1.0
C      1  0.4759050000000  0.4245030000000  0.4968920000000 1.0
C      1  0.4912690000000  0.4317920000000  0.5206350000000 1.0
C      1  0.4559190000000  0.4752360000000  0.4794820000000 1.0
C      1  0.4673200000000  0.4708960000000  0.5364520000000 1.0
C      1  0.5256950000000  0.4745470000000  0.5414360000000 1.0
C      1  0.5487180000000  0.4740220000000  0.4897650000000 1.0
C      1  0.5049110000000  0.4708940000000  0.4502190000000 1.0
C      1  0.5233280000000  0.6057430000000  0.4927250000000 1.0
C      1  0.4999320000000  0.6062700000000  0.4750830000000 1.0
C      1  0.4760060000000  0.6060910000000  0.4921260000000 1.0
C      1  0.4844960000000  0.6067610000000  0.5203010000000 1.0
C      1  0.5138800000000  0.6058400000000  0.5204550000000 1.0
END
