TITL C-3201376-6384-1697 67906.2295497068 125000 -605.806150234035 0 0 103 (C1) n - 1
REM
REM in /home/nfs/bkarasulu/CARBON/AIRSS/Generating-Clusters/LCBOP/Higher-Symm/SD-CG/FIRE-CG
REM
REM
REM
REM
REM
REM ./C.cell (b20cbc046b6831c77cfcea5457e17084)
REM AIRSS Version 0.9.1 bugfix July 2018 build 013d7b7c2542+ Fri, 06 Jul 2018 19:26:36 +0100
REM compiler GCC version 9.2.1 20190827 (Red Hat 9.2.1-1)
REM options -cpp -mtune=generic -march=x86-64 -g -O0 -fpre-include=/usr/include/finclude/math-vector-fortran.h
REM seed -1325362900 1563785899 1251733632 -821667834 376553783 -1095592227 -838701887 -1618952542 -1117703758 1762619375 -1428753020 793481491 -1197088627 749107242 236808910 -1761009735 -182440257 1600116539 1036983985 -764710492 873844906 707801690 -1192996341 722946329 -58509293 -1370392737 1855086900 -283494004 1965395169 -116859311 547113289 808576630 1514513294
REM
CELL 1.54180   50.00000   50.00000   50.00000   90.00000   90.00000   90.00000
LATT -1
SFAC C  
C      1  0.4074750000000  0.5342140000000  0.4913140000000 1.0
C      1  0.4714680000000  0.5315550000000  0.5709820000000 1.0
C      1  0.5697690000000  0.5372220000000  0.5662010000000 1.0
C      1  0.5701250000000  0.5300770000000  0.4549460000000 1.0
C      1  0.4778720000000  0.5332470000000  0.4098170000000 1.0
C      1  0.5062350000000  0.4556910000000  0.4262590000000 1.0
C      1  0.4267590000000  0.4517510000000  0.4680920000000 1.0
C      1  0.4465390000000  0.4468180000000  0.5573210000000 1.0
C      1  0.5362620000000  0.4571320000000  0.5652130000000 1.0
C      1  0.5724600000000  0.4483650000000  0.4741570000000 1.0
C      1  0.5108550000000  0.4736900000000  0.4714510000000 1.0
C      1  0.4675450000000  0.4664970000000  0.4766190000000 1.0
C      1  0.4807660000000  0.4594230000000  0.5017520000000 1.0
C      1  0.5104220000000  0.4748760000000  0.5297250000000 1.0
C      1  0.5422780000000  0.4671650000000  0.5010490000000 1.0
C      1  0.5137310000000  0.4537300000000  0.5475740000000 1.0
C      1  0.5590730000000  0.4436280000000  0.4991790000000 1.0
C      1  0.5139680000000  0.4517710000000  0.4540420000000 1.0
C      1  0.4538060000000  0.4445840000000  0.4647560000000 1.0
C      1  0.4397090000000  0.4253550000000  0.5394220000000 1.0
C      1  0.4593910000000  0.4929290000000  0.4743050000000 1.0
C      1  0.4682610000000  0.4843950000000  0.5225550000000 1.0
C      1  0.5141630000000  0.5011720000000  0.5368070000000 1.0
C      1  0.5551790000000  0.4906930000000  0.4907880000000 1.0
C      1  0.5105300000000  0.4988030000000  0.4589910000000 1.0
C      1  0.5762140000000  0.4728990000000  0.5378350000000 1.0
C      1  0.5549160000000  0.4619440000000  0.4302010000000 1.0
C      1  0.4573740000000  0.4674740000000  0.4253680000000 1.0
C      1  0.4172650000000  0.4680860000000  0.5165520000000 1.0
C      1  0.4889990000000  0.4634920000000  0.5858350000000 1.0
C      1  0.4749400000000  0.4280560000000  0.5039480000000 1.0
C      1  0.4960030000000  0.4186400000000  0.5247910000000 1.0
C      1  0.5231160000000  0.4157450000000  0.5117640000000 1.0
C      1  0.5171870000000  0.4145320000000  0.4813010000000 1.0
C      1  0.4871830000000  0.4164470000000  0.4760120000000 1.0
C      1  0.4263450000000  0.4737770000000  0.5443450000000 1.0
C      1  0.5231760000000  0.4749870000000  0.5859080000000 1.0
C      1  0.5944460000000  0.4853070000000  0.5171490000000 1.0
C      1  0.5294480000000  0.4726900000000  0.4170080000000 1.0
C      1  0.4270430000000  0.4763290000000  0.4423230000000 1.0
C      1  0.5394400000000  0.5145730000000  0.4943500000000 1.0
C      1  0.5279210000000  0.5191050000000  0.4675520000000 1.0
C      1  0.4776820000000  0.5126320000000  0.4829840000000 1.0
C      1  0.4726490000000  0.5128650000000  0.5124750000000 1.0
C      1  0.4946950000000  0.5204760000000  0.5314280000000 1.0
C      1  0.5384750000000  0.5041950000000  0.5484710000000 1.0
C      1  0.5737210000000  0.4784890000000  0.4703470000000 1.0
C      1  0.4935530000000  0.4983530000000  0.4371700000000 1.0
C      1  0.4324360000000  0.4956170000000  0.4809490000000 1.0
C      1  0.4676030000000  0.4850410000000  0.5507010000000 1.0
C      1  0.5908280000000  0.5163520000000  0.5146160000000 1.0
C      1  0.5329430000000  0.5076500000000  0.4166770000000 1.0
C      1  0.4283510000000  0.5116320000000  0.4405620000000 1.0
C      1  0.4255810000000  0.5099180000000  0.5459400000000 1.0
C      1  0.5198890000000  0.5095150000000  0.5874960000000 1.0
C      1  0.4242210000000  0.4461810000000  0.4982850000000 1.0
C      1  0.4747610000000  0.4430130000000  0.5687810000000 1.0
C      1  0.5586990000000  0.4491550000000  0.5460330000000 1.0
C      1  0.5566170000000  0.4392420000000  0.4509500000000 1.0
C      1  0.4780100000000  0.4456130000000  0.4273320000000 1.0
C      1  0.5217730000000  0.5711930000000  0.5434400000000 1.0
C      1  0.5522840000000  0.5731140000000  0.4944190000000 1.0
C      1  0.5100380000000  0.5707470000000  0.4510830000000 1.0
C      1  0.4577140000000  0.5688570000000  0.4754970000000 1.0
C      1  0.4633760000000  0.5745370000000  0.5324140000000 1.0
C      1  0.4883970000000  0.5406660000000  0.5498240000000 1.0
C      1  0.5290740000000  0.5374580000000  0.5091230000000 1.0
C      1  0.5443890000000  0.5413740000000  0.4590510000000 1.0
C      1  0.4898560000000  0.5369860000000  0.4765250000000 1.0
C      1  0.4527880000000  0.5355930000000  0.5120830000000 1.0
C      1  0.4914880000000  0.5684690000000  0.5420250000000 1.0
C      1  0.5394590000000  0.5628590000000  0.5199570000000 1.0
C      1  0.5357910000000  0.5681240000000  0.4679950000000 1.0
C      1  0.4832610000000  0.5617280000000  0.4621340000000 1.0
C      1  0.4564020000000  0.5638560000000  0.5052550000000 1.0
C      1  0.4346160000000  0.5601200000000  0.4610330000000 1.0
C      1  0.4423410000000  0.5619160000000  0.5505850000000 1.0
C      1  0.5304450000000  0.5612390000000  0.5693240000000 1.0
C      1  0.5793360000000  0.5619300000000  0.4927710000000 1.0
C      1  0.5148650000000  0.5594800000000  0.4245450000000 1.0
C      1  0.5639050000000  0.5100850000000  0.4342650000000 1.0
C      1  0.4554290000000  0.5170680000000  0.4204050000000 1.0
C      1  0.4103070000000  0.5168670000000  0.5152590000000 1.0
C      1  0.4875780000000  0.5122170000000  0.5854080000000 1.0
C      1  0.5801630000000  0.5220540000000  0.5435590000000 1.0
C      1  0.4944530000000  0.4330520000000  0.5494760000000 1.0
C      1  0.5494200000000  0.4289100000000  0.5226140000000 1.0
C      1  0.5308160000000  0.4295940000000  0.4605060000000 1.0
C      1  0.4729320000000  0.4278960000000  0.4516040000000 1.0
C      1  0.4443550000000  0.4277460000000  0.5110750000000 1.0
C      1  0.4430610000000  0.5332030000000  0.5603460000000 1.0
C      1  0.5418300000000  0.5361350000000  0.5781520000000 1.0
C      1  0.5854270000000  0.5339510000000  0.4881530000000 1.0
C      1  0.5081920000000  0.5335890000000  0.4135170000000 1.0
C      1  0.4198300000000  0.5357390000000  0.4637980000000 1.0
C      1  0.5651230000000  0.4972610000000  0.5483420000000 1.0
C      1  0.5703450000000  0.4839050000000  0.4422050000000 1.0
C      1  0.4695460000000  0.4926520000000  0.4242920000000 1.0
C      1  0.4147910000000  0.4920770000000  0.5021900000000 1.0
C      1  0.4763110000000  0.4872370000000  0.5776000000000 1.0
C      1  0.5112990000000  0.4678560000000  0.5009800000000 1.0
C      1  0.5050130000000  0.5482190000000  0.4976320000000 1.0
C      1  0.5017370000000  0.5761020000000  0.5002980000000 1.0
END
