TITL C-3201373-1215-1353 9.11700223398652 125000 -848.662476178605 0 0 142 (C1) n - 1
REM
REM in /home/nfs/bkarasulu/CARBON/AIRSS/Generating-Clusters/LCBOP/Higher-Symm/SD-CG/FIRE-CG
REM
REM
REM
REM
REM
REM ./C.cell (b20cbc046b6831c77cfcea5457e17084)
REM AIRSS Version 0.9.1 bugfix July 2018 build 013d7b7c2542+ Fri, 06 Jul 2018 19:26:36 +0100
REM compiler GCC version 9.2.1 20190827 (Red Hat 9.2.1-1)
REM options -cpp -mtune=generic -march=x86-64 -g -O0 -fpre-include=/usr/include/finclude/math-vector-fortran.h
REM seed -559045962 1683319363 1676534204 759936214 -1325214615 -276015573 -1063123815 -925413009 -880518060 -1277703893 -181694617 -1515969301 -270244373 410142360 1003838099 -1209334650 817388695 2044113948 -181164592 -849226614 -1380585897 -934896120 -358232386 2106290706 -1670950186 -264762707 1176865543 -1147926047 1405140506 1594724730 634659491 1971480601 1529069732
REM
CELL 1.54180   50.00000   50.00000   50.00000   90.00000   90.00000   90.00000
LATT -1
SFAC C  
C      1  0.4292870000000  0.3925250000000  0.5902560000000 1.0
C      1  0.4167840000000  0.4037610000000  0.6889900000000 1.0
C      1  0.4995000000000  0.7037190000000  0.6315650000000 1.0
C      1  0.3180210000000  0.5666340000000  0.4251370000000 1.0
C      1  0.4725060000000  0.4512680000000  0.3472210000000 1.0
C      1  0.5229450000000  0.2492510000000  0.4805150000000 1.0
C      1  0.5265640000000  0.4246570000000  0.2626410000000 1.0
C      1  0.5377770000000  0.6279350000000  0.3883350000000 1.0
C      1  0.5400870000000  0.7436790000000  0.5873060000000 1.0
C      1  0.4182940000000  0.4621060000000  0.7301910000000 1.0
C      1  0.4750490000000  0.5131680000000  0.6220970000000 1.0
C      1  0.4901180000000  0.6458150000000  0.5136710000000 1.0
C      1  0.5242910000000  0.5814680000000  0.4085530000000 1.0
C      1  0.5368210000000  0.4305040000000  0.3954450000000 1.0
C      1  0.5400120000000  0.3767120000000  0.5176480000000 1.0
C      1  0.4952480000000  0.4801390000000  0.3844130000000 1.0
C      1  0.4494880000000  0.5806420000000  0.4463110000000 1.0
C      1  0.5155260000000  0.5870850000000  0.5682020000000 1.0
C      1  0.5080690000000  0.4365860000000  0.5975030000000 1.0
C      1  0.4877530000000  0.3988350000000  0.4787130000000 1.0
C      1  0.4958590000000  0.7267560000000  0.6432110000000 1.0
C      1  0.2924500000000  0.5637800000000  0.4209350000000 1.0
C      1  0.4882300000000  0.4697040000000  0.3588980000000 1.0
C      1  0.4139160000000  0.3868640000000  0.6105370000000 1.0
C      1  0.3974580000000  0.3959840000000  0.7046630000000 1.0
C      1  0.5303670000000  0.6021470000000  0.3900380000000 1.0
C      1  0.5496000000000  0.7611150000000  0.6041910000000 1.0
C      1  0.4080920000000  0.4513390000000  0.7516300000000 1.0
C      1  0.5195000000000  0.2245300000000  0.4729870000000 1.0
C      1  0.5224610000000  0.4246280000000  0.2368960000000 1.0
C      1  0.4624660000000  0.5016560000000  0.6423770000000 1.0
C      1  0.4989240000000  0.6663350000000  0.5279360000000 1.0
C      1  0.5227660000000  0.5894610000000  0.4370540000000 1.0
C      1  0.5386780000000  0.4271630000000  0.3677280000000 1.0
C      1  0.5369300000000  0.3498040000000  0.5109720000000 1.0
C      1  0.4898800000000  0.4623130000000  0.4075480000000 1.0
C      1  0.4220050000000  0.5781680000000  0.4421210000000 1.0
C      1  0.5136480000000  0.6122190000000  0.5800460000000 1.0
C      1  0.4902410000000  0.4324500000000  0.6185530000000 1.0
C      1  0.4895110000000  0.4120660000000  0.5038510000000 1.0
C      1  0.4568850000000  0.4328060000000  0.3592870000000 1.0
C      1  0.4439150000000  0.3975370000000  0.5687290000000 1.0
C      1  0.4362580000000  0.4118960000000  0.6729560000000 1.0
C      1  0.5033680000000  0.6805770000000  0.6192330000000 1.0
C      1  0.3440190000000  0.5695350000000  0.4294090000000 1.0
C      1  0.4287080000000  0.4725610000000  0.7081730000000 1.0
C      1  0.5264490000000  0.2743860000000  0.4881680000000 1.0
C      1  0.5307330000000  0.4246870000000  0.2888170000000 1.0
C      1  0.5419220000000  0.6453990000000  0.4085380000000 1.0
C      1  0.5300250000000  0.7255590000000  0.5707850000000 1.0
C      1  0.5565060000000  0.4672160000000  0.5335730000000 1.0
C      1  0.5526120000000  0.5258900000000  0.5314600000000 1.0
C      1  0.5348170000000  0.5544420000000  0.4702080000000 1.0
C      1  0.5639610000000  0.5037620000000  0.4459540000000 1.0
C      1  0.5615170000000  0.4532990000000  0.4716810000000 1.0
C      1  0.4827450000000  0.4657440000000  0.4548220000000 1.0
C      1  0.4953910000000  0.5133400000000  0.4663880000000 1.0
C      1  0.4747290000000  0.5423060000000  0.5092510000000 1.0
C      1  0.4775730000000  0.4898890000000  0.5423930000000 1.0
C      1  0.5094970000000  0.4590230000000  0.5012580000000 1.0
C      1  0.3960030000000  0.5753350000000  0.4379500000000 1.0
C      1  0.4688960000000  0.4433040000000  0.4049430000000 1.0
C      1  0.4711640000000  0.4070250000000  0.5243050000000 1.0
C      1  0.4728040000000  0.4270380000000  0.6377400000000 1.0
C      1  0.5108420000000  0.6353400000000  0.5926600000000 1.0
C      1  0.5089630000000  0.6867680000000  0.5414950000000 1.0
C      1  0.4506260000000  0.4915250000000  0.6638090000000 1.0
C      1  0.5334530000000  0.3246420000000  0.5034690000000 1.0
C      1  0.5378700000000  0.4253680000000  0.3413160000000 1.0
C      1  0.5311020000000  0.6154100000000  0.4448660000000 1.0
C      1  0.3700110000000  0.5724360000000  0.4336810000000 1.0
C      1  0.4552860000000  0.4297630000000  0.3860980000000 1.0
C      1  0.4573200000000  0.4017390000000  0.5462640000000 1.0
C      1  0.4549770000000  0.4199360000000  0.6560120000000 1.0
C      1  0.5072880000000  0.6578930000000  0.6061090000000 1.0
C      1  0.5195270000000  0.7066200000000  0.5555110000000 1.0
C      1  0.4394000000000  0.4822210000000  0.6859350000000 1.0
C      1  0.5299510000000  0.2995140000000  0.4958200000000 1.0
C      1  0.5347670000000  0.4247910000000  0.3150070000000 1.0
C      1  0.5387930000000  0.6390560000000  0.4346240000000 1.0
C      1  0.5683470000000  0.4822620000000  0.5133620000000 1.0
C      1  0.5708500000000  0.5113210000000  0.5158160000000 1.0
C      1  0.5827730000000  0.5203880000000  0.4906990000000 1.0
C      1  0.5770460000000  0.5001390000000  0.4705450000000 1.0
C      1  0.5716010000000  0.4754670000000  0.4852140000000 1.0
C      1  0.4658020000000  0.4777750000000  0.4741260000000 1.0
C      1  0.4706120000000  0.5063010000000  0.4765380000000 1.0
C      1  0.4650880000000  0.5167060000000  0.5030730000000 1.0
C      1  0.4620050000000  0.4924820000000  0.5191950000000 1.0
C      1  0.4552450000000  0.4708400000000  0.5004840000000 1.0
C      1  0.5083400000000  0.5638470000000  0.5821140000000 1.0
C      1  0.4592750000000  0.5988430000000  0.4651870000000 1.0
C      1  0.5052650000000  0.5068600000000  0.3842970000000 1.0
C      1  0.4963690000000  0.3955120000000  0.4533280000000 1.0
C      1  0.5161220000000  0.4150700000000  0.5812080000000 1.0
C      1  0.5206260000000  0.5555050000000  0.3971590000000 1.0
C      1  0.4836690000000  0.6248100000000  0.4988810000000 1.0
C      1  0.4893270000000  0.5243640000000  0.6027990000000 1.0
C      1  0.5324690000000  0.3860500000000  0.5431040000000 1.0
C      1  0.5235530000000  0.4103570000000  0.4107510000000 1.0
C      1  0.5134960000000  0.4298540000000  0.5089930000000 1.0
C      1  0.5021550000000  0.4943160000000  0.5557030000000 1.0
C      1  0.4960670000000  0.5610430000000  0.5076980000000 1.0
C      1  0.5000080000000  0.5273900000000  0.4432390000000 1.0
C      1  0.5065090000000  0.4605860000000  0.4347180000000 1.0
C      1  0.5401600000000  0.4354660000000  0.4687670000000 1.0
C      1  0.5401360000000  0.4989660000000  0.4316320000000 1.0
C      1  0.5122040000000  0.5712760000000  0.4590350000000 1.0
C      1  0.5268130000000  0.5349660000000  0.5386830000000 1.0
C      1  0.5334030000000  0.4572990000000  0.5459520000000 1.0
C      1  0.5126000000000  0.4112530000000  0.4366170000000 1.0
C      1  0.5236560000000  0.4098120000000  0.5548180000000 1.0
C      1  0.5169790000000  0.5275520000000  0.3995040000000 1.0
C      1  0.4801150000000  0.6018970000000  0.4835930000000 1.0
C      1  0.5032130000000  0.5362960000000  0.5817660000000 1.0
C      1  0.4977380000000  0.5795940000000  0.4852650000000 1.0
C      1  0.5206890000000  0.5188550000000  0.4261450000000 1.0
C      1  0.5194090000000  0.4361510000000  0.4488940000000 1.0
C      1  0.5113750000000  0.5212660000000  0.5587960000000 1.0
C      1  0.5229750000000  0.4321620000000  0.5374570000000 1.0
C      1  0.4678780000000  0.5641790000000  0.4319670000000 1.0
C      1  0.5480980000000  0.4544710000000  0.4073630000000 1.0
C      1  0.5500950000000  0.3953070000000  0.4983240000000 1.0
C      1  0.5242890000000  0.5838070000000  0.5412720000000 1.0
C      1  0.5177780000000  0.4629070000000  0.5917050000000 1.0
C      1  0.5179960000000  0.4722650000000  0.5647110000000 1.0
C      1  0.5355770000000  0.4188150000000  0.4915660000000 1.0
C      1  0.5163060000000  0.5597880000000  0.5280420000000 1.0
C      1  0.4917650000000  0.5544500000000  0.4439680000000 1.0
C      1  0.5327800000000  0.4725620000000  0.4241120000000 1.0
C      1  0.5746690000000  0.4599350000000  0.4027790000000 1.0
C      1  0.5287920000000  0.4781110000000  0.6116560000000 1.0
C      1  0.4619590000000  0.5574820000000  0.4060140000000 1.0
C      1  0.5743740000000  0.3904130000000  0.4865380000000 1.0
C      1  0.5405900000000  0.6019930000000  0.5290120000000 1.0
C      1  0.4161270000000  0.4350320000000  0.5074990000000 1.0
C      1  0.6097410000000  0.5662290000000  0.4834150000000 1.0
C      1  0.5975750000000  0.5434750000000  0.4870590000000 1.0
C      1  0.4368310000000  0.4507260000000  0.5053520000000 1.0
C      1  0.5353530000000  0.5305430000000  0.4826300000000 1.0
C      1  0.5178040000000  0.5086280000000  0.4831370000000 1.0
C      1  0.5176810000000  0.4840030000000  0.4962890000000 1.0
END
