TITL C-3201377-4638-2238 -0.000712491824395287 125000 -1208.54236124973 0 0 197 (C1) n - 1
REM
REM in /home/nfs/bkarasulu/CARBON/AIRSS/Generating-Clusters/LCBOP/Higher-Symm/SD-CG/FIRE-CG
REM
REM
REM
REM
REM
REM ./C.cell (b20cbc046b6831c77cfcea5457e17084)
REM AIRSS Version 0.9.1 bugfix July 2018 build 013d7b7c2542+ Fri, 06 Jul 2018 19:26:36 +0100
REM compiler GCC version 9.2.1 20190827 (Red Hat 9.2.1-1)
REM options -cpp -mtune=generic -march=x86-64 -g -O0 -fpre-include=/usr/include/finclude/math-vector-fortran.h
REM seed 910623730 366506593 -107425867 -2035890061 -785700571 -665324545 1112434801 1813770143 -1966884508 1336462709 -777175198 1820037476 -1558903903 619037426 2126927313 -899119949 1816464154 712867439 -2059404214 -2071938677 -1827578085 1316844237 -485358190 2080057641 1375841010 -2005145282 1852851400 186796592 -106441016 -1013926322 2047285188 1243604017 -2036813889
REM
CELL 1.54180   50.00000   50.00000   50.00000   90.00000   90.00000   90.00000
LATT -1
SFAC C  
C      1  0.5327950000000  0.5048640000000  0.6183480000000 1.0
C      1  0.5476770000000  0.3902520000000  0.4509590000000 1.0
C      1  0.5437310000000  0.5951600000000  0.4348260000000 1.0
C      1  0.5737670000000  0.3869150000000  0.4458230000000 1.0
C      1  0.5691580000000  0.6027040000000  0.4312890000000 1.0
C      1  0.5565620000000  0.5026430000000  0.6305590000000 1.0
C      1  0.5015250000000  0.5878930000000  0.4946590000000 1.0
C      1  0.5027000000000  0.4618080000000  0.5740700000000 1.0
C      1  0.4922600000000  0.4539470000000  0.4389400000000 1.0
C      1  0.5783620000000  0.3847990000000  0.5010290000000 1.0
C      1  0.5752400000000  0.5574410000000  0.3993710000000 1.0
C      1  0.5692470000000  0.5551210000000  0.6143940000000 1.0
C      1  0.5813570000000  0.5081780000000  0.6182720000000 1.0
C      1  0.5947950000000  0.4013790000000  0.4578540000000 1.0
C      1  0.5918030000000  0.5863770000000  0.4352120000000 1.0
C      1  0.4975990000000  0.5676300000000  0.4733850000000 1.0
C      1  0.4926600000000  0.4904210000000  0.5707610000000 1.0
C      1  0.4724930000000  0.4413230000000  0.4551030000000 1.0
C      1  0.5042630000000  0.6379610000000  0.5180660000000 1.0
C      1  0.5899280000000  0.3790230000000  0.5723090000000 1.0
C      1  0.4987900000000  0.4435950000000  0.3821940000000 1.0
C      1  0.4778540000000  0.4150460000000  0.4637770000000 1.0
C      1  0.4843850000000  0.5760230000000  0.4473810000000 1.0
C      1  0.4772030000000  0.5083450000000  0.5893680000000 1.0
C      1  0.5440400000000  0.5385650000000  0.4721920000000 1.0
C      1  0.5383230000000  0.5061540000000  0.5489300000000 1.0
C      1  0.5460690000000  0.4546070000000  0.4789150000000 1.0
C      1  0.4573310000000  0.3924600000000  0.5333720000000 1.0
C      1  0.4553800000000  0.5253630000000  0.3940150000000 1.0
C      1  0.4566290000000  0.5850500000000  0.5749140000000 1.0
C      1  0.4913550000000  0.5591090000000  0.5370830000000 1.0
C      1  0.4917770000000  0.4380940000000  0.5328070000000 1.0
C      1  0.4900650000000  0.5041490000000  0.4351120000000 1.0
C      1  0.4819200000000  0.5254140000000  0.4906970000000 1.0
C      1  0.4889030000000  0.4917880000000  0.5225780000000 1.0
C      1  0.4699780000000  0.4798070000000  0.4815720000000 1.0
C      1  0.6032980000000  0.6063790000000  0.5053800000000 1.0
C      1  0.5967930000000  0.4411690000000  0.5916900000000 1.0
C      1  0.6048510000000  0.4528980000000  0.4048360000000 1.0
C      1  0.5488460000000  0.5540660000000  0.3950690000000 1.0
C      1  0.5435710000000  0.5613330000000  0.6094240000000 1.0
C      1  0.5521020000000  0.3809920000000  0.5060880000000 1.0
C      1  0.4092980000000  0.4974050000000  0.5758570000000 1.0
C      1  0.4097520000000  0.4225700000000  0.4389970000000 1.0
C      1  0.4181120000000  0.5933680000000  0.4649890000000 1.0
C      1  0.4245230000000  0.4743150000000  0.5860300000000 1.0
C      1  0.4289670000000  0.4328380000000  0.4179480000000 1.0
C      1  0.4368110000000  0.6105830000000  0.4830500000000 1.0
C      1  0.4795880000000  0.6384280000000  0.5054370000000 1.0
C      1  0.6068950000000  0.3603170000000  0.5787680000000 1.0
C      1  0.4732050000000  0.4362080000000  0.3884350000000 1.0
C      1  0.5033360000000  0.5117530000000  0.3813790000000 1.0
C      1  0.5064770000000  0.5972230000000  0.5740660000000 1.0
C      1  0.5077010000000  0.3889370000000  0.5496650000000 1.0
C      1  0.5170610000000  0.5076750000000  0.4280660000000 1.0
C      1  0.5183450000000  0.5599050000000  0.5452220000000 1.0
C      1  0.5188950000000  0.4320120000000  0.5307050000000 1.0
C      1  0.4077900000000  0.4469190000000  0.4992680000000 1.0
C      1  0.4271760000000  0.5232270000000  0.4828490000000 1.0
C      1  0.4300140000000  0.5204090000000  0.5120140000000 1.0
C      1  0.4163710000000  0.4173250000000  0.5567100000000 1.0
C      1  0.4164910000000  0.4951380000000  0.3996940000000 1.0
C      1  0.4218220000000  0.6031920000000  0.5451730000000 1.0
C      1  0.5589080000000  0.4650870000000  0.5688450000000 1.0
C      1  0.5731450000000  0.4635020000000  0.4401570000000 1.0
C      1  0.5705910000000  0.5713720000000  0.4973880000000 1.0
C      1  0.5391110000000  0.5990400000000  0.5328960000000 1.0
C      1  0.5545680000000  0.4157760000000  0.5546020000000 1.0
C      1  0.5368040000000  0.4761150000000  0.4012860000000 1.0
C      1  0.4843390000000  0.5319430000000  0.3885700000000 1.0
C      1  0.4846080000000  0.5825320000000  0.5855010000000 1.0
C      1  0.4873770000000  0.3856330000000  0.5293000000000 1.0
C      1  0.4350790000000  0.5441910000000  0.5277580000000 1.0
C      1  0.4310900000000  0.4466430000000  0.5137320000000 1.0
C      1  0.4311530000000  0.5119420000000  0.4570570000000 1.0
C      1  0.5375580000000  0.5492830000000  0.5264170000000 1.0
C      1  0.5394980000000  0.4511870000000  0.5257040000000 1.0
C      1  0.5380040000000  0.4982040000000  0.4454870000000 1.0
C      1  0.3828310000000  0.4582440000000  0.5414250000000 1.0
C      1  0.3770430000000  0.4815540000000  0.4298440000000 1.0
C      1  0.3874080000000  0.5753770000000  0.5173130000000 1.0
C      1  0.4275530000000  0.5008800000000  0.5317720000000 1.0
C      1  0.4092150000000  0.4512130000000  0.4726880000000 1.0
C      1  0.4281720000000  0.5509280000000  0.4760780000000 1.0
C      1  0.5268230000000  0.6298100000000  0.4708900000000 1.0
C      1  0.5330010000000  0.4461100000000  0.6088020000000 1.0
C      1  0.5237690000000  0.4218680000000  0.4193150000000 1.0
C      1  0.5195470000000  0.5067250000000  0.5702180000000 1.0
C      1  0.5311870000000  0.4341990000000  0.4651070000000 1.0
C      1  0.5250290000000  0.5576060000000  0.4617810000000 1.0
C      1  0.5220030000000  0.5013180000000  0.3999700000000 1.0
C      1  0.5251100000000  0.5864160000000  0.5555260000000 1.0
C      1  0.5276630000000  0.4090010000000  0.5468800000000 1.0
C      1  0.5252180000000  0.5584470000000  0.4098420000000 1.0
C      1  0.5204440000000  0.5478940000000  0.6008270000000 1.0
C      1  0.5282000000000  0.3908100000000  0.4945930000000 1.0
C      1  0.6158170000000  0.5425940000000  0.6195580000000 1.0
C      1  0.6243800000000  0.3994140000000  0.4965700000000 1.0
C      1  0.6225640000000  0.5583360000000  0.4098940000000 1.0
C      1  0.5971260000000  0.5671190000000  0.4146920000000 1.0
C      1  0.5895120000000  0.5355490000000  0.6173990000000 1.0
C      1  0.5997500000000  0.3952510000000  0.4854490000000 1.0
C      1  0.5917540000000  0.5881460000000  0.4886240000000 1.0
C      1  0.5825210000000  0.4641800000000  0.5877120000000 1.0
C      1  0.5936830000000  0.4472660000000  0.4291090000000 1.0
C      1  0.4839190000000  0.5531140000000  0.4307660000000 1.0
C      1  0.4805030000000  0.5352130000000  0.5804970000000 1.0
C      1  0.4876010000000  0.4134890000000  0.4901760000000 1.0
C      1  0.3689480000000  0.4804920000000  0.4791290000000 1.0
C      1  0.3768950000000  0.5285560000000  0.4981440000000 1.0
C      1  0.3748970000000  0.4981970000000  0.5030030000000 1.0
C      1  0.4561540000000  0.4605910000000  0.4672730000000 1.0
C      1  0.4753410000000  0.5517080000000  0.4856610000000 1.0
C      1  0.4743110000000  0.4880110000000  0.5459720000000 1.0
C      1  0.4200680000000  0.5471030000000  0.5913830000000 1.0
C      1  0.4289680000000  0.3934980000000  0.4830780000000 1.0
C      1  0.4298320000000  0.5682800000000  0.4188230000000 1.0
C      1  0.4511020000000  0.4468760000000  0.4039260000000 1.0
C      1  0.4579630000000  0.6187360000000  0.5036790000000 1.0
C      1  0.4424250000000  0.4531960000000  0.5851170000000 1.0
C      1  0.4194000000000  0.4019280000000  0.4584100000000 1.0
C      1  0.4240450000000  0.5882510000000  0.4366730000000 1.0
C      1  0.4096790000000  0.5220960000000  0.5901320000000 1.0
C      1  0.4464700000000  0.4818390000000  0.5414100000000 1.0
C      1  0.4296180000000  0.4659590000000  0.4613590000000 1.0
C      1  0.4494370000000  0.5632660000000  0.4902460000000 1.0
C      1  0.5348970000000  0.6520870000000  0.4599930000000 1.0
C      1  0.5352610000000  0.4330130000000  0.6312160000000 1.0
C      1  0.5280400000000  0.4019730000000  0.4029110000000 1.0
C      1  0.5005870000000  0.3917090000000  0.5029640000000 1.0
C      1  0.4973950000000  0.5517570000000  0.4059100000000 1.0
C      1  0.4938140000000  0.5561620000000  0.5943340000000 1.0
C      1  0.3821820000000  0.4860910000000  0.5307950000000 1.0
C      1  0.3723010000000  0.4651680000000  0.4529420000000 1.0
C      1  0.3848810000000  0.5575220000000  0.4945430000000 1.0
C      1  0.4593580000000  0.4336460000000  0.5705170000000 1.0
C      1  0.4588540000000  0.4751770000000  0.4086860000000 1.0
C      1  0.4652000000000  0.6008190000000  0.5264790000000 1.0
C      1  0.6279860000000  0.5038040000000  0.4880420000000 1.0
C      1  0.6231880000000  0.5160230000000  0.5230360000000 1.0
C      1  0.6245870000000  0.4789570000000  0.5165250000000 1.0
C      1  0.5616620000000  0.4901880000000  0.5515600000000 1.0
C      1  0.5712890000000  0.4634390000000  0.4687150000000 1.0
C      1  0.5686930000000  0.5454130000000  0.4854350000000 1.0
C      1  0.5309220000000  0.5701810000000  0.4359300000000 1.0
C      1  0.5248790000000  0.5196710000000  0.5957700000000 1.0
C      1  0.5340010000000  0.4056880000000  0.4703430000000 1.0
C      1  0.5386960000000  0.4688380000000  0.5030470000000 1.0
C      1  0.5388950000000  0.5101010000000  0.4720540000000 1.0
C      1  0.5366350000000  0.5194670000000  0.5230920000000 1.0
C      1  0.4860420000000  0.5822350000000  0.5196990000000 1.0
C      1  0.4846990000000  0.4429670000000  0.5604460000000 1.0
C      1  0.4809090000000  0.4782260000000  0.4271190000000 1.0
C      1  0.5518960000000  0.4780170000000  0.4276380000000 1.0
C      1  0.5513240000000  0.5750990000000  0.5180000000000 1.0
C      1  0.5585340000000  0.4436760000000  0.5469910000000 1.0
C      1  0.4746870000000  0.5422810000000  0.5531290000000 1.0
C      1  0.4773990000000  0.4325570000000  0.5092050000000 1.0
C      1  0.4746120000000  0.5274720000000  0.4399710000000 1.0
C      1  0.6006640000000  0.5853330000000  0.4618840000000 1.0
C      1  0.5902310000000  0.4879010000000  0.6010430000000 1.0
C      1  0.6022360000000  0.4249560000000  0.4443840000000 1.0
C      1  0.5228420000000  0.4555930000000  0.3870590000000 1.0
C      1  0.5269500000000  0.6243040000000  0.5257720000000 1.0
C      1  0.5730510000000  0.3981390000000  0.5651130000000 1.0
C      1  0.4349000000000  0.5691880000000  0.5149240000000 1.0
C      1  0.4310620000000  0.4576180000000  0.5393260000000 1.0
C      1  0.4210930000000  0.4884210000000  0.4470880000000 1.0
C      1  0.4129780000000  0.5855270000000  0.5248580000000 1.0
C      1  0.4069110000000  0.4443760000000  0.5505060000000 1.0
C      1  0.4036790000000  0.4892350000000  0.4241750000000 1.0
C      1  0.5865700000000  0.5253730000000  0.4944530000000 1.0
C      1  0.5825330000000  0.4936330000000  0.5322340000000 1.0
C      1  0.5887350000000  0.4776470000000  0.4857020000000 1.0
C      1  0.4500190000000  0.6014560000000  0.5513120000000 1.0
C      1  0.4455430000000  0.4105010000000  0.5566740000000 1.0
C      1  0.4449570000000  0.4974090000000  0.3962050000000 1.0
C      1  0.5948470000000  0.5191330000000  0.5226080000000 1.0
C      1  0.5966140000000  0.4741560000000  0.5143150000000 1.0
C      1  0.6009000000000  0.5040580000000  0.4798220000000 1.0
C      1  0.4050810000000  0.5677770000000  0.4750650000000 1.0
C      1  0.4032440000000  0.4992140000000  0.5468810000000 1.0
C      1  0.3911010000000  0.4419290000000  0.4528690000000 1.0
C      1  0.5171970000000  0.4397650000000  0.4401460000000 1.0
C      1  0.5165860000000  0.6094690000000  0.4846380000000 1.0
C      1  0.5304000000000  0.4585770000000  0.5837160000000 1.0
C      1  0.4779930000000  0.6014500000000  0.4403720000000 1.0
C      1  0.4661230000000  0.5005900000000  0.6129300000000 1.0
C      1  0.4754140000000  0.3932570000000  0.4475390000000 1.0
C      1  0.4463400000000  0.5271620000000  0.4391040000000 1.0
C      1  0.4468790000000  0.5454540000000  0.5524840000000 1.0
C      1  0.4499560000000  0.4284310000000  0.5076450000000 1.0
C      1  0.4430380000000  0.4003720000000  0.5075740000000 1.0
C      1  0.4399580000000  0.5419460000000  0.4144330000000 1.0
C      1  0.4386430000000  0.5610350000000  0.5754730000000 1.0
C      1  0.4822070000000  0.4988090000000  0.4969470000000 1.0
C      1  0.5367750000000  0.4990670000000  0.4997090000000 1.0
END
