TITL C-3201372-1405-824 -1.10239416369495e-06 125000 -1012.42970617458 0 0 164 (C1) n - 1
REM
REM in /home/nfs/bkarasulu/CARBON/AIRSS/Generating-Clusters/LCBOP/Higher-Symm/SD-CG/FIRE-CG
REM
REM
REM
REM
REM
REM ./C.cell (b20cbc046b6831c77cfcea5457e17084)
REM AIRSS Version 0.9.1 bugfix July 2018 build 013d7b7c2542+ Fri, 06 Jul 2018 19:26:36 +0100
REM compiler GCC version 9.2.1 20190827 (Red Hat 9.2.1-1)
REM options -cpp -mtune=generic -march=x86-64 -g -O0 -fpre-include=/usr/include/finclude/math-vector-fortran.h
REM seed 543412164 36826886 1174905771 -1050223455 -1688183910 -1823978519 519894317 951796388 1046889028 -1706665932 1126795133 1234951368 1875357195 879089257 1152894379 1242996116 -742636502 722051272 -1548231149 -378910873 -536608610 -196893063 1487012143 -1179727740 -1864466087 -1489417916 -1447950390 -1632272908 872540933 971864185 619816757 1453806688 1791690844
REM
CELL 1.54180   50.00000   50.00000   50.00000   90.00000   90.00000   90.00000
LATT -1
SFAC C  
C      1  0.5320590000000  0.4625920000000  0.4799790000000 1.0
C      1  0.4582370000000  0.5346010000000  0.4612850000000 1.0
C      1  0.5656090000000  0.4936870000000  0.5198990000000 1.0
C      1  0.4335880000000  0.5091980000000  0.5162280000000 1.0
C      1  0.4949480000000  0.3937370000000  0.4418360000000 1.0
C      1  0.5027480000000  0.6067180000000  0.4373000000000 1.0
C      1  0.4884610000000  0.5676290000000  0.5959280000000 1.0
C      1  0.5137760000000  0.4340700000000  0.5945840000000 1.0
C      1  0.5527040000000  0.4937870000000  0.4179450000000 1.0
C      1  0.4374440000000  0.5018800000000  0.4118220000000 1.0
C      1  0.4862810000000  0.4376150000000  0.6062990000000 1.0
C      1  0.5145880000000  0.5618140000000  0.6098090000000 1.0
C      1  0.4552130000000  0.4874430000000  0.3944260000000 1.0
C      1  0.5363290000000  0.5078700000000  0.3989010000000 1.0
C      1  0.5165180000000  0.5261430000000  0.5143270000000 1.0
C      1  0.4847580000000  0.4834740000000  0.5065260000000 1.0
C      1  0.5461890000000  0.4764080000000  0.5333670000000 1.0
C      1  0.4503720000000  0.5302600000000  0.5320960000000 1.0
C      1  0.4290610000000  0.4097410000000  0.5229080000000 1.0
C      1  0.5831850000000  0.6051720000000  0.5252830000000 1.0
C      1  0.5922480000000  0.4814430000000  0.5224430000000 1.0
C      1  0.4054080000000  0.5170570000000  0.5214710000000 1.0
C      1  0.5428590000000  0.5663890000000  0.4873510000000 1.0
C      1  0.4570430000000  0.4384020000000  0.4870630000000 1.0
C      1  0.5955550000000  0.5384080000000  0.5542740000000 1.0
C      1  0.4129930000000  0.4563130000000  0.5473010000000 1.0
C      1  0.4373540000000  0.5827410000000  0.4679930000000 1.0
C      1  0.5583080000000  0.4182140000000  0.4705620000000 1.0
C      1  0.4724400000000  0.5172550000000  0.5477840000000 1.0
C      1  0.5255480000000  0.4876780000000  0.5488880000000 1.0
C      1  0.4068790000000  0.5615880000000  0.4968470000000 1.0
C      1  0.5906440000000  0.4363290000000  0.4991990000000 1.0
C      1  0.4656660000000  0.5510850000000  0.5177240000000 1.0
C      1  0.5395250000000  0.4501110000000  0.5249820000000 1.0
C      1  0.4890860000000  0.5279270000000  0.5697810000000 1.0
C      1  0.5114810000000  0.4755000000000  0.5709470000000 1.0
C      1  0.5547600000000  0.4056340000000  0.4975200000000 1.0
C      1  0.4422250000000  0.5936210000000  0.4952350000000 1.0
C      1  0.5764890000000  0.5224120000000  0.4815790000000 1.0
C      1  0.4214590000000  0.4793230000000  0.4799220000000 1.0
C      1  0.5838360000000  0.4945310000000  0.5670010000000 1.0
C      1  0.4185440000000  0.5008740000000  0.5652690000000 1.0
C      1  0.4697140000000  0.4180660000000  0.5923810000000 1.0
C      1  0.5335940000000  0.5815370000000  0.6000380000000 1.0
C      1  0.3893710000000  0.5191140000000  0.4147560000000 1.0
C      1  0.5990000000000  0.4718110000000  0.4199740000000 1.0
C      1  0.5548090000000  0.5063930000000  0.4435330000000 1.0
C      1  0.4374610000000  0.4918250000000  0.4384610000000 1.0
C      1  0.4708080000000  0.4215790000000  0.5428730000000 1.0
C      1  0.5418580000000  0.5842120000000  0.5508050000000 1.0
C      1  0.5090900000000  0.5009890000000  0.3935240000000 1.0
C      1  0.4827440000000  0.4947390000000  0.3914680000000 1.0
C      1  0.4283070000000  0.5274690000000  0.5731830000000 1.0
C      1  0.5755630000000  0.4680620000000  0.5756130000000 1.0
C      1  0.5180600000000  0.5174400000000  0.4875330000000 1.0
C      1  0.4805940000000  0.4893920000000  0.4794120000000 1.0
C      1  0.5760790000000  0.4410250000000  0.4750610000000 1.0
C      1  0.4190430000000  0.5592130000000  0.4707360000000 1.0
C      1  0.5100580000000  0.4145560000000  0.5731360000000 1.0
C      1  0.4964110000000  0.5875010000000  0.5755080000000 1.0
C      1  0.5161070000000  0.5324750000000  0.4638220000000 1.0
C      1  0.4811560000000  0.4740570000000  0.4554650000000 1.0
C      1  0.5176670000000  0.4461190000000  0.5043770000000 1.0
C      1  0.4896830000000  0.5652170000000  0.5206680000000 1.0
C      1  0.4035710000000  0.4512070000000  0.4167890000000 1.0
C      1  0.5919360000000  0.5422400000000  0.4154090000000 1.0
C      1  0.6120950000000  0.5211290000000  0.5370390000000 1.0
C      1  0.3921740000000  0.4729770000000  0.5337900000000 1.0
C      1  0.4610730000000  0.4684630000000  0.5583680000000 1.0
C      1  0.5443800000000  0.5341700000000  0.5613230000000 1.0
C      1  0.5398570000000  0.5564220000000  0.5391600000000 1.0
C      1  0.4691590000000  0.4510290000000  0.5342910000000 1.0
C      1  0.5678780000000  0.5502380000000  0.4025230000000 1.0
C      1  0.4273900000000  0.4437360000000  0.4031300000000 1.0
C      1  0.6283210000000  0.5513320000000  0.5028480000000 1.0
C      1  0.3758670000000  0.4418730000000  0.4998210000000 1.0
C      1  0.4164890000000  0.4540450000000  0.4653490000000 1.0
C      1  0.5821710000000  0.5454490000000  0.4644460000000 1.0
C      1  0.5135420000000  0.5754200000000  0.4834750000000 1.0
C      1  0.4744710000000  0.4163480000000  0.4972550000000 1.0
C      1  0.5819440000000  0.4435640000000  0.5615370000000 1.0
C      1  0.4314330000000  0.5455450000000  0.5504970000000 1.0
C      1  0.5018090000000  0.4597950000000  0.4432950000000 1.0
C      1  0.5011940000000  0.5565360000000  0.4644670000000 1.0
C      1  0.4935640000000  0.5864510000000  0.5019610000000 1.0
C      1  0.5052110000000  0.4178010000000  0.4992220000000 1.0
C      1  0.4296840000000  0.5335200000000  0.4629510000000 1.0
C      1  0.5626690000000  0.4666610000000  0.4739530000000 1.0
C      1  0.6046570000000  0.5963010000000  0.5122230000000 1.0
C      1  0.4094250000000  0.4035840000000  0.5035640000000 1.0
C      1  0.5490680000000  0.5322050000000  0.3910970000000 1.0
C      1  0.4442590000000  0.4616710000000  0.3887990000000 1.0
C      1  0.4191880000000  0.4291620000000  0.5420690000000 1.0
C      1  0.6031250000000  0.5627590000000  0.5638460000000 1.0
C      1  0.5552360000000  0.5583890000000  0.4587330000000 1.0
C      1  0.4443370000000  0.4432530000000  0.4588450000000 1.0
C      1  0.5403220000000  0.5317510000000  0.4491970000000 1.0
C      1  0.4551080000000  0.4692050000000  0.4460770000000 1.0
C      1  0.4849980000000  0.5002840000000  0.5293330000000 1.0
C      1  0.5123710000000  0.5058090000000  0.5329750000000 1.0
C      1  0.4663080000000  0.4793840000000  0.6240220000000 1.0
C      1  0.5313840000000  0.5175000000000  0.6245750000000 1.0
C      1  0.5719260000000  0.5229640000000  0.5650520000000 1.0
C      1  0.4324550000000  0.4743260000000  0.5615280000000 1.0
C      1  0.5778790000000  0.4233780000000  0.5436580000000 1.0
C      1  0.4250170000000  0.5714810000000  0.5404720000000 1.0
C      1  0.5271020000000  0.4583650000000  0.5882510000000 1.0
C      1  0.4736150000000  0.5443040000000  0.5886040000000 1.0
C      1  0.4938020000000  0.4587590000000  0.5177890000000 1.0
C      1  0.5125690000000  0.5512870000000  0.5274730000000 1.0
C      1  0.4384930000000  0.4195820000000  0.4132320000000 1.0
C      1  0.5593900000000  0.5762610000000  0.4103880000000 1.0
C      1  0.5610210000000  0.6014030000000  0.5396040000000 1.0
C      1  0.4581770000000  0.4071890000000  0.5211030000000 1.0
C      1  0.4471810000000  0.5346940000000  0.5933980000000 1.0
C      1  0.5536800000000  0.4652710000000  0.5931130000000 1.0
C      1  0.5225240000000  0.5346900000000  0.6055010000000 1.0
C      1  0.4773990000000  0.4646730000000  0.6040680000000 1.0
C      1  0.6219580000000  0.5245980000000  0.5095530000000 1.0
C      1  0.3795290000000  0.4691410000000  0.5073360000000 1.0
C      1  0.5281300000000  0.5983410000000  0.4396780000000 1.0
C      1  0.4696300000000  0.4014410000000  0.4449050000000 1.0
C      1  0.3977170000000  0.5002100000000  0.5432070000000 1.0
C      1  0.6036010000000  0.4946220000000  0.5447090000000 1.0
C      1  0.5553230000000  0.5505370000000  0.5126160000000 1.0
C      1  0.4488020000000  0.4565760000000  0.5103120000000 1.0
C      1  0.4743290000000  0.5570300000000  0.4551840000000 1.0
C      1  0.5236600000000  0.4475400000000  0.4553190000000 1.0
C      1  0.4383130000000  0.3967330000000  0.3982070000000 1.0
C      1  0.5615710000000  0.5975010000000  0.3932990000000 1.0
C      1  0.3984120000000  0.4516730000000  0.4434670000000 1.0
C      1  0.5989580000000  0.5440050000000  0.4415800000000 1.0
C      1  0.4491170000000  0.4200860000000  0.4398870000000 1.0
C      1  0.5491690000000  0.5793850000000  0.4370920000000 1.0
C      1  0.5206350000000  0.4010100000000  0.4425240000000 1.0
C      1  0.4763820000000  0.6020140000000  0.4401660000000 1.0
C      1  0.5360400000000  0.4218420000000  0.4530210000000 1.0
C      1  0.4605230000000  0.5815690000000  0.4512660000000 1.0
C      1  0.5256550000000  0.5905250000000  0.5734250000000 1.0
C      1  0.4817690000000  0.4115640000000  0.5666240000000 1.0
C      1  0.4695020000000  0.6017150000000  0.4993870000000 1.0
C      1  0.5272440000000  0.3991200000000  0.5026470000000 1.0
C      1  0.6059330000000  0.4912400000000  0.4653890000000 1.0
C      1  0.3874650000000  0.5041110000000  0.4623690000000 1.0
C      1  0.5242130000000  0.4907210000000  0.4831920000000 1.0
C      1  0.4710050000000  0.5147530000000  0.4750580000000 1.0
C      1  0.4228240000000  0.5801750000000  0.5133180000000 1.0
C      1  0.5757890000000  0.4170920000000  0.5158520000000 1.0
C      1  0.5740010000000  0.4765790000000  0.4110480000000 1.0
C      1  0.4140590000000  0.5158180000000  0.4042960000000 1.0
C      1  0.6026980000000  0.4584400000000  0.5110470000000 1.0
C      1  0.3945750000000  0.5395910000000  0.5091450000000 1.0
C      1  0.3766660000000  0.5139210000000  0.4381000000000 1.0
C      1  0.6138250000000  0.4781050000000  0.4416940000000 1.0
C      1  0.6211550000000  0.5769960000000  0.5041340000000 1.0
C      1  0.3873910000000  0.4177510000000  0.4968910000000 1.0
C      1  0.5748960000000  0.4960670000000  0.4661780000000 1.0
C      1  0.4183780000000  0.5034140000000  0.4613970000000 1.0
C      1  0.5191980000000  0.5282570000000  0.5771710000000 1.0
C      1  0.4824690000000  0.4741540000000  0.5771780000000 1.0
C      1  0.5653880000000  0.5221780000000  0.5080370000000 1.0
C      1  0.4357670000000  0.4820400000000  0.5043070000000 1.0
C      1  0.6202120000000  0.5050890000000  0.4873400000000 1.0
C      1  0.3766270000000  0.4894330000000  0.4857490000000 1.0
END
