TITL C-3201373-1215-1797 -1.01819705717066e-06 125000 -115.908695216084 0 0 21 (D3h) n - 1
REM
REM in /home/nfs/bkarasulu/CARBON/AIRSS/Generating-Clusters/LCBOP/Higher-Symm/SD-CG/FIRE-CG
REM
REM
REM
REM
REM
REM ./C.cell (b20cbc046b6831c77cfcea5457e17084)
REM AIRSS Version 0.9.1 bugfix July 2018 build 013d7b7c2542+ Fri, 06 Jul 2018 19:26:36 +0100
REM compiler GCC version 9.2.1 20190827 (Red Hat 9.2.1-1)
REM options -cpp -mtune=generic -march=x86-64 -g -O0 -fpre-include=/usr/include/finclude/math-vector-fortran.h
REM seed -1237960271 -679281534 -283461939 -618438442 -1633970152 1116335096 1566418537 1995788141 -1396675300 -2079375171 -1297617238 -695996908 -855567209 2051023273 1792832809 -1161792915 100954893 394503206 -1977522270 -1433820649 -1970045197 -293223646 -1609930760 1006571391 -600213252 1321488201 -526328782 -680302579 1478380052 -1258877074 41778942 911377797 -1613086684
REM
CELL 1.54180   50.00000   50.00000   50.00000   90.00000   90.00000   90.00000
LATT -1
SFAC C  
C      1  0.5368320000000  0.5188280000000  0.5060530000000 1.0
C      1  0.4868260000000  0.5188280000000  0.4650760000000 1.0
C      1  0.4763420000000  0.5188280000000  0.5288710000000 1.0
C      1  0.5368320000000  0.4792000000000  0.5060530000000 1.0
C      1  0.4868270000000  0.4792000000000  0.4650760000000 1.0
C      1  0.4763420000000  0.4792000000000  0.5288710000000 1.0
C      1  0.4631680000000  0.5188280000000  0.5060530000000 1.0
C      1  0.5131730000000  0.5188280000000  0.4650760000000 1.0
C      1  0.5236580000000  0.5188280000000  0.5288710000000 1.0
C      1  0.4631680000000  0.4792000000000  0.5060530000000 1.0
C      1  0.5131740000000  0.4792000000000  0.4650760000000 1.0
C      1  0.5236580000000  0.4792000000000  0.5288710000000 1.0
C      1  0.5380340000000  0.4766040000000  0.4780410000000 1.0
C      1  0.4619660000000  0.5214240000000  0.4780410000000 1.0
C      1  0.5380340000000  0.5214240000000  0.4780410000000 1.0
C      1  0.5000000000000  0.4766040000000  0.5439180000000 1.0
C      1  0.5000000000000  0.5214240000000  0.5439180000000 1.0
C      1  0.4619660000000  0.4766040000000  0.4780410000000 1.0
C      1  0.5000000000000  0.4990140000000  0.5630600000000 1.0
C      1  0.4453890000000  0.4990140000000  0.4684700000000 1.0
C      1  0.5546110000000  0.4990140000000  0.4684700000000 1.0
END
