TITL C-3201378-2706-42 3.36555776403324e-07 125000 -136.595532642865 0 0 23 (D2h) n - 1
REM
REM in /home/nfs/bkarasulu/CARBON/AIRSS/Generating-Clusters/LCBOP/Higher-Symm/SD-CG/FIRE-CG
REM
REM
REM
REM
REM
REM ./C.cell (b20cbc046b6831c77cfcea5457e17084)
REM AIRSS Version 0.9.1 bugfix July 2018 build 013d7b7c2542+ Fri, 06 Jul 2018 19:26:36 +0100
REM compiler GCC version 9.2.1 20190827 (Red Hat 9.2.1-1)
REM options -cpp -mtune=generic -march=x86-64 -g -O0 -fpre-include=/usr/include/finclude/math-vector-fortran.h
REM seed 704489508 777928983 -370846090 -92137870 1477305635 -1026036972 1959675195 1692363726 1966177651 1215641366 1187870524 -660439390 -504752492 -1291850406 2023076247 -1105402767 851517065 -1778614639 -69506757 -1255900639 -296722413 1621650700 274039172 2006918976 1077858377 -1484702476 1388264660 -77407580 759484817 -1756721580 -1534425812 -1202259085 -335544276
REM
CELL 1.54180   50.00000   50.00000   50.00000   90.00000   90.00000   90.00000
LATT -1
SFAC C  
C      1  0.4345830000000  0.4863100000000  0.5442740000000 1.0
C      1  0.5645100000000  0.4863100000000  0.4569170000000 1.0
C      1  0.4345830000000  0.5133720000000  0.5442740000000 1.0
C      1  0.5645100000000  0.5133720000000  0.4569170000000 1.0
C      1  0.5645100000000  0.4863100000000  0.5442730000000 1.0
C      1  0.4345830000000  0.4863100000000  0.4569170000000 1.0
C      1  0.5645100000000  0.5133720000000  0.5442730000000 1.0
C      1  0.4345830000000  0.5133720000000  0.4569170000000 1.0
C      1  0.5550640000000  0.4692850000000  0.5254540000000 1.0
C      1  0.4440300000000  0.4692850000000  0.4757370000000 1.0
C      1  0.5550640000000  0.5303970000000  0.5254540000000 1.0
C      1  0.4440300000000  0.5303970000000  0.4757370000000 1.0
C      1  0.4440300000000  0.4692850000000  0.5254540000000 1.0
C      1  0.5550630000000  0.4692850000000  0.4757370000000 1.0
C      1  0.4440300000000  0.5303970000000  0.5254540000000 1.0
C      1  0.5550630000000  0.5303970000000  0.4757370000000 1.0
C      1  0.4559560000000  0.4756470000000  0.5005960000000 1.0
C      1  0.5431380000000  0.4756470000000  0.5005950000000 1.0
C      1  0.4559560000000  0.5240350000000  0.5005960000000 1.0
C      1  0.5431380000000  0.5240350000000  0.5005950000000 1.0
C      1  0.4718050000000  0.4998410000000  0.5005950000000 1.0
C      1  0.5272890000000  0.4998410000000  0.5005950000000 1.0
C      1  0.4995470000000  0.4998410000000  0.5005950000000 1.0
END
