TITL C-3201377-4638-1390 -1.09019819800042e-06 125000 -523.17330635796 0 0 87 (C1) n - 1
REM
REM in /home/nfs/bkarasulu/CARBON/AIRSS/Generating-Clusters/LCBOP/Higher-Symm/SD-CG/FIRE-CG
REM
REM
REM
REM
REM
REM ./C.cell (b20cbc046b6831c77cfcea5457e17084)
REM AIRSS Version 0.9.1 bugfix July 2018 build 013d7b7c2542+ Fri, 06 Jul 2018 19:26:36 +0100
REM compiler GCC version 9.2.1 20190827 (Red Hat 9.2.1-1)
REM options -cpp -mtune=generic -march=x86-64 -g -O0 -fpre-include=/usr/include/finclude/math-vector-fortran.h
REM seed -997633780 -1340887012 423994245 -786764210 -1786799852 -1605504748 192814712 -450329030 -2013697249 1990030746 -1013670179 -421835260 453688077 -932814514 687246761 126975922 696162402 -652350024 1528169079 -377918764 2021710963 1137855260 1137250898 -1834718666 1316527462 151266049 -2099071632 -434962692 307232435 -1009755981 -365366984 1691796928 142563726
REM
CELL 1.54180   50.00000   50.00000   50.00000   90.00000   90.00000   90.00000
LATT -1
SFAC C  
C      1  0.5173330000000  0.5321450000000  0.4943450000000 1.0
C      1  0.4837650000000  0.4613140000000  0.5051690000000 1.0
C      1  0.4785420000000  0.5351350000000  0.4179020000000 1.0
C      1  0.5239310000000  0.4685620000000  0.4204740000000 1.0
C      1  0.4840130000000  0.5189130000000  0.5311990000000 1.0
C      1  0.5153960000000  0.4776000000000  0.5382940000000 1.0
C      1  0.5010080000000  0.4857730000000  0.4210540000000 1.0
C      1  0.5005400000000  0.5170450000000  0.4210620000000 1.0
C      1  0.4402940000000  0.4292470000000  0.5350310000000 1.0
C      1  0.5579570000000  0.5692420000000  0.5352420000000 1.0
C      1  0.5693770000000  0.4711060000000  0.5555310000000 1.0
C      1  0.4304500000000  0.5286490000000  0.5578220000000 1.0
C      1  0.5369270000000  0.5888380000000  0.4929320000000 1.0
C      1  0.4626890000000  0.4131380000000  0.4924460000000 1.0
C      1  0.5215800000000  0.4891670000000  0.5645330000000 1.0
C      1  0.4791490000000  0.5092770000000  0.5586450000000 1.0
C      1  0.5216590000000  0.5174810000000  0.5693280000000 1.0
C      1  0.4779160000000  0.4822920000000  0.5709630000000 1.0
C      1  0.5332940000000  0.5311200000000  0.5477990000000 1.0
C      1  0.4668000000000  0.4637610000000  0.5531060000000 1.0
C      1  0.4680850000000  0.5645950000000  0.5503260000000 1.0
C      1  0.5315840000000  0.4346440000000  0.5523030000000 1.0
C      1  0.5069510000000  0.4696740000000  0.4921610000000 1.0
C      1  0.4880400000000  0.5384190000000  0.4875830000000 1.0
C      1  0.4822390000000  0.4441330000000  0.4500810000000 1.0
C      1  0.5185060000000  0.5594370000000  0.4497070000000 1.0
C      1  0.4657530000000  0.5267030000000  0.5060980000000 1.0
C      1  0.5351190000000  0.4713140000000  0.5017530000000 1.0
C      1  0.5183520000000  0.4201690000000  0.4771400000000 1.0
C      1  0.4814880000000  0.5834870000000  0.4748740000000 1.0
C      1  0.4556560000000  0.5045860000000  0.4891500000000 1.0
C      1  0.5465590000000  0.4961570000000  0.4920390000000 1.0
C      1  0.4225740000000  0.5535380000000  0.4990790000000 1.0
C      1  0.5751820000000  0.4419670000000  0.4996620000000 1.0
C      1  0.5043920000000  0.4720370000000  0.5807900000000 1.0
C      1  0.4948220000000  0.5281990000000  0.5748450000000 1.0
C      1  0.4594270000000  0.4361020000000  0.4714790000000 1.0
C      1  0.5417650000000  0.5681600000000  0.4706780000000 1.0
C      1  0.5508100000000  0.4280450000000  0.4265400000000 1.0
C      1  0.4495030000000  0.5739610000000  0.4250130000000 1.0
C      1  0.4093470000000  0.5761450000000  0.4550470000000 1.0
C      1  0.5900370000000  0.4196570000000  0.4562790000000 1.0
C      1  0.5892510000000  0.4292040000000  0.4811330000000 1.0
C      1  0.4093730000000  0.5655740000000  0.4794670000000 1.0
C      1  0.5664470000000  0.5754310000000  0.4548760000000 1.0
C      1  0.4334390000000  0.4321570000000  0.4565760000000 1.0
C      1  0.5212770000000  0.5328710000000  0.4354320000000 1.0
C      1  0.4788720000000  0.4690970000000  0.4328610000000 1.0
C      1  0.5227730000000  0.5079800000000  0.4765340000000 1.0
C      1  0.4731310000000  0.4992790000000  0.4676750000000 1.0
C      1  0.5162930000000  0.4451380000000  0.5758390000000 1.0
C      1  0.4836880000000  0.5544290000000  0.5727090000000 1.0
C      1  0.4250450000000  0.5797430000000  0.4338120000000 1.0
C      1  0.5745560000000  0.4190390000000  0.4345590000000 1.0
C      1  0.4227760000000  0.5025520000000  0.5560950000000 1.0
C      1  0.5785190000000  0.4966530000000  0.5541530000000 1.0
C      1  0.4433640000000  0.5443190000000  0.5150350000000 1.0
C      1  0.5540870000000  0.4536380000000  0.5137320000000 1.0
C      1  0.5134790000000  0.5357460000000  0.5258900000000 1.0
C      1  0.4877160000000  0.4563880000000  0.5334640000000 1.0
C      1  0.4443930000000  0.5490230000000  0.5432130000000 1.0
C      1  0.5537930000000  0.4510060000000  0.5424150000000 1.0
C      1  0.5283010000000  0.4432440000000  0.4330540000000 1.0
C      1  0.4733000000000  0.5603690000000  0.4304810000000 1.0
C      1  0.5105910000000  0.5667480000000  0.5273360000000 1.0
C      1  0.4884090000000  0.4258060000000  0.5329240000000 1.0
C      1  0.5095790000000  0.4340180000000  0.4533180000000 1.0
C      1  0.4913680000000  0.5701840000000  0.4511470000000 1.0
C      1  0.4404380000000  0.4555840000000  0.5473070000000 1.0
C      1  0.5591450000000  0.5421790000000  0.5454250000000 1.0
C      1  0.5632360000000  0.5201360000000  0.4945670000000 1.0
C      1  0.4411840000000  0.4812600000000  0.4956340000000 1.0
C      1  0.5235500000000  0.4144320000000  0.5034210000000 1.0
C      1  0.4759320000000  0.5859860000000  0.5015920000000 1.0
C      1  0.5353220000000  0.5802380000000  0.5206360000000 1.0
C      1  0.4631360000000  0.4168050000000  0.5215290000000 1.0
C      1  0.5460210000000  0.5439300000000  0.4891410000000 1.0
C      1  0.4588080000000  0.4591640000000  0.4913940000000 1.0
C      1  0.4616210000000  0.4882450000000  0.4446730000000 1.0
C      1  0.5359080000000  0.5146950000000  0.4509780000000 1.0
C      1  0.4835940000000  0.5762580000000  0.5277090000000 1.0
C      1  0.5164130000000  0.4197060000000  0.5310510000000 1.0
C      1  0.4195670000000  0.4808030000000  0.5132580000000 1.0
C      1  0.5847500000000  0.5204160000000  0.5125810000000 1.0
C      1  0.5789380000000  0.5217610000000  0.5403360000000 1.0
C      1  0.4231160000000  0.4779810000000  0.5412480000000 1.0
C      1  0.4998470000000  0.4910060000000  0.4744700000000 1.0
END
