TITL C-3201378-2706-1434 252099.722422135 125000 -686.261030853966 0 0 115 (C1) n - 1
REM
REM in /home/nfs/bkarasulu/CARBON/AIRSS/Generating-Clusters/LCBOP/Higher-Symm/SD-CG/FIRE-CG
REM
REM
REM
REM
REM
REM ./C.cell (b20cbc046b6831c77cfcea5457e17084)
REM AIRSS Version 0.9.1 bugfix July 2018 build 013d7b7c2542+ Fri, 06 Jul 2018 19:26:36 +0100
REM compiler GCC version 9.2.1 20190827 (Red Hat 9.2.1-1)
REM options -cpp -mtune=generic -march=x86-64 -g -O0 -fpre-include=/usr/include/finclude/math-vector-fortran.h
REM seed -1861031867 1672124683 -1815717615 -590264 2039430058 186325477 1988900867 -1080279138 -1906110157 2034554163 -1906965149 -2078299428 -1996951424 838910093 -8013854 435581913 191207296 -2032925812 1282225420 -1685730864 1805581517 2089452812 -643809717 -653800141 -755099376 -1095213859 1288191824 2125652258 -1823329314 1493189845 1414729919 131894169 -279027849
REM
CELL 1.54180   50.00000   50.00000   50.00000   90.00000   90.00000   90.00000
LATT -1
SFAC C  
C      1  0.4991950000000  0.5317300000000  0.4486690000000 1.0
C      1  0.5038300000000  0.4812080000000  0.5291740000000 1.0
C      1  0.4804100000000  0.5858380000000  0.4413950000000 1.0
C      1  0.5254340000000  0.4151430000000  0.5616860000000 1.0
C      1  0.4053830000000  0.4755980000000  0.5307300000000 1.0
C      1  0.5982900000000  0.5049930000000  0.4524570000000 1.0
C      1  0.5141520000000  0.5696460000000  0.5699320000000 1.0
C      1  0.4777780000000  0.4307810000000  0.4381420000000 1.0
C      1  0.4384240000000  0.4978920000000  0.4246510000000 1.0
C      1  0.5801350000000  0.5311330000000  0.5728800000000 1.0
C      1  0.4996610000000  0.6057660000000  0.4818450000000 1.0
C      1  0.4791610000000  0.4058250000000  0.5369620000000 1.0
C      1  0.4934330000000  0.4766520000000  0.4394600000000 1.0
C      1  0.5171300000000  0.5231680000000  0.5634010000000 1.0
C      1  0.4120870000000  0.5010370000000  0.5156860000000 1.0
C      1  0.5836810000000  0.4913880000000  0.4750180000000 1.0
C      1  0.5671690000000  0.5481790000000  0.5309630000000 1.0
C      1  0.4274670000000  0.4594190000000  0.4499960000000 1.0
C      1  0.5206180000000  0.5483360000000  0.4084580000000 1.0
C      1  0.5190770000000  0.4840400000000  0.5949210000000 1.0
C      1  0.5483340000000  0.4161300000000  0.5392620000000 1.0
C      1  0.4561510000000  0.5821100000000  0.4575850000000 1.0
C      1  0.5324170000000  0.5476990000000  0.5688480000000 1.0
C      1  0.4720300000000  0.4583130000000  0.4284780000000 1.0
C      1  0.4203170000000  0.4657170000000  0.4763620000000 1.0
C      1  0.5728490000000  0.5407110000000  0.5038230000000 1.0
C      1  0.3902380000000  0.5181010000000  0.5037110000000 1.0
C      1  0.6029650000000  0.4814400000000  0.4965780000000 1.0
C      1  0.5500110000000  0.4561630000000  0.5687540000000 1.0
C      1  0.4581260000000  0.5444630000000  0.4279890000000 1.0
C      1  0.5437370000000  0.5198890000000  0.4452660000000 1.0
C      1  0.4702450000000  0.4800860000000  0.5637320000000 1.0
C      1  0.5144950000000  0.4551100000000  0.5988220000000 1.0
C      1  0.4981210000000  0.5615720000000  0.4014260000000 1.0
C      1  0.4747820000000  0.5733490000000  0.5422970000000 1.0
C      1  0.5014970000000  0.3986420000000  0.4648690000000 1.0
C      1  0.4974470000000  0.5446640000000  0.4753710000000 1.0
C      1  0.5082750000000  0.4354150000000  0.5193330000000 1.0
C      1  0.4419250000000  0.4418060000000  0.5342590000000 1.0
C      1  0.5318400000000  0.5853310000000  0.4532380000000 1.0
C      1  0.5651290000000  0.5123170000000  0.4929150000000 1.0
C      1  0.4252370000000  0.4915370000000  0.4876280000000 1.0
C      1  0.4580400000000  0.4217510000000  0.4584850000000 1.0
C      1  0.5229260000000  0.5903420000000  0.5519350000000 1.0
C      1  0.5197600000000  0.5521380000000  0.5151900000000 1.0
C      1  0.4766150000000  0.4521830000000  0.4908690000000 1.0
C      1  0.5331180000000  0.4418750000000  0.5043990000000 1.0
C      1  0.4747060000000  0.5478400000000  0.4941870000000 1.0
C      1  0.5043390000000  0.5943180000000  0.4557540000000 1.0
C      1  0.4976460000000  0.4053790000000  0.5595050000000 1.0
C      1  0.5317670000000  0.4934290000000  0.5306020000000 1.0
C      1  0.4738280000000  0.5019820000000  0.4719280000000 1.0
C      1  0.4874580000000  0.4577370000000  0.5184480000000 1.0
C      1  0.5229480000000  0.5438400000000  0.4892440000000 1.0
C      1  0.4169500000000  0.4504870000000  0.5230720000000 1.0
C      1  0.5544300000000  0.5758210000000  0.4655300000000 1.0
C      1  0.4647600000000  0.4230230000000  0.4885330000000 1.0
C      1  0.5159370000000  0.5863020000000  0.5231820000000 1.0
C      1  0.4643800000000  0.5334310000000  0.5707220000000 1.0
C      1  0.5335830000000  0.4270010000000  0.4424340000000 1.0
C      1  0.5217100000000  0.4536160000000  0.4797940000000 1.0
C      1  0.4719320000000  0.5475530000000  0.5270350000000 1.0
C      1  0.5441750000000  0.4928660000000  0.4344110000000 1.0
C      1  0.4733090000000  0.5068410000000  0.5787650000000 1.0
C      1  0.5697470000000  0.5618620000000  0.4834530000000 1.0
C      1  0.4132080000000  0.4458100000000  0.4952490000000 1.0
C      1  0.4593390000000  0.5047750000000  0.5146750000000 1.0
C      1  0.5370010000000  0.4752530000000  0.4728160000000 1.0
C      1  0.4769930000000  0.5659620000000  0.4194830000000 1.0
C      1  0.5296850000000  0.4376750000000  0.5806860000000 1.0
C      1  0.6104670000000  0.4854690000000  0.5220360000000 1.0
C      1  0.3865030000000  0.5216480000000  0.4767560000000 1.0
C      1  0.6082080000000  0.4964050000000  0.5463810000000 1.0
C      1  0.3954660000000  0.5167950000000  0.4516450000000 1.0
C      1  0.4992630000000  0.5308940000000  0.5325160000000 1.0
C      1  0.4955450000000  0.4585830000000  0.4714430000000 1.0
C      1  0.5484610000000  0.4153640000000  0.5078580000000 1.0
C      1  0.4515270000000  0.5901380000000  0.4852270000000 1.0
C      1  0.4333560000000  0.5677990000000  0.4954090000000 1.0
C      1  0.5625030000000  0.4153700000000  0.4819520000000 1.0
C      1  0.5053480000000  0.4184080000000  0.4438080000000 1.0
C      1  0.4847930000000  0.5632860000000  0.5678620000000 1.0
C      1  0.5022110000000  0.5076510000000  0.5863260000000 1.0
C      1  0.5213640000000  0.4786500000000  0.4282870000000 1.0
C      1  0.4882910000000  0.4035350000000  0.4892460000000 1.0
C      1  0.4848620000000  0.5920190000000  0.5240910000000 1.0
C      1  0.4553480000000  0.4187160000000  0.5244540000000 1.0
C      1  0.5224050000000  0.6039410000000  0.5000150000000 1.0
C      1  0.5623770000000  0.4694010000000  0.4641230000000 1.0
C      1  0.4366980000000  0.5137870000000  0.5308850000000 1.0
C      1  0.4897500000000  0.5047230000000  0.5177740000000 1.0
C      1  0.5231500000000  0.4982790000000  0.4799290000000 1.0
C      1  0.4489230000000  0.5099200000000  0.4856530000000 1.0
C      1  0.5534110000000  0.4878120000000  0.5148320000000 1.0
C      1  0.4590050000000  0.4614960000000  0.5439510000000 1.0
C      1  0.5407300000000  0.5216240000000  0.4761400000000 1.0
C      1  0.5231530000000  0.5352330000000  0.4330140000000 1.0
C      1  0.4981580000000  0.4757330000000  0.5575250000000 1.0
C      1  0.4127570000000  0.5079100000000  0.4328080000000 1.0
C      1  0.5979010000000  0.5122940000000  0.5653410000000 1.0
C      1  0.4474940000000  0.5536420000000  0.4532500000000 1.0
C      1  0.5593370000000  0.4451530000000  0.5437060000000 1.0
C      1  0.4751210000000  0.6005150000000  0.4979360000000 1.0
C      1  0.4984320000000  0.4085820000000  0.5151310000000 1.0
C      1  0.5374430000000  0.5027120000000  0.5561040000000 1.0
C      1  0.4824640000000  0.5056390000000  0.4440030000000 1.0
C      1  0.4467340000000  0.5418380000000  0.4821340000000 1.0
C      1  0.5554990000000  0.4595400000000  0.5178390000000 1.0
C      1  0.4448670000000  0.4699340000000  0.4301500000000 1.0
C      1  0.5602390000000  0.5458640000000  0.5588330000000 1.0
C      1  0.4499100000000  0.5342200000000  0.5453180000000 1.0
C      1  0.5575500000000  0.4336500000000  0.4589580000000 1.0
C      1  0.4604380000000  0.5159490000000  0.4262710000000 1.0
C      1  0.5430280000000  0.4833120000000  0.5762310000000 1.0
C      1  0.4969260000000  0.5014360000000  0.4889340000000 1.0
END
