TITL C-3201375-1262-214 -1.04985355343037e-07 125000 -400.733026140481 0 0 66 (C1) n - 1
REM
REM in /home/nfs/bkarasulu/CARBON/AIRSS/Generating-Clusters/LCBOP/Higher-Symm/SD-CG/FIRE-CG
REM
REM
REM
REM
REM
REM ./C.cell (b20cbc046b6831c77cfcea5457e17084)
REM AIRSS Version 0.9.1 bugfix July 2018 build 013d7b7c2542+ Fri, 06 Jul 2018 19:26:36 +0100
REM compiler GCC version 9.2.1 20190827 (Red Hat 9.2.1-1)
REM options -cpp -mtune=generic -march=x86-64 -g -O0 -fpre-include=/usr/include/finclude/math-vector-fortran.h
REM seed -440706051 572997283 595608604 267966965 1028429742 288406232 550755018 301394368 717846689 875325461 1575688996 -816842320 -1770935171 662185856 -704654614 1193929305 -781532100 -1941141614 -1230046564 -135884416 1511368362 -795046188 1375737872 -465355486 1890690439 -177366945 338436277 -857721684 331568884 -378417980 -304522470 -193371623 619721131
REM
CELL 1.54180   50.00000   50.00000   50.00000   90.00000   90.00000   90.00000
LATT -1
SFAC C  
C      1  0.5606640000000  0.5081610000000  0.4772850000000 1.0
C      1  0.4284060000000  0.4966560000000  0.5108710000000 1.0
C      1  0.4671530000000  0.4544810000000  0.4643530000000 1.0
C      1  0.5096380000000  0.5303590000000  0.5548220000000 1.0
C      1  0.4231660000000  0.5144720000000  0.5331180000000 1.0
C      1  0.5626320000000  0.4898990000000  0.4552700000000 1.0
C      1  0.4702760000000  0.5195130000000  0.4504270000000 1.0
C      1  0.5483840000000  0.4759770000000  0.5439980000000 1.0
C      1  0.4382780000000  0.5393760000000  0.5413080000000 1.0
C      1  0.5477140000000  0.4637350000000  0.4533730000000 1.0
C      1  0.4266650000000  0.4487540000000  0.5124660000000 1.0
C      1  0.5745420000000  0.5472510000000  0.5023100000000 1.0
C      1  0.5189970000000  0.4741040000000  0.4565320000000 1.0
C      1  0.4600850000000  0.5331400000000  0.5604340000000 1.0
C      1  0.5395570000000  0.4493530000000  0.5420960000000 1.0
C      1  0.4868170000000  0.5436330000000  0.4530930000000 1.0
C      1  0.5066420000000  0.4887000000000  0.4351820000000 1.0
C      1  0.4850390000000  0.5234390000000  0.5680610000000 1.0
C      1  0.4509280000000  0.5466240000000  0.5132810000000 1.0
C      1  0.5604680000000  0.4475250000000  0.4770860000000 1.0
C      1  0.4133940000000  0.4728970000000  0.5075140000000 1.0
C      1  0.5792250000000  0.5295590000000  0.4809050000000 1.0
C      1  0.5833970000000  0.4737340000000  0.5113710000000 1.0
C      1  0.4274070000000  0.5368410000000  0.4682740000000 1.0
C      1  0.4850230000000  0.4562380000000  0.4865180000000 1.0
C      1  0.5105330000000  0.5365260000000  0.5267630000000 1.0
C      1  0.4465970000000  0.5162090000000  0.4664970000000 1.0
C      1  0.5597220000000  0.4863580000000  0.5202770000000 1.0
C      1  0.4274430000000  0.5494230000000  0.4922470000000 1.0
C      1  0.5828270000000  0.4552090000000  0.4918790000000 1.0
C      1  0.5397310000000  0.4164460000000  0.4515200000000 1.0
C      1  0.4433630000000  0.5868080000000  0.5349110000000 1.0
C      1  0.4780790000000  0.4415600000000  0.5098610000000 1.0
C      1  0.5261110000000  0.5553690000000  0.5115240000000 1.0
C      1  0.5136890000000  0.5461700000000  0.4403550000000 1.0
C      1  0.4828970000000  0.4507390000000  0.5786110000000 1.0
C      1  0.4287420000000  0.5673070000000  0.5485370000000 1.0
C      1  0.5427560000000  0.4393550000000  0.4354460000000 1.0
C      1  0.5440650000000  0.4944820000000  0.5644620000000 1.0
C      1  0.4789450000000  0.4945480000000  0.4387880000000 1.0
C      1  0.5538320000000  0.5574380000000  0.5159650000000 1.0
C      1  0.4505660000000  0.4371590000000  0.5137840000000 1.0
C      1  0.5238230000000  0.4317980000000  0.5264290000000 1.0
C      1  0.4894770000000  0.5628120000000  0.4762990000000 1.0
C      1  0.5312280000000  0.5576290000000  0.4601280000000 1.0
C      1  0.4867680000000  0.4353840000000  0.5572120000000 1.0
C      1  0.4830690000000  0.4751630000000  0.5891700000000 1.0
C      1  0.5223030000000  0.5311710000000  0.4184770000000 1.0
C      1  0.4736110000000  0.5813390000000  0.4902780000000 1.0
C      1  0.5341530000000  0.4176440000000  0.5042580000000 1.0
C      1  0.4693050000000  0.5221220000000  0.5065080000000 1.0
C      1  0.5150220000000  0.4969150000000  0.4987920000000 1.0
C      1  0.5064910000000  0.4748010000000  0.4825900000000 1.0
C      1  0.4971560000000  0.5169830000000  0.5101870000000 1.0
C      1  0.4631860000000  0.4714420000000  0.4437050000000 1.0
C      1  0.5326680000000  0.5186930000000  0.5662600000000 1.0
C      1  0.4597450000000  0.5757600000000  0.5139220000000 1.0
C      1  0.5461510000000  0.4220050000000  0.4793470000000 1.0
C      1  0.5206410000000  0.5043730000000  0.4166140000000 1.0
C      1  0.4849940000000  0.5014680000000  0.5856630000000 1.0
C      1  0.4958270000000  0.4341120000000  0.5306240000000 1.0
C      1  0.5175430000000  0.5623330000000  0.4851170000000 1.0
C      1  0.4501180000000  0.5043750000000  0.4931320000000 1.0
C      1  0.5442850000000  0.4997870000000  0.5000450000000 1.0
C      1  0.6007330000000  0.5328080000000  0.4643770000000 1.0
C      1  0.3873110000000  0.4735560000000  0.4994870000000 1.0
END
