TITL C-3201373-1215-1716 -9.4143263160333e-07 125000 -569.930371069952 0 0 99 (C3h) n - 1
REM
REM in /home/nfs/bkarasulu/CARBON/AIRSS/Generating-Clusters/LCBOP/Higher-Symm/SD-CG/FIRE-CG
REM
REM
REM
REM
REM
REM ./C.cell (b20cbc046b6831c77cfcea5457e17084)
REM AIRSS Version 0.9.1 bugfix July 2018 build 013d7b7c2542+ Fri, 06 Jul 2018 19:26:36 +0100
REM compiler GCC version 9.2.1 20190827 (Red Hat 9.2.1-1)
REM options -cpp -mtune=generic -march=x86-64 -g -O0 -fpre-include=/usr/include/finclude/math-vector-fortran.h
REM seed 403943465 -1666634029 1464706506 -447319276 -1933862287 1524803678 1552554495 -1139312650 -39839419 752848541 1285708105 1666529455 1273142931 -1404830976 -2104355628 -469299985 -76299674 270238596 -1372306696 1994934322 -1969596775 291581035 -2144496580 -1117043770 1658986857 -2010269403 -17104939 113038117 1868103749 168630654 -1490416190 1122307025 -2127974373
REM
CELL 1.54180   50.00000   50.00000   50.00000   90.00000   90.00000   90.00000
LATT -1
SFAC C  
C      1  0.4365640000000  0.4848900000000  0.5696420000000 1.0
C      1  0.5186330000000  0.5624920000000  0.5696420000000 1.0
C      1  0.5448040000000  0.4526170000000  0.5696410000000 1.0
C      1  0.4365630000000  0.4848900000000  0.4286870000000 1.0
C      1  0.5186320000000  0.5624930000000  0.4286870000000 1.0
C      1  0.5448030000000  0.4526180000000  0.4286860000000 1.0
C      1  0.4314170000000  0.4580350000000  0.4374150000000 1.0
C      1  0.4979480000000  0.5803770000000  0.4374150000000 1.0
C      1  0.5706340000000  0.4615880000000  0.4374140000000 1.0
C      1  0.4314180000000  0.4580350000000  0.5609140000000 1.0
C      1  0.4979490000000  0.5803770000000  0.5609140000000 1.0
C      1  0.5706350000000  0.4615880000000  0.5609130000000 1.0
C      1  0.5532520000000  0.5353320000000  0.5508090000000 1.0
C      1  0.5039730000000  0.4362170000000  0.5508100000000 1.0
C      1  0.4427760000000  0.5284510000000  0.5508100000000 1.0
C      1  0.5532510000000  0.5353320000000  0.4475180000000 1.0
C      1  0.5039720000000  0.4362170000000  0.4475190000000 1.0
C      1  0.4427760000000  0.5284510000000  0.4475190000000 1.0
C      1  0.5117480000000  0.5586820000000  0.4847250000000 1.0
C      1  0.5449460000000  0.4604850000000  0.4847240000000 1.0
C      1  0.4433060000000  0.4808330000000  0.4847250000000 1.0
C      1  0.5117480000000  0.5586820000000  0.5136040000000 1.0
C      1  0.5449460000000  0.4604850000000  0.5136030000000 1.0
C      1  0.4433060000000  0.4808330000000  0.5136040000000 1.0
C      1  0.5946560000000  0.4651020000000  0.4854930000000 1.0
C      1  0.4224490000000  0.4354740000000  0.4854940000000 1.0
C      1  0.4828940000000  0.5994240000000  0.4854940000000 1.0
C      1  0.5946570000000  0.4651020000000  0.5128340000000 1.0
C      1  0.4224490000000  0.4354740000000  0.5128360000000 1.0
C      1  0.4828940000000  0.5994240000000  0.5128350000000 1.0
C      1  0.4881190000000  0.5250240000000  0.3995010000000 1.0
C      1  0.5276100000000  0.4977770000000  0.3995010000000 1.0
C      1  0.4842680000000  0.4772000000000  0.3995010000000 1.0
C      1  0.4881210000000  0.5250240000000  0.5988280000000 1.0
C      1  0.5276120000000  0.4977760000000  0.5988270000000 1.0
C      1  0.4842700000000  0.4772000000000  0.5988280000000 1.0
C      1  0.4668570000000  0.4922490000000  0.5262660000000 1.0
C      1  0.5098600000000  0.5325780000000  0.5262660000000 1.0
C      1  0.5232840000000  0.4751720000000  0.5262660000000 1.0
C      1  0.4668560000000  0.4922490000000  0.4720630000000 1.0
C      1  0.5098590000000  0.5325780000000  0.4720620000000 1.0
C      1  0.5232840000000  0.4751720000000  0.4720620000000 1.0
C      1  0.4688990000000  0.5237020000000  0.5600970000000 1.0
C      1  0.5360780000000  0.5150830000000  0.5600960000000 1.0
C      1  0.4950240000000  0.4612140000000  0.5600970000000 1.0
C      1  0.4688980000000  0.5237030000000  0.4382320000000 1.0
C      1  0.5360770000000  0.5150830000000  0.4382320000000 1.0
C      1  0.4950230000000  0.4612140000000  0.4382320000000 1.0
C      1  0.4781090000000  0.4806350000000  0.5501060000000 1.0
C      1  0.4941750000000  0.5286410000000  0.5501060000000 1.0
C      1  0.5277170000000  0.4907240000000  0.5501050000000 1.0
C      1  0.4781080000000  0.4806350000000  0.4482230000000 1.0
C      1  0.4941750000000  0.5286420000000  0.4482230000000 1.0
C      1  0.5277160000000  0.4907240000000  0.4482230000000 1.0
C      1  0.5131390000000  0.5287830000000  0.5835270000000 1.0
C      1  0.5183590000000  0.4742300000000  0.5835260000000 1.0
C      1  0.4685040000000  0.4969860000000  0.5835270000000 1.0
C      1  0.5131370000000  0.5287840000000  0.4148020000000 1.0
C      1  0.5183580000000  0.4742310000000  0.4148020000000 1.0
C      1  0.4685030000000  0.4969860000000  0.4148020000000 1.0
C      1  0.4662800000000  0.5195700000000  0.4850170000000 1.0
C      1  0.5338080000000  0.5194170000000  0.4850160000000 1.0
C      1  0.4999120000000  0.4610130000000  0.4850160000000 1.0
C      1  0.4662800000000  0.5195700000000  0.5133120000000 1.0
C      1  0.5338080000000  0.5194170000000  0.5133120000000 1.0
C      1  0.4999120000000  0.4610130000000  0.5133120000000 1.0
C      1  0.4871410000000  0.5930380000000  0.5391020000000 1.0
C      1  0.5870030000000  0.4646180000000  0.5391010000000 1.0
C      1  0.4258570000000  0.4423450000000  0.5391030000000 1.0
C      1  0.4871400000000  0.5930380000000  0.4592270000000 1.0
C      1  0.5870020000000  0.4646180000000  0.4592260000000 1.0
C      1  0.4258560000000  0.4423450000000  0.4592270000000 1.0
C      1  0.4187050000000  0.4946420000000  0.4741110000000 1.0
C      1  0.5360070000000  0.5730830000000  0.4741100000000 1.0
C      1  0.5452870000000  0.4322750000000  0.4741100000000 1.0
C      1  0.4187050000000  0.4946420000000  0.5242190000000 1.0
C      1  0.5360080000000  0.5730820000000  0.5242180000000 1.0
C      1  0.5452880000000  0.4322750000000  0.5242170000000 1.0
C      1  0.5600880000000  0.5254290000000  0.4729580000000 1.0
C      1  0.4919780000000  0.4352480000000  0.4729590000000 1.0
C      1  0.4479330000000  0.5393230000000  0.4729590000000 1.0
C      1  0.5600880000000  0.5254290000000  0.5253690000000 1.0
C      1  0.4919790000000  0.4352480000000  0.5253700000000 1.0
C      1  0.4479340000000  0.5393230000000  0.5253700000000 1.0
C      1  0.5328080000000  0.4333190000000  0.5512520000000 1.0
C      1  0.4258490000000  0.5049290000000  0.5512530000000 1.0
C      1  0.5413440000000  0.5617530000000  0.5512520000000 1.0
C      1  0.5328070000000  0.4333190000000  0.4470750000000 1.0
C      1  0.4258480000000  0.5049290000000  0.4470760000000 1.0
C      1  0.5413440000000  0.5617530000000  0.4470750000000 1.0
C      1  0.4364240000000  0.5611220000000  0.5125990000000 1.0
C      1  0.5847210000000  0.5244980000000  0.5125980000000 1.0
C      1  0.4788550000000  0.4143800000000  0.5125990000000 1.0
C      1  0.4364240000000  0.5611220000000  0.4857310000000 1.0
C      1  0.5847210000000  0.5244980000000  0.4857290000000 1.0
C      1  0.4788550000000  0.4143800000000  0.4857300000000 1.0
C      1  0.5470400000000  0.4167560000000  0.4991640000000 1.0
C      1  0.5485710000000  0.5823600000000  0.4991640000000 1.0
C      1  0.4043890000000  0.5008840000000  0.4991650000000 1.0
END
