TITL C-3201377-4638-4 -1.08099523357934e-06 125000 -705.496641784013 0 0 117 (C1) n - 1
REM
REM in /home/nfs/bkarasulu/CARBON/AIRSS/Generating-Clusters/LCBOP/Higher-Symm/SD-CG/FIRE-CG
REM
REM
REM
REM
REM
REM ./C.cell (b20cbc046b6831c77cfcea5457e17084)
REM AIRSS Version 0.9.1 bugfix July 2018 build 013d7b7c2542+ Fri, 06 Jul 2018 19:26:36 +0100
REM compiler GCC version 9.2.1 20190827 (Red Hat 9.2.1-1)
REM options -cpp -mtune=generic -march=x86-64 -g -O0 -fpre-include=/usr/include/finclude/math-vector-fortran.h
REM seed 2037539755 -1992907109 -1712128929 388224773 -1056102722 -2103927356 -260484774 -1906309179 605348738 875071323 984188270 782705434 -732396060 -1473223010 -1446318116 -2062436085 -66003662 -1519352208 -1931610555 954355455 -1469672838 -43520255 1371773646 -1204951699 -1150723615 651972587 708168211 1685984994 2119827273 -2124666202 -2088125017 -1140671621 1577843753
REM
CELL 1.54180   50.00000   50.00000   50.00000   90.00000   90.00000   90.00000
LATT -1
SFAC C  
C      1  0.5316050000000  0.4183840000000  0.4455760000000 1.0
C      1  0.4454910000000  0.5196360000000  0.4259740000000 1.0
C      1  0.4322790000000  0.4681150000000  0.5364290000000 1.0
C      1  0.5423320000000  0.5893630000000  0.5705940000000 1.0
C      1  0.4526330000000  0.5610570000000  0.4504850000000 1.0
C      1  0.4667970000000  0.4405910000000  0.5563650000000 1.0
C      1  0.4464660000000  0.4764180000000  0.5830990000000 1.0
C      1  0.5553800000000  0.4572160000000  0.4258520000000 1.0
C      1  0.5496420000000  0.5418870000000  0.5726610000000 1.0
C      1  0.4251600000000  0.5202000000000  0.4691870000000 1.0
C      1  0.5609300000000  0.5668720000000  0.5325030000000 1.0
C      1  0.5728590000000  0.4340510000000  0.4673310000000 1.0
C      1  0.4597210000000  0.4292510000000  0.4556180000000 1.0
C      1  0.5540110000000  0.5353360000000  0.4162250000000 1.0
C      1  0.5716370000000  0.4537840000000  0.5404740000000 1.0
C      1  0.4751250000000  0.5715100000000  0.5639940000000 1.0
C      1  0.5206190000000  0.5612100000000  0.4399020000000 1.0
C      1  0.5309340000000  0.4386700000000  0.5599310000000 1.0
C      1  0.5602440000000  0.4659540000000  0.5859540000000 1.0
C      1  0.4501810000000  0.4672060000000  0.4290550000000 1.0
C      1  0.4479830000000  0.5311120000000  0.5720180000000 1.0
C      1  0.5639120000000  0.5529670000000  0.4598050000000 1.0
C      1  0.4269680000000  0.5236600000000  0.5278820000000 1.0
C      1  0.4194410000000  0.4563570000000  0.4644010000000 1.0
C      1  0.6076130000000  0.4555960000000  0.5747180000000 1.0
C      1  0.5790560000000  0.6380050000000  0.5298810000000 1.0
C      1  0.5569710000000  0.5707810000000  0.6399140000000 1.0
C      1  0.6009150000000  0.5474400000000  0.4272130000000 1.0
C      1  0.3997260000000  0.5213240000000  0.5687760000000 1.0
C      1  0.3730460000000  0.5179980000000  0.4185030000000 1.0
C      1  0.5583820000000  0.3660280000000  0.4890560000000 1.0
C      1  0.4169790000000  0.4065180000000  0.4663720000000 1.0
C      1  0.3919390000000  0.5893800000000  0.4825550000000 1.0
C      1  0.5038420000000  0.4330060000000  0.3799600000000 1.0
C      1  0.5135390000000  0.4528930000000  0.6021610000000 1.0
C      1  0.5171440000000  0.5565640000000  0.3904930000000 1.0
C      1  0.3768150000000  0.5255890000000  0.5804020000000 1.0
C      1  0.4098720000000  0.5726940000000  0.4736560000000 1.0
C      1  0.5529410000000  0.5688730000000  0.6142380000000 1.0
C      1  0.3959350000000  0.5120660000000  0.4294190000000 1.0
C      1  0.6326210000000  0.4531270000000  0.5816170000000 1.0
C      1  0.6260860000000  0.5490970000000  0.4206690000000 1.0
C      1  0.4031700000000  0.3848310000000  0.4706230000000 1.0
C      1  0.5562520000000  0.3885650000000  0.4761480000000 1.0
C      1  0.5687670000000  0.6155450000000  0.5381770000000 1.0
C      1  0.5197170000000  0.4346380000000  0.4005600000000 1.0
C      1  0.4868660000000  0.4535140000000  0.5992090000000 1.0
C      1  0.5033790000000  0.5605340000000  0.3687250000000 1.0
C      1  0.4264210000000  0.5156390000000  0.5567620000000 1.0
C      1  0.5431930000000  0.4534500000000  0.5390730000000 1.0
C      1  0.5300840000000  0.5514270000000  0.4145350000000 1.0
C      1  0.4268990000000  0.4759220000000  0.4440980000000 1.0
C      1  0.5810180000000  0.4583610000000  0.5671640000000 1.0
C      1  0.5741490000000  0.5453300000000  0.4343090000000 1.0
C      1  0.5354650000000  0.5501300000000  0.4617360000000 1.0
C      1  0.4507260000000  0.5256970000000  0.5141630000000 1.0
C      1  0.4317860000000  0.4297430000000  0.4623280000000 1.0
C      1  0.5360910000000  0.4503240000000  0.5856230000000 1.0
C      1  0.4684140000000  0.4547400000000  0.4465480000000 1.0
C      1  0.4675170000000  0.5455690000000  0.5572580000000 1.0
C      1  0.5476580000000  0.5440890000000  0.5441240000000 1.0
C      1  0.4566190000000  0.4533760000000  0.5330570000000 1.0
C      1  0.4626330000000  0.5357390000000  0.4421990000000 1.0
C      1  0.5747460000000  0.4521690000000  0.4458000000000 1.0
C      1  0.4324170000000  0.4854260000000  0.5592450000000 1.0
C      1  0.4220870000000  0.5063600000000  0.4420610000000 1.0
C      1  0.4290700000000  0.5554100000000  0.4644970000000 1.0
C      1  0.5577270000000  0.5915070000000  0.5466950000000 1.0
C      1  0.5535720000000  0.4132080000000  0.4633980000000 1.0
C      1  0.4652780000000  0.4551740000000  0.5810940000000 1.0
C      1  0.5353000000000  0.4367850000000  0.4236010000000 1.0
C      1  0.5484060000000  0.5666980000000  0.5869030000000 1.0
C      1  0.4489510000000  0.4954590000000  0.6039280000000 1.0
C      1  0.5851020000000  0.4389160000000  0.4919900000000 1.0
C      1  0.4723180000000  0.5809570000000  0.4487560000000 1.0
C      1  0.4536330000000  0.5060910000000  0.4026020000000 1.0
C      1  0.5543430000000  0.5180630000000  0.5862640000000 1.0
C      1  0.5545670000000  0.4818390000000  0.4124700000000 1.0
C      1  0.5755200000000  0.5651880000000  0.5087980000000 1.0
C      1  0.4015380000000  0.5191050000000  0.4867780000000 1.0
C      1  0.4133440000000  0.4664760000000  0.5158300000000 1.0
C      1  0.4849630000000  0.4193470000000  0.5542340000000 1.0
C      1  0.5060850000000  0.4076570000000  0.4510640000000 1.0
C      1  0.5165740000000  0.6001120000000  0.5721880000000 1.0
C      1  0.5589330000000  0.4929040000000  0.5933540000000 1.0
C      1  0.4089600000000  0.4631400000000  0.4896320000000 1.0
C      1  0.4987320000000  0.5784450000000  0.4437190000000 1.0
C      1  0.5544480000000  0.5082670000000  0.4086950000000 1.0
C      1  0.4515750000000  0.5218860000000  0.5985750000000 1.0
C      1  0.4560150000000  0.4791540000000  0.4043340000000 1.0
C      1  0.4028680000000  0.5234660000000  0.5133220000000 1.0
C      1  0.5777210000000  0.5608670000000  0.4826340000000 1.0
C      1  0.5857890000000  0.4467780000000  0.5174670000000 1.0
C      1  0.5117140000000  0.4189410000000  0.5556250000000 1.0
C      1  0.4797790000000  0.4097130000000  0.4559110000000 1.0
C      1  0.4914200000000  0.5917800000000  0.5693420000000 1.0
C      1  0.4890950000000  0.5042120000000  0.5331670000000 1.0
C      1  0.5217200000000  0.5012240000000  0.4591680000000 1.0
C      1  0.5083920000000  0.4602990000000  0.4789290000000 1.0
C      1  0.4680150000000  0.4836920000000  0.4916040000000 1.0
C      1  0.5006410000000  0.5445420000000  0.5154660000000 1.0
C      1  0.4967840000000  0.5284380000000  0.4885660000000 1.0
C      1  0.5028080000000  0.4566610000000  0.5078410000000 1.0
C      1  0.4517490000000  0.5103030000000  0.4833270000000 1.0
C      1  0.5411900000000  0.5163600000000  0.5010410000000 1.0
C      1  0.5419200000000  0.4869820000000  0.4999110000000 1.0
C      1  0.4932280000000  0.4984150000000  0.4528560000000 1.0
C      1  0.5166660000000  0.4996050000000  0.5394400000000 1.0
C      1  0.4768780000000  0.5323910000000  0.5323320000000 1.0
C      1  0.5254310000000  0.5266700000000  0.4764360000000 1.0
C      1  0.5271020000000  0.4732510000000  0.5240030000000 1.0
C      1  0.5309040000000  0.4780480000000  0.4745270000000 1.0
C      1  0.4768810000000  0.5222680000000  0.4644460000000 1.0
C      1  0.4729500000000  0.4592930000000  0.5109410000000 1.0
C      1  0.4830810000000  0.4721220000000  0.4651180000000 1.0
C      1  0.5297830000000  0.5276810000000  0.5274910000000 1.0
C      1  0.4904780000000  0.5005020000000  0.5038790000000 1.0
END
