TITL C-3201376-6384-870 0.00451816666989541 125000 -102.400840283315 0 0 19 (C3v) n - 1
REM
REM in /home/nfs/bkarasulu/CARBON/AIRSS/Generating-Clusters/LCBOP/Higher-Symm/SD-CG/FIRE-CG
REM
REM
REM
REM
REM
REM ./C.cell (b20cbc046b6831c77cfcea5457e17084)
REM AIRSS Version 0.9.1 bugfix July 2018 build 013d7b7c2542+ Fri, 06 Jul 2018 19:26:36 +0100
REM compiler GCC version 9.2.1 20190827 (Red Hat 9.2.1-1)
REM options -cpp -mtune=generic -march=x86-64 -g -O0 -fpre-include=/usr/include/finclude/math-vector-fortran.h
REM seed -109228460 -1790106663 1876244073 -1906313652 -1880719634 -674981988 -1265194825 -1081047737 715248309 1351836445 600512510 332016021 170975144 -723223269 -1231572384 -1353124467 920530119 483775658 1168767429 496146432 1476068337 1684014839 -1420932117 1363148838 -335878249 -1241642167 -1758443848 1482624283 -955988858 1425793696 1266494905 2035565825 -1033601365
REM
CELL 1.54180   50.00000   50.00000   50.00000   90.00000   90.00000   90.00000
LATT -1
SFAC C  
C      1  0.5148230000000  0.4533790000000  0.4844860000000 1.0
C      1  0.5144320000000  0.5126450000000  0.5488070000000 1.0
C      1  0.5140730000000  0.5387120000000  0.4653180000000 1.0
C      1  0.5399050000000  0.5144620000000  0.5559020000000 1.0
C      1  0.5394940000000  0.5443060000000  0.4603180000000 1.0
C      1  0.5403530000000  0.4466100000000  0.4822630000000 1.0
C      1  0.5655580000000  0.4402860000000  0.4801810000000 1.0
C      1  0.5650570000000  0.5161740000000  0.5625420000000 1.0
C      1  0.5645980000000  0.5495530000000  0.4556360000000 1.0
C      1  0.4650630000000  0.4740470000000  0.4911530000000 1.0
C      1  0.4648430000000  0.5073870000000  0.5273360000000 1.0
C      1  0.4646410000000  0.5220510000000  0.4803710000000 1.0
C      1  0.4894890000000  0.5104840000000  0.5401610000000 1.0
C      1  0.4891940000000  0.5319550000000  0.4713940000000 1.0
C      1  0.4898120000000  0.4616670000000  0.4871820000000 1.0
C      1  0.4410970000000  0.5322120000000  0.4708650000000 1.0
C      1  0.4417280000000  0.4604040000000  0.4869940000000 1.0
C      1  0.4413990000000  0.5102770000000  0.5411190000000 1.0
C      1  0.4645530000000  0.5011590000000  0.4996210000000 1.0
END
