TITL C-3201373-1215-1099 -1.26617681360617e-07 125000 -26.6886773188742 0 0 6 (D2d) n - 1
REM
REM in /home/nfs/bkarasulu/CARBON/AIRSS/Generating-Clusters/LCBOP/Higher-Symm/SD-CG/FIRE-CG
REM
REM
REM
REM
REM
REM ./C.cell (b20cbc046b6831c77cfcea5457e17084)
REM AIRSS Version 0.9.1 bugfix July 2018 build 013d7b7c2542+ Fri, 06 Jul 2018 19:26:36 +0100
REM compiler GCC version 9.2.1 20190827 (Red Hat 9.2.1-1)
REM options -cpp -mtune=generic -march=x86-64 -g -O0 -fpre-include=/usr/include/finclude/math-vector-fortran.h
REM seed -1283428639 -509636227 1775202432 -1231256257 -310731265 1533826540 -1134585779 277629230 797920658 53558481 -420110419 1981726786 -252641267 -1844791207 774137980 -1556096246 1484633334 593633263 -1144075782 -861293836 -1743560050 -229462012 -1353314147 1840621714 1734273231 -9415429 133194480 -2016253048 245140904 -443090304 1830274563 -1513757799 1952552505
REM
CELL 1.54180   50.00000   50.00000   50.00000   90.00000   90.00000   90.00000
LATT -1
SFAC C  
C      1  0.5289750000000  0.4831430000000  0.4831430000000 1.0
C      1  0.5289750000000  0.5168570000000  0.5168570000000 1.0
C      1  0.4735250000000  0.4831430000000  0.5168570000000 1.0
C      1  0.4735250000000  0.5168570000000  0.4831430000000 1.0
C      1  0.5154850000000  0.5000000000000  0.5000000000000 1.0
C      1  0.4870160000000  0.5000000000000  0.5000000000000 1.0
END
