TITL C-3201373-1215-2173 -149542.472819924 125000 -1172.578744508 0 0 188 (C1) n - 1
REM
REM in /home/nfs/bkarasulu/CARBON/AIRSS/Generating-Clusters/LCBOP/Higher-Symm/SD-CG/FIRE-CG
REM
REM
REM
REM
REM
REM ./C.cell (b20cbc046b6831c77cfcea5457e17084)
REM AIRSS Version 0.9.1 bugfix July 2018 build 013d7b7c2542+ Fri, 06 Jul 2018 19:26:36 +0100
REM compiler GCC version 9.2.1 20190827 (Red Hat 9.2.1-1)
REM options -cpp -mtune=generic -march=x86-64 -g -O0 -fpre-include=/usr/include/finclude/math-vector-fortran.h
REM seed 171796671 -731551863 280899306 1952087714 141978824 -892977034 672427374 -29240635 -890717421 822130321 1508370445 94385850 -2142584870 1630366917 -390600920 1985939195 2010562266 -2084456167 1377543746 -382112112 -1608161057 -92011510 749503756 17149814 1753496136 -1384735482 -1332969610 -1694664321 245128973 1516433044 -789740462 1464220350 279620004
REM
CELL 1.54180   50.00000   50.00000   50.00000   90.00000   90.00000   90.00000
LATT -1
SFAC C  
C      1  0.5202930000000  0.6221990000000  0.5112690000000 1.0
C      1  0.5717200000000  0.5387970000000  0.6257290000000 1.0
C      1  0.4368350000000  0.4152340000000  0.4137640000000 1.0
C      1  0.5604560000000  0.4826940000000  0.6063490000000 1.0
C      1  0.4022200000000  0.5648430000000  0.5284180000000 1.0
C      1  0.5209430000000  0.5048320000000  0.4371140000000 1.0
C      1  0.4007850000000  0.5141630000000  0.5735050000000 1.0
C      1  0.4018750000000  0.4253180000000  0.5699340000000 1.0
C      1  0.5066400000000  0.4406760000000  0.4425460000000 1.0
C      1  0.5631940000000  0.5787420000000  0.5610490000000 1.0
C      1  0.5912210000000  0.4468150000000  0.5005100000000 1.0
C      1  0.4777190000000  0.4525260000000  0.4103500000000 1.0
C      1  0.4693050000000  0.4723300000000  0.4325820000000 1.0
C      1  0.5257930000000  0.5553160000000  0.5205250000000 1.0
C      1  0.6027930000000  0.5454940000000  0.4539230000000 1.0
C      1  0.4129520000000  0.5095390000000  0.5115570000000 1.0
C      1  0.3962720000000  0.5366340000000  0.5293110000000 1.0
C      1  0.5415610000000  0.3904730000000  0.4761270000000 1.0
C      1  0.5536620000000  0.5053540000000  0.5150100000000 1.0
C      1  0.5586720000000  0.5140100000000  0.4678420000000 1.0
C      1  0.3985650000000  0.4015420000000  0.4983200000000 1.0
C      1  0.4829400000000  0.4047140000000  0.4288530000000 1.0
C      1  0.4538570000000  0.5959710000000  0.4952900000000 1.0
C      1  0.5556790000000  0.3894860000000  0.4991400000000 1.0
C      1  0.5443500000000  0.5057760000000  0.6020380000000 1.0
C      1  0.5757540000000  0.5902330000000  0.5167830000000 1.0
C      1  0.4361250000000  0.4306490000000  0.5214370000000 1.0
C      1  0.5058290000000  0.5182570000000  0.5036740000000 1.0
C      1  0.4717780000000  0.3901500000000  0.4509590000000 1.0
C      1  0.4607240000000  0.5058310000000  0.5235000000000 1.0
C      1  0.5121400000000  0.4327900000000  0.5040980000000 1.0
C      1  0.5703960000000  0.4603990000000  0.5947690000000 1.0
C      1  0.5078870000000  0.4524290000000  0.4154890000000 1.0
C      1  0.5341720000000  0.5647380000000  0.3832530000000 1.0
C      1  0.4143250000000  0.4952900000000  0.4836420000000 1.0
C      1  0.4579090000000  0.5565670000000  0.5987380000000 1.0
C      1  0.4530970000000  0.4767190000000  0.5270610000000 1.0
C      1  0.5071130000000  0.5134890000000  0.3743470000000 1.0
C      1  0.4960640000000  0.5904100000000  0.4455010000000 1.0
C      1  0.4740270000000  0.5711380000000  0.4458230000000 1.0
C      1  0.4805330000000  0.5425780000000  0.6088020000000 1.0
C      1  0.4511110000000  0.5482760000000  0.5513070000000 1.0
C      1  0.4115990000000  0.3847940000000  0.4792840000000 1.0
C      1  0.5970620000000  0.4259790000000  0.5181260000000 1.0
C      1  0.3869910000000  0.5281080000000  0.5546450000000 1.0
C      1  0.5630600000000  0.5563220000000  0.4203630000000 1.0
C      1  0.4628180000000  0.5633220000000  0.4008130000000 1.0
C      1  0.4646030000000  0.4316940000000  0.5623920000000 1.0
C      1  0.5294850000000  0.4675110000000  0.4732820000000 1.0
C      1  0.4873830000000  0.4188270000000  0.5009110000000 1.0
C      1  0.4869240000000  0.3821370000000  0.5476290000000 1.0
C      1  0.3905440000000  0.4764740000000  0.4031860000000 1.0
C      1  0.4812660000000  0.6213320000000  0.5443490000000 1.0
C      1  0.4836300000000  0.4496970000000  0.5502040000000 1.0
C      1  0.4127060000000  0.5120710000000  0.4598380000000 1.0
C      1  0.4541060000000  0.4497990000000  0.4764310000000 1.0
C      1  0.5600290000000  0.5995460000000  0.5391070000000 1.0
C      1  0.5121040000000  0.5783360000000  0.5280530000000 1.0
C      1  0.5814470000000  0.4115110000000  0.5367890000000 1.0
C      1  0.5063640000000  0.5544430000000  0.6092910000000 1.0
C      1  0.4633000000000  0.5222600000000  0.4522050000000 1.0
C      1  0.5712620000000  0.5162220000000  0.5592450000000 1.0
C      1  0.5683760000000  0.5003510000000  0.4045400000000 1.0
C      1  0.4503320000000  0.4998590000000  0.5706710000000 1.0
C      1  0.6080640000000  0.5543680000000  0.5038130000000 1.0
C      1  0.4396140000000  0.3846100000000  0.4862320000000 1.0
C      1  0.5509530000000  0.4758060000000  0.5249210000000 1.0
C      1  0.4736440000000  0.5013170000000  0.4345730000000 1.0
C      1  0.4137730000000  0.5863880000000  0.5445990000000 1.0
C      1  0.5400560000000  0.5673760000000  0.4356170000000 1.0
C      1  0.5082010000000  0.5427590000000  0.5602510000000 1.0
C      1  0.5076480000000  0.5492490000000  0.4710830000000 1.0
C      1  0.4886350000000  0.5254330000000  0.5587830000000 1.0
C      1  0.5660480000000  0.5548480000000  0.4875000000000 1.0
C      1  0.5797230000000  0.4571720000000  0.4280410000000 1.0
C      1  0.5308920000000  0.5388760000000  0.5439000000000 1.0
C      1  0.6170820000000  0.5099790000000  0.4841520000000 1.0
C      1  0.5403380000000  0.6186390000000  0.5313430000000 1.0
C      1  0.6136560000000  0.5197360000000  0.5366210000000 1.0
C      1  0.4233490000000  0.3913440000000  0.4264250000000 1.0
C      1  0.6419620000000  0.4787010000000  0.5566300000000 1.0
C      1  0.4335690000000  0.4732750000000  0.4806850000000 1.0
C      1  0.3480520000000  0.4615600000000  0.4845370000000 1.0
C      1  0.4761830000000  0.4947650000000  0.5874410000000 1.0
C      1  0.4291010000000  0.6090450000000  0.5343380000000 1.0
C      1  0.4976440000000  0.5107660000000  0.4215220000000 1.0
C      1  0.4510290000000  0.4144270000000  0.5433070000000 1.0
C      1  0.3840310000000  0.4967840000000  0.4192310000000 1.0
C      1  0.4872620000000  0.5777760000000  0.5376090000000 1.0
C      1  0.4418880000000  0.5601030000000  0.5758130000000 1.0
C      1  0.6298770000000  0.5000930000000  0.5479170000000 1.0
C      1  0.4153080000000  0.4373110000000  0.4483260000000 1.0
C      1  0.5955100000000  0.4495260000000  0.4492800000000 1.0
C      1  0.5118690000000  0.4586620000000  0.4926360000000 1.0
C      1  0.5608710000000  0.4726540000000  0.4118880000000 1.0
C      1  0.4525510000000  0.6197580000000  0.5477600000000 1.0
C      1  0.5867220000000  0.5607350000000  0.5505060000000 1.0
C      1  0.6158490000000  0.5266750000000  0.5089360000000 1.0
C      1  0.4122680000000  0.4852750000000  0.5385240000000 1.0
C      1  0.5338610000000  0.4619960000000  0.4071520000000 1.0
C      1  0.4288850000000  0.4643010000000  0.5301030000000 1.0
C      1  0.3946870000000  0.4198700000000  0.5445490000000 1.0
C      1  0.4400550000000  0.5217070000000  0.5097000000000 1.0
C      1  0.5565330000000  0.4690220000000  0.4790910000000 1.0
C      1  0.4094480000000  0.3835850000000  0.4496510000000 1.0
C      1  0.5296380000000  0.5482410000000  0.4534980000000 1.0
C      1  0.5110250000000  0.5719520000000  0.3985880000000 1.0
C      1  0.4915140000000  0.6218940000000  0.5167480000000 1.0
C      1  0.4931790000000  0.4743670000000  0.5060510000000 1.0
C      1  0.5334840000000  0.5097970000000  0.3702170000000 1.0
C      1  0.4208060000000  0.5783110000000  0.5712170000000 1.0
C      1  0.5877300000000  0.5147880000000  0.4197070000000 1.0
C      1  0.4628490000000  0.5661700000000  0.5322790000000 1.0
C      1  0.4770630000000  0.4560650000000  0.4560960000000 1.0
C      1  0.4436230000000  0.5456030000000  0.4957100000000 1.0
C      1  0.5171990000000  0.5828070000000  0.4252720000000 1.0
C      1  0.4862350000000  0.5011460000000  0.5088380000000 1.0
C      1  0.4540550000000  0.5692170000000  0.5054430000000 1.0
C      1  0.4615790000000  0.5200230000000  0.5503060000000 1.0
C      1  0.5657860000000  0.4599540000000  0.5046390000000 1.0
C      1  0.5926900000000  0.5325240000000  0.5522060000000 1.0
C      1  0.3910120000000  0.4438700000000  0.4601460000000 1.0
C      1  0.3685050000000  0.4517820000000  0.4716690000000 1.0
C      1  0.5072980000000  0.4642280000000  0.5582570000000 1.0
C      1  0.5501790000000  0.5334700000000  0.6094890000000 1.0
C      1  0.5728740000000  0.4903400000000  0.4693330000000 1.0
C      1  0.4052170000000  0.4541860000000  0.4030860000000 1.0
C      1  0.4889120000000  0.5536220000000  0.3960740000000 1.0
C      1  0.4318870000000  0.6106040000000  0.5059450000000 1.0
C      1  0.5434080000000  0.5167660000000  0.5571090000000 1.0
C      1  0.5767050000000  0.4403530000000  0.5779430000000 1.0
C      1  0.4642130000000  0.4376420000000  0.6113150000000 1.0
C      1  0.4626570000000  0.4373420000000  0.5034680000000 1.0
C      1  0.4616860000000  0.3887030000000  0.5355980000000 1.0
C      1  0.5337150000000  0.5558350000000  0.6002360000000 1.0
C      1  0.4528270000000  0.5679230000000  0.4268520000000 1.0
C      1  0.5964750000000  0.5714340000000  0.5245390000000 1.0
C      1  0.5789330000000  0.6242710000000  0.4371740000000 1.0
C      1  0.5038580000000  0.4865730000000  0.5760530000000 1.0
C      1  0.5264890000000  0.4321730000000  0.5288040000000 1.0
C      1  0.4209440000000  0.4961880000000  0.5646370000000 1.0
C      1  0.5937390000000  0.5562300000000  0.4784730000000 1.0
C      1  0.5860880000000  0.5413890000000  0.4309540000000 1.0
C      1  0.4787680000000  0.6097530000000  0.4920410000000 1.0
C      1  0.5608690000000  0.5823720000000  0.4937260000000 1.0
C      1  0.4508240000000  0.4343160000000  0.5871760000000 1.0
C      1  0.5542480000000  0.5473250000000  0.3938250000000 1.0
C      1  0.5581740000000  0.3980180000000  0.5262800000000 1.0
C      1  0.3913160000000  0.5086730000000  0.4419660000000 1.0
C      1  0.4081850000000  0.4182970000000  0.5194280000000 1.0
C      1  0.4812010000000  0.5461250000000  0.4592240000000 1.0
C      1  0.5204350000000  0.4808570000000  0.4509880000000 1.0
C      1  0.5181580000000  0.3938930000000  0.4609210000000 1.0
C      1  0.5648990000000  0.6139060000000  0.4565330000000 1.0
C      1  0.5129340000000  0.3895410000000  0.5480920000000 1.0
C      1  0.5090900000000  0.4127300000000  0.4408270000000 1.0
C      1  0.4591030000000  0.3815950000000  0.5072620000000 1.0
C      1  0.5391400000000  0.5223580000000  0.4493690000000 1.0
C      1  0.6228350000000  0.5258780000000  0.4605550000000 1.0
C      1  0.4657180000000  0.4232270000000  0.4133260000000 1.0
C      1  0.4188100000000  0.4369010000000  0.4199860000000 1.0
C      1  0.6009970000000  0.4872920000000  0.4773390000000 1.0
C      1  0.5961550000000  0.3964930000000  0.5801930000000 1.0
C      1  0.4999640000000  0.6134890000000  0.5655880000000 1.0
C      1  0.4844580000000  0.3910240000000  0.4959490000000 1.0
C      1  0.6035750000000  0.4579600000000  0.4762510000000 1.0
C      1  0.5245120000000  0.6124930000000  0.4838240000000 1.0
C      1  0.5846720000000  0.4162910000000  0.5649890000000 1.0
C      1  0.4383210000000  0.4278770000000  0.4627350000000 1.0
C      1  0.4774960000000  0.4377330000000  0.6337510000000 1.0
C      1  0.4497640000000  0.4014970000000  0.4644970000000 1.0
C      1  0.4953780000000  0.5254790000000  0.3970670000000 1.0
C      1  0.4226700000000  0.4312630000000  0.5858570000000 1.0
C      1  0.5581100000000  0.5267980000000  0.4938580000000 1.0
C      1  0.5407290000000  0.5775920000000  0.5807740000000 1.0
C      1  0.5282040000000  0.5030720000000  0.5782910000000 1.0
C      1  0.4927270000000  0.3829760000000  0.4701400000000 1.0
C      1  0.5498510000000  0.6023420000000  0.4769740000000 1.0
C      1  0.5308260000000  0.4589710000000  0.5406730000000 1.0
C      1  0.5333750000000  0.4062670000000  0.5379300000000 1.0
C      1  0.5541530000000  0.5186450000000  0.3871750000000 1.0
C      1  0.5140600000000  0.5433150000000  0.4977320000000 1.0
C      1  0.4783790000000  0.5140600000000  0.6091000000000 1.0
C      1  0.4749950000000  0.4582470000000  0.5225570000000 1.0
C      1  0.4347410000000  0.5282320000000  0.4506300000000 1.0
C      1  0.5198310000000  0.5983270000000  0.5770360000000 1.0
C      1  0.4992320000000  0.6056010000000  0.4705140000000 1.0
C      1  0.4306810000000  0.5528270000000  0.4365020000000 1.0
END
