TITL C-3201373-1215-8 50221.5441650736 125000 -1153.55291336483 0 0 191 (C1) n - 1
REM
REM in /home/nfs/bkarasulu/CARBON/AIRSS/Generating-Clusters/LCBOP/Higher-Symm/SD-CG/FIRE-CG
REM
REM
REM
REM
REM
REM ./C.cell (b20cbc046b6831c77cfcea5457e17084)
REM AIRSS Version 0.9.1 bugfix July 2018 build 013d7b7c2542+ Fri, 06 Jul 2018 19:26:36 +0100
REM compiler GCC version 9.2.1 20190827 (Red Hat 9.2.1-1)
REM options -cpp -mtune=generic -march=x86-64 -g -O0 -fpre-include=/usr/include/finclude/math-vector-fortran.h
REM seed -1882586635 -1453207906 869422350 52047263 -1868528365 -1768932910 349452428 -665580663 -339538718 -740471024 637455974 -492745953 -1944990426 1178603054 -1943814415 77387319 -237469296 1607024285 1795713200 28411959 1521124828 933426608 747497706 -42651252 -599376043 100020169 31321892 1334161146 1874263676 -2092047446 -1324530830 702341228 -1010665919
REM
CELL 1.54180   50.00000   50.00000   50.00000   90.00000   90.00000   90.00000
LATT -1
SFAC C  
C      1  0.5340970000000  0.4070100000000  0.4360280000000 1.0
C      1  0.4710400000000  0.4072220000000  0.4384770000000 1.0
C      1  0.5596370000000  0.4658370000000  0.5552840000000 1.0
C      1  0.4440810000000  0.4774440000000  0.5436940000000 1.0
C      1  0.4624550000000  0.4789960000000  0.4345420000000 1.0
C      1  0.5425960000000  0.4781120000000  0.4379900000000 1.0
C      1  0.4815500000000  0.3676970000000  0.4645280000000 1.0
C      1  0.5246290000000  0.3655700000000  0.4589280000000 1.0
C      1  0.5673220000000  0.5180780000000  0.5428760000000 1.0
C      1  0.4301970000000  0.5251750000000  0.5365590000000 1.0
C      1  0.4755980000000  0.5301550000000  0.3948940000000 1.0
C      1  0.5262520000000  0.5303660000000  0.3972720000000 1.0
C      1  0.5522590000000  0.6007800000000  0.4644280000000 1.0
C      1  0.4509100000000  0.6037940000000  0.4631510000000 1.0
C      1  0.5990120000000  0.4246970000000  0.4850440000000 1.0
C      1  0.4009180000000  0.4242550000000  0.4781180000000 1.0
C      1  0.4401850000000  0.5590810000000  0.4559000000000 1.0
C      1  0.5483260000000  0.5538860000000  0.4667850000000 1.0
C      1  0.5675150000000  0.6627620000000  0.5883080000000 1.0
C      1  0.4285010000000  0.6442220000000  0.6312550000000 1.0
C      1  0.5813900000000  0.5346580000000  0.4938400000000 1.0
C      1  0.4110870000000  0.5388800000000  0.4857570000000 1.0
C      1  0.3952020000000  0.4381530000000  0.4543130000000 1.0
C      1  0.6060150000000  0.4394890000000  0.4620950000000 1.0
C      1  0.4392070000000  0.5048270000000  0.3981870000000 1.0
C      1  0.5638130000000  0.5069640000000  0.4034330000000 1.0
C      1  0.4578220000000  0.4309940000000  0.4312500000000 1.0
C      1  0.5471330000000  0.4312550000000  0.4302650000000 1.0
C      1  0.5597830000000  0.5945080000000  0.5467600000000 1.0
C      1  0.4322970000000  0.5916340000000  0.5723860000000 1.0
C      1  0.4509570000000  0.4010050000000  0.4869560000000 1.0
C      1  0.5533990000000  0.3959710000000  0.4833310000000 1.0
C      1  0.5753970000000  0.4377440000000  0.4263700000000 1.0
C      1  0.4304190000000  0.4364650000000  0.4236510000000 1.0
C      1  0.5690480000000  0.5190150000000  0.5143450000000 1.0
C      1  0.4269730000000  0.5285790000000  0.5080540000000 1.0
C      1  0.5251960000000  0.5483930000000  0.5880100000000 1.0
C      1  0.4774050000000  0.5454670000000  0.5896170000000 1.0
C      1  0.4537080000000  0.4235470000000  0.5862000000000 1.0
C      1  0.5431460000000  0.4423470000000  0.5701090000000 1.0
C      1  0.4289630000000  0.6269530000000  0.6117290000000 1.0
C      1  0.5658770000000  0.6409000000000  0.5742010000000 1.0
C      1  0.4124150000000  0.5257600000000  0.4355020000000 1.0
C      1  0.5843410000000  0.5285640000000  0.4436770000000 1.0
C      1  0.5843660000000  0.4663610000000  0.4296510000000 1.0
C      1  0.4210510000000  0.4648520000000  0.4257720000000 1.0
C      1  0.4574640000000  0.5475170000000  0.4097270000000 1.0
C      1  0.5421050000000  0.5476060000000  0.4139660000000 1.0
C      1  0.5496130000000  0.4795360000000  0.4931560000000 1.0
C      1  0.4506720000000  0.4941000000000  0.4857470000000 1.0
C      1  0.5290030000000  0.4537390000000  0.4343690000000 1.0
C      1  0.4755920000000  0.4539550000000  0.4346780000000 1.0
C      1  0.5322360000000  0.4562990000000  0.5017360000000 1.0
C      1  0.4654900000000  0.4258900000000  0.4971970000000 1.0
C      1  0.4440970000000  0.4111730000000  0.5642330000000 1.0
C      1  0.5426650000000  0.4167150000000  0.5567710000000 1.0
C      1  0.4019680000000  0.4671410000000  0.4494330000000 1.0
C      1  0.6007800000000  0.4687730000000  0.4560260000000 1.0
C      1  0.4277560000000  0.4694200000000  0.5664610000000 1.0
C      1  0.5796530000000  0.4724920000000  0.5781490000000 1.0
C      1  0.5656560000000  0.5603960000000  0.4904710000000 1.0
C      1  0.4206250000000  0.5654680000000  0.4760140000000 1.0
C      1  0.4739490000000  0.6184830000000  0.4738080000000 1.0
C      1  0.5321820000000  0.6172380000000  0.4767070000000 1.0
C      1  0.4607660000000  0.5108940000000  0.3788500000000 1.0
C      1  0.5432420000000  0.5117250000000  0.3826100000000 1.0
C      1  0.5288050000000  0.5079950000000  0.3579780000000 1.0
C      1  0.4776070000000  0.5076550000000  0.3556870000000 1.0
C      1  0.5921540000000  0.5193650000000  0.4704460000000 1.0
C      1  0.4045910000000  0.5180580000000  0.4635240000000 1.0
C      1  0.5441810000000  0.5652210000000  0.5127930000000 1.0
C      1  0.4568940000000  0.5775080000000  0.5321000000000 1.0
C      1  0.4406390000000  0.4827310000000  0.4159490000000 1.0
C      1  0.5643330000000  0.4840320000000  0.4199010000000 1.0
C      1  0.4065660000000  0.4229640000000  0.4319590000000 1.0
C      1  0.5976170000000  0.4244020000000  0.4384660000000 1.0
C      1  0.4446850000000  0.4101180000000  0.5361970000000 1.0
C      1  0.5416960000000  0.4126270000000  0.5282350000000 1.0
C      1  0.5671760000000  0.5317370000000  0.4203630000000 1.0
C      1  0.4320280000000  0.5298830000000  0.4136030000000 1.0
C      1  0.4592930000000  0.5006420000000  0.5906140000000 1.0
C      1  0.5424250000000  0.5036810000000  0.5972850000000 1.0
C      1  0.5277180000000  0.5680220000000  0.4285700000000 1.0
C      1  0.4708050000000  0.5689760000000  0.4247240000000 1.0
C      1  0.4518250000000  0.5346900000000  0.4544960000000 1.0
C      1  0.5352440000000  0.5296270000000  0.4644750000000 1.0
C      1  0.4012110000000  0.4691100000000  0.5526550000000 1.0
C      1  0.6034030000000  0.4804620000000  0.5613260000000 1.0
C      1  0.4525380000000  0.5193480000000  0.4983890000000 1.0
C      1  0.5447510000000  0.5061240000000  0.5056290000000 1.0
C      1  0.4515620000000  0.4342210000000  0.5209510000000 1.0
C      1  0.5469020000000  0.4380040000000  0.5174590000000 1.0
C      1  0.4467260000000  0.3883490000000  0.5158080000000 1.0
C      1  0.5375530000000  0.3929330000000  0.5080450000000 1.0
C      1  0.5337040000000  0.4509820000000  0.5955230000000 1.0
C      1  0.4661070000000  0.4471950000000  0.5963880000000 1.0
C      1  0.5699480000000  0.5696000000000  0.5566810000000 1.0
C      1  0.4377450000000  0.5726830000000  0.5527420000000 1.0
C      1  0.4739060000000  0.5376960000000  0.5019070000000 1.0
C      1  0.5219590000000  0.5184090000000  0.5164970000000 1.0
C      1  0.4483570000000  0.4724530000000  0.5900210000000 1.0
C      1  0.5565750000000  0.4778970000000  0.6006220000000 1.0
C      1  0.4268520000000  0.5942430000000  0.4794680000000 1.0
C      1  0.5736720000000  0.5891690000000  0.4817960000000 1.0
C      1  0.4252870000000  0.5475440000000  0.5525990000000 1.0
C      1  0.5724380000000  0.5426870000000  0.5561650000000 1.0
C      1  0.4625230000000  0.5263510000000  0.6032380000000 1.0
C      1  0.5396570000000  0.5313300000000  0.6041840000000 1.0
C      1  0.4299460000000  0.6093490000000  0.5919360000000 1.0
C      1  0.5637640000000  0.6184460000000  0.5602990000000 1.0
C      1  0.5236220000000  0.5470450000000  0.5228920000000 1.0
C      1  0.4760590000000  0.5568410000000  0.5248070000000 1.0
C      1  0.3998560000000  0.4885130000000  0.4701700000000 1.0
C      1  0.6026390000000  0.4914210000000  0.4763260000000 1.0
C      1  0.4445580000000  0.4611660000000  0.5213300000000 1.0
C      1  0.5677590000000  0.4540160000000  0.5291870000000 1.0
C      1  0.5795140000000  0.4061170000000  0.4868170000000 1.0
C      1  0.4220570000000  0.4078590000000  0.4811960000000 1.0
C      1  0.6014160000000  0.4832010000000  0.5057110000000 1.0
C      1  0.4059540000000  0.4790120000000  0.4982490000000 1.0
C      1  0.5405600000000  0.3892130000000  0.4576670000000 1.0
C      1  0.4658280000000  0.3907160000000  0.4618470000000 1.0
C      1  0.4763250000000  0.6156740000000  0.5032090000000 1.0
C      1  0.5291150000000  0.6113770000000  0.5059490000000 1.0
C      1  0.4576660000000  0.6033940000000  0.5202780000000 1.0
C      1  0.5450040000000  0.5929890000000  0.5223270000000 1.0
C      1  0.4581190000000  0.4905140000000  0.4594040000000 1.0
C      1  0.5491890000000  0.4830190000000  0.4645550000000 1.0
C      1  0.5754710000000  0.4710300000000  0.5075640000000 1.0
C      1  0.4347320000000  0.4746300000000  0.4986950000000 1.0
C      1  0.3946460000000  0.4744760000000  0.5254560000000 1.0
C      1  0.6109470000000  0.4846600000000  0.5342140000000 1.0
C      1  0.5292810000000  0.5031150000000  0.5708700000000 1.0
C      1  0.4704880000000  0.5071670000000  0.5641650000000 1.0
C      1  0.5498780000000  0.4955850000000  0.5519670000000 1.0
C      1  0.4499130000000  0.5052150000000  0.5445900000000 1.0
C      1  0.4539200000000  0.5817510000000  0.4441120000000 1.0
C      1  0.5428690000000  0.5771960000000  0.4505390000000 1.0
C      1  0.4992660000000  0.4917670000000  0.6291330000000 1.0
C      1  0.5150910000000  0.3759000000000  0.5054450000000 1.0
C      1  0.5012150000000  0.4867050000000  0.4017370000000 1.0
C      1  0.4962910000000  0.3792680000000  0.5655210000000 1.0
C      1  0.5023260000000  0.5535510000000  0.6750420000000 1.0
C      1  0.4992160000000  0.5300290000000  0.4344170000000 1.0
C      1  0.5050010000000  0.6570060000000  0.6612570000000 1.0
C      1  0.5004950000000  0.5181060000000  0.4070110000000 1.0
C      1  0.5030710000000  0.4594100000000  0.5048770000000 1.0
C      1  0.5032290000000  0.5799230000000  0.6775710000000 1.0
C      1  0.4971450000000  0.3544550000000  0.5734550000000 1.0
C      1  0.5022830000000  0.4311410000000  0.4670640000000 1.0
C      1  0.4951350000000  0.4045650000000  0.5575900000000 1.0
C      1  0.5073750000000  0.5210020000000  0.4614440000000 1.0
C      1  0.5024310000000  0.4937650000000  0.4657840000000 1.0
C      1  0.5022060000000  0.4229900000000  0.6282400000000 1.0
C      1  0.5010260000000  0.5127670000000  0.5604440000000 1.0
C      1  0.5032270000000  0.5498750000000  0.3534130000000 1.0
C      1  0.5041750000000  0.5021730000000  0.5319620000000 1.0
C      1  0.5032000000000  0.5939090000000  0.3843350000000 1.0
C      1  0.5047740000000  0.3659920000000  0.4814070000000 1.0
C      1  0.5032090000000  0.5736740000000  0.3663700000000 1.0
C      1  0.4912440000000  0.5389010000000  0.4795280000000 1.0
C      1  0.4943030000000  0.4308860000000  0.5536530000000 1.0
C      1  0.5024580000000  0.4480570000000  0.4443390000000 1.0
C      1  0.4963100000000  0.4588080000000  0.5545410000000 1.0
C      1  0.5011620000000  0.5826740000000  0.4865280000000 1.0
C      1  0.4952410000000  0.5643850000000  0.4673740000000 1.0
C      1  0.5009550000000  0.3606030000000  0.4345440000000 1.0
C      1  0.5019730000000  0.4053360000000  0.4200700000000 1.0
C      1  0.5012540000000  0.5285530000000  0.6662790000000 1.0
C      1  0.5028760000000  0.4056410000000  0.6476730000000 1.0
C      1  0.5044710000000  0.6320780000000  0.6688720000000 1.0
C      1  0.4941630000000  0.4792780000000  0.4857350000000 1.0
C      1  0.5001670000000  0.5070810000000  0.6507610000000 1.0
C      1  0.4983590000000  0.5615510000000  0.4361390000000 1.0
C      1  0.5016740000000  0.4322650000000  0.3996560000000 1.0
C      1  0.5018110000000  0.6036140000000  0.5060330000000 1.0
C      1  0.5011170000000  0.5554300000000  0.5400070000000 1.0
C      1  0.5014650000000  0.6217090000000  0.4598030000000 1.0
C      1  0.5002940000000  0.3687370000000  0.3864700000000 1.0
C      1  0.5027050000000  0.6200990000000  0.4312070000000 1.0
C      1  0.5039180000000  0.6062950000000  0.6750080000000 1.0
C      1  0.5015970000000  0.4597240000000  0.3953050000000 1.0
C      1  0.5010140000000  0.3769690000000  0.4124030000000 1.0
C      1  0.4991900000000  0.4736420000000  0.5306810000000 1.0
C      1  0.4975490000000  0.4730570000000  0.5788920000000 1.0
C      1  0.5011530000000  0.4403450000000  0.6071110000000 1.0
C      1  0.4989130000000  0.4836910000000  0.6037560000000 1.0
C      1  0.4912310000000  0.4349530000000  0.4924700000000 1.0
C      1  0.5014740000000  0.5437590000000  0.5688770000000 1.0
C      1  0.5033630000000  0.5209800000000  0.3515210000000 1.0
C      1  0.5030540000000  0.6101300000000  0.4060310000000 1.0
END
