TITL C-3201378-2706-1394 -1.16031785731769e-06 125000 -522.685438107835 0 0 86 (C1) n - 1
REM
REM in /home/nfs/bkarasulu/CARBON/AIRSS/Generating-Clusters/LCBOP/Higher-Symm/SD-CG/FIRE-CG
REM
REM
REM
REM
REM
REM ./C.cell (b20cbc046b6831c77cfcea5457e17084)
REM AIRSS Version 0.9.1 bugfix July 2018 build 013d7b7c2542+ Fri, 06 Jul 2018 19:26:36 +0100
REM compiler GCC version 9.2.1 20190827 (Red Hat 9.2.1-1)
REM options -cpp -mtune=generic -march=x86-64 -g -O0 -fpre-include=/usr/include/finclude/math-vector-fortran.h
REM seed 856192732 -1543891640 68324271 1872591539 -348423854 1282702273 -1497588290 -2108456429 720738815 1774666280 895346738 -1296935665 -235778083 1984628045 764728221 -1797914501 42956892 1010721408 1485930489 -622420250 1458154727 -863659849 -1466408274 594355214 -1581082979 -779681045 -84926392 -1903225774 -1444895753 -1016651150 377948317 1325317535 1924280373
REM
CELL 1.54180   50.00000   50.00000   50.00000   90.00000   90.00000   90.00000
LATT -1
SFAC C  
C      1  0.5173840000000  0.5473560000000  0.5038580000000 1.0
C      1  0.4324710000000  0.4609530000000  0.4685030000000 1.0
C      1  0.4885070000000  0.5905450000000  0.5104720000000 1.0
C      1  0.5620210000000  0.5565240000000  0.5032540000000 1.0
C      1  0.5029010000000  0.4363240000000  0.5834970000000 1.0
C      1  0.4650430000000  0.5444830000000  0.4469680000000 1.0
C      1  0.4694180000000  0.5695730000000  0.5184860000000 1.0
C      1  0.5082680000000  0.5973450000000  0.5297700000000 1.0
C      1  0.4839630000000  0.5655000000000  0.4454040000000 1.0
C      1  0.5667120000000  0.4509170000000  0.5066570000000 1.0
C      1  0.5030370000000  0.4782220000000  0.5265810000000 1.0
C      1  0.5278470000000  0.5355840000000  0.4111400000000 1.0
C      1  0.4341070000000  0.4729460000000  0.4427020000000 1.0
C      1  0.3961110000000  0.5250660000000  0.4764510000000 1.0
C      1  0.4590590000000  0.5106600000000  0.5628350000000 1.0
C      1  0.5043010000000  0.4626280000000  0.4108150000000 1.0
C      1  0.5770440000000  0.5220470000000  0.5334870000000 1.0
C      1  0.4726040000000  0.5578990000000  0.5461180000000 1.0
C      1  0.5290330000000  0.3914930000000  0.5019000000000 1.0
C      1  0.4995080000000  0.4130990000000  0.5408750000000 1.0
C      1  0.4280470000000  0.4696170000000  0.5209520000000 1.0
C      1  0.5598020000000  0.5132240000000  0.5521270000000 1.0
C      1  0.5194990000000  0.5653420000000  0.4790950000000 1.0
C      1  0.4498670000000  0.4829710000000  0.5670040000000 1.0
C      1  0.5783060000000  0.5320560000000  0.5067390000000 1.0
C      1  0.4976250000000  0.4601540000000  0.4863910000000 1.0
C      1  0.5195000000000  0.4453760000000  0.4978180000000 1.0
C      1  0.3976220000000  0.5334000000000  0.5017300000000 1.0
C      1  0.4022000000000  0.5123740000000  0.4537860000000 1.0
C      1  0.4985380000000  0.5884610000000  0.4838980000000 1.0
C      1  0.4823840000000  0.5170910000000  0.5236480000000 1.0
C      1  0.5410230000000  0.4935860000000  0.4989570000000 1.0
C      1  0.5374740000000  0.4979160000000  0.5615460000000 1.0
C      1  0.5112640000000  0.5571960000000  0.4505260000000 1.0
C      1  0.4719000000000  0.4196340000000  0.5408910000000 1.0
C      1  0.4632490000000  0.5095200000000  0.4801570000000 1.0
C      1  0.5119680000000  0.3964030000000  0.5219690000000 1.0
C      1  0.5078400000000  0.5195830000000  0.4027750000000 1.0
C      1  0.5409040000000  0.4462390000000  0.5177860000000 1.0
C      1  0.5336860000000  0.5511380000000  0.4336790000000 1.0
C      1  0.5399440000000  0.5021260000000  0.4533030000000 1.0
C      1  0.4854990000000  0.5105870000000  0.5518260000000 1.0
C      1  0.4656510000000  0.5258060000000  0.4252940000000 1.0
C      1  0.4832010000000  0.5081000000000  0.4109850000000 1.0
C      1  0.5075110000000  0.5233220000000  0.5125760000000 1.0
C      1  0.4986170000000  0.4765610000000  0.4632500000000 1.0
C      1  0.5608830000000  0.4148910000000  0.4676190000000 1.0
C      1  0.4570040000000  0.5552100000000  0.4966290000000 1.0
C      1  0.4681290000000  0.4992970000000  0.5060180000000 1.0
C      1  0.5275710000000  0.4625660000000  0.4281380000000 1.0
C      1  0.4800750000000  0.4790270000000  0.4123990000000 1.0
C      1  0.5774810000000  0.4587550000000  0.4809350000000 1.0
C      1  0.5663180000000  0.4417530000000  0.4591810000000 1.0
C      1  0.5518780000000  0.4493670000000  0.4352720000000 1.0
C      1  0.5120930000000  0.5397940000000  0.5742570000000 1.0
C      1  0.4068660000000  0.5391920000000  0.5260600000000 1.0
C      1  0.4815400000000  0.5896930000000  0.4606730000000 1.0
C      1  0.4244850000000  0.5420170000000  0.5459140000000 1.0
C      1  0.5378110000000  0.5596400000000  0.5217090000000 1.0
C      1  0.5011940000000  0.5596940000000  0.5571030000000 1.0
C      1  0.5530590000000  0.5060270000000  0.4771670000000 1.0
C      1  0.5215350000000  0.4818770000000  0.4481420000000 1.0
C      1  0.5466540000000  0.3979430000000  0.4827700000000 1.0
C      1  0.5602690000000  0.4625810000000  0.5854320000000 1.0
C      1  0.4627070000000  0.4689330000000  0.5887950000000 1.0
C      1  0.5514680000000  0.5652190000000  0.4766320000000 1.0
C      1  0.5439120000000  0.4694090000000  0.5641700000000 1.0
C      1  0.4507520000000  0.5385190000000  0.5558280000000 1.0
C      1  0.4581420000000  0.5369430000000  0.4743710000000 1.0
C      1  0.4266330000000  0.4635520000000  0.4946940000000 1.0
C      1  0.5155150000000  0.4293210000000  0.5585680000000 1.0
C      1  0.5800490000000  0.5113040000000  0.4854350000000 1.0
C      1  0.4156830000000  0.4942030000000  0.4394870000000 1.0
C      1  0.5208450000000  0.4982490000000  0.5162620000000 1.0
C      1  0.5355580000000  0.4472950000000  0.5467080000000 1.0
C      1  0.5569640000000  0.5587670000000  0.4489040000000 1.0
C      1  0.5118270000000  0.5125120000000  0.5654160000000 1.0
C      1  0.5918310000000  0.4845190000000  0.4813760000000 1.0
C      1  0.4415800000000  0.4644590000000  0.5453400000000 1.0
C      1  0.4771630000000  0.4945110000000  0.4609930000000 1.0
C      1  0.5211140000000  0.5745170000000  0.5411460000000 1.0
C      1  0.4555190000000  0.4695380000000  0.4240210000000 1.0
C      1  0.4974450000000  0.4692380000000  0.5512950000000 1.0
C      1  0.4823460000000  0.4734540000000  0.5069210000000 1.0
C      1  0.4826540000000  0.4512140000000  0.5937540000000 1.0
C      1  0.4529880000000  0.4380520000000  0.5459820000000 1.0
END
