TITL C-3201379-3821-1701 0.363832597268615 125000 -1052.83704418146 0 0 172 (C1) n - 1
REM
REM in /home/nfs/bkarasulu/CARBON/AIRSS/Generating-Clusters/LCBOP/Higher-Symm/SD-CG/FIRE-CG
REM
REM
REM
REM
REM
REM ./C.cell (b20cbc046b6831c77cfcea5457e17084)
REM AIRSS Version 0.9.1 bugfix July 2018 build 013d7b7c2542+ Fri, 06 Jul 2018 19:26:36 +0100
REM compiler GCC version 9.2.1 20190827 (Red Hat 9.2.1-1)
REM options -cpp -mtune=generic -march=x86-64 -g -O0 -fpre-include=/usr/include/finclude/math-vector-fortran.h
REM seed -421404000 -1706320959 1342312065 1380617422 -1263232006 1199659075 -799969439 -1328365028 -1993191158 -1881319639 -1774535796 1314099850 -765873005 1256264476 25295950 1327211617 -1920992378 -522310314 898787813 1100280331 881852120 132431102 1032878005 1331519730 1941136777 -1658754366 -726052498 1953485341 1138994166 -116274876 -792819897 -2017891226 -407433680
REM
CELL 1.54180   50.00000   50.00000   50.00000   90.00000   90.00000   90.00000
LATT -1
SFAC C  
C      1  0.5085110000000  0.4208150000000  0.5694240000000 1.0
C      1  0.3912210000000  0.4562990000000  0.4660020000000 1.0
C      1  0.4715020000000  0.3750090000000  0.4786470000000 1.0
C      1  0.4642800000000  0.4082180000000  0.5801730000000 1.0
C      1  0.4608680000000  0.4598770000000  0.4838710000000 1.0
C      1  0.5637300000000  0.5146760000000  0.5575640000000 1.0
C      1  0.5238720000000  0.4847820000000  0.4826970000000 1.0
C      1  0.4862890000000  0.4242010000000  0.5864130000000 1.0
C      1  0.5071630000000  0.5092600000000  0.5915990000000 1.0
C      1  0.5716980000000  0.5478790000000  0.5009160000000 1.0
C      1  0.5158370000000  0.4859190000000  0.4119390000000 1.0
C      1  0.4936590000000  0.6085070000000  0.4446680000000 1.0
C      1  0.4819600000000  0.5419080000000  0.4228220000000 1.0
C      1  0.4737640000000  0.4714070000000  0.5983620000000 1.0
C      1  0.5291970000000  0.5703120000000  0.5549310000000 1.0
C      1  0.4784180000000  0.4319800000000  0.4301300000000 1.0
C      1  0.4902100000000  0.4823290000000  0.3697070000000 1.0
C      1  0.5728960000000  0.4568780000000  0.4633760000000 1.0
C      1  0.6081210000000  0.4542040000000  0.5725020000000 1.0
C      1  0.4566660000000  0.5576600000000  0.5795710000000 1.0
C      1  0.5338670000000  0.4717290000000  0.5328430000000 1.0
C      1  0.5142950000000  0.3619890000000  0.2769630000000 1.0
C      1  0.4451840000000  0.4963490000000  0.3996300000000 1.0
C      1  0.5342140000000  0.4275270000000  0.6161250000000 1.0
C      1  0.4601400000000  0.5011370000000  0.4513370000000 1.0
C      1  0.5487620000000  0.4968120000000  0.5728020000000 1.0
C      1  0.5236370000000  0.4384000000000  0.4906750000000 1.0
C      1  0.5852310000000  0.4027310000000  0.4814760000000 1.0
C      1  0.4231740000000  0.5982740000000  0.5254840000000 1.0
C      1  0.5012620000000  0.5163020000000  0.4574930000000 1.0
C      1  0.5543680000000  0.5672910000000  0.5699870000000 1.0
C      1  0.4260800000000  0.5204140000000  0.5880560000000 1.0
C      1  0.5455660000000  0.4138790000000  0.5952130000000 1.0
C      1  0.4918240000000  0.4801110000000  0.3981320000000 1.0
C      1  0.4740660000000  0.5186960000000  0.6211730000000 1.0
C      1  0.4930070000000  0.4872240000000  0.5801570000000 1.0
C      1  0.5849870000000  0.4704930000000  0.5067390000000 1.0
C      1  0.5310700000000  0.4924830000000  0.4351760000000 1.0
C      1  0.3662180000000  0.4937070000000  0.5298050000000 1.0
C      1  0.4963950000000  0.5654310000000  0.4165720000000 1.0
C      1  0.4946440000000  0.4425560000000  0.4502220000000 1.0
C      1  0.4333170000000  0.5152210000000  0.4185000000000 1.0
C      1  0.4555800000000  0.4095400000000  0.5531960000000 1.0
C      1  0.4571140000000  0.4500440000000  0.4213230000000 1.0
C      1  0.4986220000000  0.4392140000000  0.5068300000000 1.0
C      1  0.5788040000000  0.5786930000000  0.5604240000000 1.0
C      1  0.5546870000000  0.5264960000000  0.6349560000000 1.0
C      1  0.5166320000000  0.3997820000000  0.4391550000000 1.0
C      1  0.5265570000000  0.4013940000000  0.5215600000000 1.0
C      1  0.4398550000000  0.4326250000000  0.5490930000000 1.0
C      1  0.5839560000000  0.6202690000000  0.4977030000000 1.0
C      1  0.4587830000000  0.4578830000000  0.3426420000000 1.0
C      1  0.4294830000000  0.4938140000000  0.5902880000000 1.0
C      1  0.4618640000000  0.5248150000000  0.5437620000000 1.0
C      1  0.4570270000000  0.5547670000000  0.5072780000000 1.0
C      1  0.4080290000000  0.4934910000000  0.4936170000000 1.0
C      1  0.4905120000000  0.5305980000000  0.6007080000000 1.0
C      1  0.4647520000000  0.4044780000000  0.3489610000000 1.0
C      1  0.3900300000000  0.5362880000000  0.5500440000000 1.0
C      1  0.4959500000000  0.3689350000000  0.2941340000000 1.0
C      1  0.4711950000000  0.4822660000000  0.4697560000000 1.0
C      1  0.4967440000000  0.4960940000000  0.4792630000000 1.0
C      1  0.5378000000000  0.4646680000000  0.5016990000000 1.0
C      1  0.5514360000000  0.5216550000000  0.5327640000000 1.0
C      1  0.5278190000000  0.5554590000000  0.4801760000000 1.0
C      1  0.4757300000000  0.4523520000000  0.5063700000000 1.0
C      1  0.4646780000000  0.4813620000000  0.3567110000000 1.0
C      1  0.4118840000000  0.5544640000000  0.5558950000000 1.0
C      1  0.4079480000000  0.5434980000000  0.4970570000000 1.0
C      1  0.5105580000000  0.6301860000000  0.5547080000000 1.0
C      1  0.5361060000000  0.4141280000000  0.5680720000000 1.0
C      1  0.4773420000000  0.3760320000000  0.3116070000000 1.0
C      1  0.5900430000000  0.6036670000000  0.5193420000000 1.0
C      1  0.5119910000000  0.4426970000000  0.6209290000000 1.0
C      1  0.5899260000000  0.4979590000000  0.5146820000000 1.0
C      1  0.5613630000000  0.5845540000000  0.4372140000000 1.0
C      1  0.5301350000000  0.4730680000000  0.4561230000000 1.0
C      1  0.5470320000000  0.6233950000000  0.5800140000000 1.0
C      1  0.6055550000000  0.5801240000000  0.5137330000000 1.0
C      1  0.5659580000000  0.4127330000000  0.4977210000000 1.0
C      1  0.4292070000000  0.5551460000000  0.5115310000000 1.0
C      1  0.4649550000000  0.4757020000000  0.4093260000000 1.0
C      1  0.5057030000000  0.5970830000000  0.5907710000000 1.0
C      1  0.5854880000000  0.4471550000000  0.5854110000000 1.0
C      1  0.4881400000000  0.4454700000000  0.6052560000000 1.0
C      1  0.5274470000000  0.5192600000000  0.4468670000000 1.0
C      1  0.6095660000000  0.5564370000000  0.4708370000000 1.0
C      1  0.4425190000000  0.4399850000000  0.4767900000000 1.0
C      1  0.4457370000000  0.4707700000000  0.5840010000000 1.0
C      1  0.5537710000000  0.5531320000000  0.5943230000000 1.0
C      1  0.3671610000000  0.4741480000000  0.5104870000000 1.0
C      1  0.5226790000000  0.5197430000000  0.5294410000000 1.0
C      1  0.5468430000000  0.4708760000000  0.5600950000000 1.0
C      1  0.5611320000000  0.4520060000000  0.5749260000000 1.0
C      1  0.6052440000000  0.4651960000000  0.5468320000000 1.0
C      1  0.5184820000000  0.3943140000000  0.4682550000000 1.0
C      1  0.5457980000000  0.5613360000000  0.5023080000000 1.0
C      1  0.4761330000000  0.3973940000000  0.3736230000000 1.0
C      1  0.5402960000000  0.3977550000000  0.4248440000000 1.0
C      1  0.4323450000000  0.6067160000000  0.5010970000000 1.0
C      1  0.4356260000000  0.5440990000000  0.4214860000000 1.0
C      1  0.4334200000000  0.3723790000000  0.3308130000000 1.0
C      1  0.5195960000000  0.4468630000000  0.4609620000000 1.0
C      1  0.6031830000000  0.5632730000000  0.5589090000000 1.0
C      1  0.4993380000000  0.5339040000000  0.5146540000000 1.0
C      1  0.5179530000000  0.6205760000000  0.5810640000000 1.0
C      1  0.4581780000000  0.3840120000000  0.3303250000000 1.0
C      1  0.5333540000000  0.5767500000000  0.5249960000000 1.0
C      1  0.5002800000000  0.5526910000000  0.4890520000000 1.0
C      1  0.5040600000000  0.6145150000000  0.4684680000000 1.0
C      1  0.5149360000000  0.6108830000000  0.4924810000000 1.0
C      1  0.5710110000000  0.6057360000000  0.4501000000000 1.0
C      1  0.3979330000000  0.5189710000000  0.5062650000000 1.0
C      1  0.4158300000000  0.5003650000000  0.4657360000000 1.0
C      1  0.4740200000000  0.5440870000000  0.5275700000000 1.0
C      1  0.5480480000000  0.5296120000000  0.6086980000000 1.0
C      1  0.6050390000000  0.5368930000000  0.5683790000000 1.0
C      1  0.4649160000000  0.4972050000000  0.5430270000000 1.0
C      1  0.5374590000000  0.5450370000000  0.4544970000000 1.0
C      1  0.5891120000000  0.4496990000000  0.5271640000000 1.0
C      1  0.6220440000000  0.5507220000000  0.4486850000000 1.0
C      1  0.4715800000000  0.5607920000000  0.4824630000000 1.0
C      1  0.5957180000000  0.5616090000000  0.4944180000000 1.0
C      1  0.5264980000000  0.6039990000000  0.5170020000000 1.0
C      1  0.4383170000000  0.4135870000000  0.4768220000000 1.0
C      1  0.4848600000000  0.5534490000000  0.5839060000000 1.0
C      1  0.4296300000000  0.4471590000000  0.4296570000000 1.0
C      1  0.4597310000000  0.4312540000000  0.3422290000000 1.0
C      1  0.5653470000000  0.4640620000000  0.4886630000000 1.0
C      1  0.4446330000000  0.4961200000000  0.3710320000000 1.0
C      1  0.4949290000000  0.5968040000000  0.6160020000000 1.0
C      1  0.5716770000000  0.5212840000000  0.5119070000000 1.0
C      1  0.4073950000000  0.5661960000000  0.4525430000000 1.0
C      1  0.4344120000000  0.5628300000000  0.4438270000000 1.0
C      1  0.5467130000000  0.4125810000000  0.5411420000000 1.0
C      1  0.4306970000000  0.5460080000000  0.5762750000000 1.0
C      1  0.4282270000000  0.4832190000000  0.5137230000000 1.0
C      1  0.5777750000000  0.6196760000000  0.4717550000000 1.0
C      1  0.4488770000000  0.3891310000000  0.4778370000000 1.0
C      1  0.4205800000000  0.5711470000000  0.5340530000000 1.0
C      1  0.3966500000000  0.5567380000000  0.4751840000000 1.0
C      1  0.5350900000000  0.4098820000000  0.4922200000000 1.0
C      1  0.4786460000000  0.5212850000000  0.4417210000000 1.0
C      1  0.4879750000000  0.5908240000000  0.4254000000000 1.0
C      1  0.5923310000000  0.5136240000000  0.5594840000000 1.0
C      1  0.4739310000000  0.3977720000000  0.5348560000000 1.0
C      1  0.5319220000000  0.6239160000000  0.5362600000000 1.0
C      1  0.4332280000000  0.5038300000000  0.4448380000000 1.0
C      1  0.5567000000000  0.6214250000000  0.5524780000000 1.0
C      1  0.6190640000000  0.5700270000000  0.5363980000000 1.0
C      1  0.4428300000000  0.5985030000000  0.4773350000000 1.0
C      1  0.5244350000000  0.5634620000000  0.4127590000000 1.0
C      1  0.3865960000000  0.4720910000000  0.4895570000000 1.0
C      1  0.5705620000000  0.4249060000000  0.5253690000000 1.0
C      1  0.3827520000000  0.5169500000000  0.5304380000000 1.0
C      1  0.4855190000000  0.3958260000000  0.3984920000000 1.0
C      1  0.4981260000000  0.3767610000000  0.4771120000000 1.0
C      1  0.4533120000000  0.5745810000000  0.4640350000000 1.0
C      1  0.4902520000000  0.4881650000000  0.5520260000000 1.0
C      1  0.5436740000000  0.5633100000000  0.4335220000000 1.0
C      1  0.5135820000000  0.4924970000000  0.5365760000000 1.0
C      1  0.5053380000000  0.5728160000000  0.5742030000000 1.0
C      1  0.4873140000000  0.5093310000000  0.5025620000000 1.0
C      1  0.4070600000000  0.4499680000000  0.4446890000000 1.0
C      1  0.4436940000000  0.4796360000000  0.5369300000000 1.0
C      1  0.6026880000000  0.4941060000000  0.5414170000000 1.0
C      1  0.4997550000000  0.3937960000000  0.5276960000000 1.0
C      1  0.4407330000000  0.4596440000000  0.5572810000000 1.0
C      1  0.4698170000000  0.4915140000000  0.6219460000000 1.0
C      1  0.4921700000000  0.4071200000000  0.4233240000000 1.0
C      1  0.5771430000000  0.6034350000000  0.5450170000000 1.0
C      1  0.5348800000000  0.5090950000000  0.5938780000000 1.0
END
