TITL C-3201372-1405-2003 -7.91830665727464e-07 125000 -996.351690961818 0 0 156 (C1) n - 1
REM
REM in /home/nfs/bkarasulu/CARBON/AIRSS/Generating-Clusters/LCBOP/Higher-Symm/SD-CG/FIRE-CG
REM
REM
REM
REM
REM
REM ./C.cell (b20cbc046b6831c77cfcea5457e17084)
REM AIRSS Version 0.9.1 bugfix July 2018 build 013d7b7c2542+ Fri, 06 Jul 2018 19:26:36 +0100
REM compiler GCC version 9.2.1 20190827 (Red Hat 9.2.1-1)
REM options -cpp -mtune=generic -march=x86-64 -g -O0 -fpre-include=/usr/include/finclude/math-vector-fortran.h
REM seed -1950636976 -597342388 420954724 1614846092 1863058161 872996058 1221763416 1922109646 362271996 1474762375 32495084 -1532732789 -594907947 -1271696405 -878306167 297493990 193442160 466067096 1037802736 -167641873 693143265 -1869919865 -982675189 62327958 1505211963 136627643 -1340729486 774409426 -1056519669 79458096 -210464152 501694933 -2139312967
REM
CELL 1.54180   50.00000   50.00000   50.00000   90.00000   90.00000   90.00000
LATT -1
SFAC C  
C      1  0.5484470000000  0.5344930000000  0.6074560000000 1.0
C      1  0.4168710000000  0.5273350000000  0.5831000000000 1.0
C      1  0.3884290000000  0.5286600000000  0.4450670000000 1.0
C      1  0.5203940000000  0.5307170000000  0.3757630000000 1.0
C      1  0.6221520000000  0.5301370000000  0.4804720000000 1.0
C      1  0.5524980000000  0.4724800000000  0.6113080000000 1.0
C      1  0.4098880000000  0.4630480000000  0.5890440000000 1.0
C      1  0.3910400000000  0.4744780000000  0.4520550000000 1.0
C      1  0.5157670000000  0.4714600000000  0.3803730000000 1.0
C      1  0.6227950000000  0.4696990000000  0.4827300000000 1.0
C      1  0.4506870000000  0.4807430000000  0.4863360000000 1.0
C      1  0.5052730000000  0.4742960000000  0.4417370000000 1.0
C      1  0.5617180000000  0.4726240000000  0.4801490000000 1.0
C      1  0.5292480000000  0.4742810000000  0.5532650000000 1.0
C      1  0.4619200000000  0.4576210000000  0.5595450000000 1.0
C      1  0.4375040000000  0.5288500000000  0.4849420000000 1.0
C      1  0.5018420000000  0.5255000000000  0.4345730000000 1.0
C      1  0.5695760000000  0.5579860000000  0.4788640000000 1.0
C      1  0.5352900000000  0.5020830000000  0.5539710000000 1.0
C      1  0.4594270000000  0.5175440000000  0.5272350000000 1.0
C      1  0.4414020000000  0.4764580000000  0.4591340000000 1.0
C      1  0.5262890000000  0.4629540000000  0.4272510000000 1.0
C      1  0.5778840000000  0.4670910000000  0.5022810000000 1.0
C      1  0.5193820000000  0.4618800000000  0.5769660000000 1.0
C      1  0.4362070000000  0.4584490000000  0.5483930000000 1.0
C      1  0.4376970000000  0.5311600000000  0.4550540000000 1.0
C      1  0.5254360000000  0.5357450000000  0.4233550000000 1.0
C      1  0.5831780000000  0.5482010000000  0.5006970000000 1.0
C      1  0.5209380000000  0.5222100000000  0.5673670000000 1.0
C      1  0.4363540000000  0.5332260000000  0.5376420000000 1.0
C      1  0.5837770000000  0.5162980000000  0.4530330000000 1.0
C      1  0.5763190000000  0.5280970000000  0.5687340000000 1.0
C      1  0.4584020000000  0.5032010000000  0.5822220000000 1.0
C      1  0.3839810000000  0.5311330000000  0.4948220000000 1.0
C      1  0.4712700000000  0.5327840000000  0.3871860000000 1.0
C      1  0.5920030000000  0.4732400000000  0.4453950000000 1.0
C      1  0.5766410000000  0.4831770000000  0.5697060000000 1.0
C      1  0.4552040000000  0.4677040000000  0.6087040000000 1.0
C      1  0.4020380000000  0.4904260000000  0.4946450000000 1.0
C      1  0.4808540000000  0.4879920000000  0.4076350000000 1.0
C      1  0.4282790000000  0.5817440000000  0.5370530000000 1.0
C      1  0.4470320000000  0.5752640000000  0.4342880000000 1.0
C      1  0.5550890000000  0.5745580000000  0.4194290000000 1.0
C      1  0.5936810000000  0.5848340000000  0.5273500000000 1.0
C      1  0.4954080000000  0.5639230000000  0.5704120000000 1.0
C      1  0.4162720000000  0.4244260000000  0.5234200000000 1.0
C      1  0.4460480000000  0.4315680000000  0.4372870000000 1.0
C      1  0.5460690000000  0.4198130000000  0.4270740000000 1.0
C      1  0.5812500000000  0.4260990000000  0.5275270000000 1.0
C      1  0.5119980000000  0.4156710000000  0.5871050000000 1.0
C      1  0.5893210000000  0.4713390000000  0.5475890000000 1.0
C      1  0.4784450000000  0.4719470000000  0.6250010000000 1.0
C      1  0.4056780000000  0.4731400000000  0.5160670000000 1.0
C      1  0.4573090000000  0.4739820000000  0.4135940000000 1.0
C      1  0.5735970000000  0.4630530000000  0.4261970000000 1.0
C      1  0.5903050000000  0.5385900000000  0.5465520000000 1.0
C      1  0.4795690000000  0.5204850000000  0.5866300000000 1.0
C      1  0.3762490000000  0.5269360000000  0.5225960000000 1.0
C      1  0.4521410000000  0.5331980000000  0.4088240000000 1.0
C      1  0.5705130000000  0.5280930000000  0.4310930000000 1.0
C      1  0.6171450000000  0.4829510000000  0.4576670000000 1.0
C      1  0.5713090000000  0.4901090000000  0.5980280000000 1.0
C      1  0.4271180000000  0.4787370000000  0.6063290000000 1.0
C      1  0.3809400000000  0.4895600000000  0.4738850000000 1.0
C      1  0.4945460000000  0.4906840000000  0.3829330000000 1.0
C      1  0.6129520000000  0.5130980000000  0.4594570000000 1.0
C      1  0.5716090000000  0.5209900000000  0.5973410000000 1.0
C      1  0.4320350000000  0.5064480000000  0.5946060000000 1.0
C      1  0.3746010000000  0.5187820000000  0.4690720000000 1.0
C      1  0.4943290000000  0.5187880000000  0.3760870000000 1.0
C      1  0.5301910000000  0.5804580000000  0.6033920000000 1.0
C      1  0.4131950000000  0.5775500000000  0.5847880000000 1.0
C      1  0.3972980000000  0.5770550000000  0.4300780000000 1.0
C      1  0.5404630000000  0.5762950000000  0.3712540000000 1.0
C      1  0.6323750000000  0.5772880000000  0.4940330000000 1.0
C      1  0.5505610000000  0.4228010000000  0.6191270000000 1.0
C      1  0.3999990000000  0.4173050000000  0.5717650000000 1.0
C      1  0.3966070000000  0.4267510000000  0.4359210000000 1.0
C      1  0.5222710000000  0.4219430000000  0.3816280000000 1.0
C      1  0.6228580000000  0.4219900000000  0.4985460000000 1.0
C      1  0.4364960000000  0.5587760000000  0.5235770000000 1.0
C      1  0.4569000000000  0.5471790000000  0.4364680000000 1.0
C      1  0.5489790000000  0.5503850000000  0.4359550000000 1.0
C      1  0.5764540000000  0.5601070000000  0.5281740000000 1.0
C      1  0.4934310000000  0.5346610000000  0.5632030000000 1.0
C      1  0.4281740000000  0.4517770000000  0.5196540000000 1.0
C      1  0.4581140000000  0.4584500000000  0.4406960000000 1.0
C      1  0.5489840000000  0.4467420000000  0.4396500000000 1.0
C      1  0.5703980000000  0.4540060000000  0.5288530000000 1.0
C      1  0.5040920000000  0.4381980000000  0.5724000000000 1.0
C      1  0.5220200000000  0.4444880000000  0.4861120000000 1.0
C      1  0.5213420000000  0.4443750000000  0.5156790000000 1.0
C      1  0.4933950000000  0.4406290000000  0.5247720000000 1.0
C      1  0.4765340000000  0.4433600000000  0.5014610000000 1.0
C      1  0.4936190000000  0.4448710000000  0.4778240000000 1.0
C      1  0.5217380000000  0.5581080000000  0.4797980000000 1.0
C      1  0.5227290000000  0.5562520000000  0.5097350000000 1.0
C      1  0.4950340000000  0.5494950000000  0.5165330000000 1.0
C      1  0.4768900000000  0.5573550000000  0.4945480000000 1.0
C      1  0.4938130000000  0.5567960000000  0.4709950000000 1.0
C      1  0.5244860000000  0.4725120000000  0.6031980000000 1.0
C      1  0.4130180000000  0.4704820000000  0.5615770000000 1.0
C      1  0.4169810000000  0.4864880000000  0.4478070000000 1.0
C      1  0.5347270000000  0.4730230000000  0.4015010000000 1.0
C      1  0.6051960000000  0.4771710000000  0.5039980000000 1.0
C      1  0.5245080000000  0.5238300000000  0.5967980000000 1.0
C      1  0.4144640000000  0.5261540000000  0.5544450000000 1.0
C      1  0.4161290000000  0.5157660000000  0.4391680000000 1.0
C      1  0.5363100000000  0.5244180000000  0.3986520000000 1.0
C      1  0.6046700000000  0.5297420000000  0.5029250000000 1.0
C      1  0.5470120000000  0.5619670000000  0.6136080000000 1.0
C      1  0.4119170000000  0.5525140000000  0.5945430000000 1.0
C      1  0.3838300000000  0.5543000000000  0.4344240000000 1.0
C      1  0.5275080000000  0.5544050000000  0.3623900000000 1.0
C      1  0.6366290000000  0.5545690000000  0.4796870000000 1.0
C      1  0.5604340000000  0.4476820000000  0.6224470000000 1.0
C      1  0.4009880000000  0.4362380000000  0.5912110000000 1.0
C      1  0.3839940000000  0.4495040000000  0.4423090000000 1.0
C      1  0.5136880000000  0.4450390000000  0.3703290000000 1.0
C      1  0.6325470000000  0.4432950000000  0.4851030000000 1.0
C      1  0.4516440000000  0.4567350000000  0.5018730000000 1.0
C      1  0.4859250000000  0.4570950000000  0.4535150000000 1.0
C      1  0.5445270000000  0.4519130000000  0.4698130000000 1.0
C      1  0.5403430000000  0.4568250000000  0.5330340000000 1.0
C      1  0.4845440000000  0.4419280000000  0.5517860000000 1.0
C      1  0.4485980000000  0.5543230000000  0.4978330000000 1.0
C      1  0.4848010000000  0.5443760000000  0.4471190000000 1.0
C      1  0.5455780000000  0.5567660000000  0.4646620000000 1.0
C      1  0.5457880000000  0.5612080000000  0.5261150000000 1.0
C      1  0.4842550000000  0.5306500000000  0.5351250000000 1.0
C      1  0.5097530000000  0.5804960000000  0.5859220000000 1.0
C      1  0.4195810000000  0.5890090000000  0.5613640000000 1.0
C      1  0.4225900000000  0.5859130000000  0.4308630000000 1.0
C      1  0.5514430000000  0.5839260000000  0.3945500000000 1.0
C      1  0.6161480000000  0.5887750000000  0.5123890000000 1.0
C      1  0.5311050000000  0.4104080000000  0.6053140000000 1.0
C      1  0.4056560000000  0.4130450000000  0.5456980000000 1.0
C      1  0.4223540000000  0.4194520000000  0.4345570000000 1.0
C      1  0.5348410000000  0.4124450000000  0.4035160000000 1.0
C      1  0.6025930000000  0.4153860000000  0.5149500000000 1.0
C      1  0.4997300000000  0.5129890000000  0.6069220000000 1.0
C      1  0.3922970000000  0.5124950000000  0.5423910000000 1.0
C      1  0.4295920000000  0.5143890000000  0.4112880000000 1.0
C      1  0.5616960000000  0.5117020000000  0.4077080000000 1.0
C      1  0.6052410000000  0.5185460000000  0.5296330000000 1.0
C      1  0.5021490000000  0.4858180000000  0.6161120000000 1.0
C      1  0.3971420000000  0.4840810000000  0.5418870000000 1.0
C      1  0.4343690000000  0.4872620000000  0.4031420000000 1.0
C      1  0.5616160000000  0.4828680000000  0.4065630000000 1.0
C      1  0.6060840000000  0.4895750000000  0.5304360000000 1.0
C      1  0.5626350000000  0.5055930000000  0.5565700000000 1.0
C      1  0.4645610000000  0.4749970000000  0.5813940000000 1.0
C      1  0.4106310000000  0.5190500000000  0.4947760000000 1.0
C      1  0.5730090000000  0.4906200000000  0.4612220000000 1.0
C      1  0.4951160000000  0.4983280000000  0.4305660000000 1.0
C      1  0.4548790000000  0.5066670000000  0.4991540000000 1.0
END
