TITL C-3201379-3821-643 240973.705735544 125000 -848.113469309781 0 0 140 (Cs) n - 1
REM
REM in /home/nfs/bkarasulu/CARBON/AIRSS/Generating-Clusters/LCBOP/Higher-Symm/SD-CG/FIRE-CG
REM
REM
REM
REM
REM
REM ./C.cell (b20cbc046b6831c77cfcea5457e17084)
REM AIRSS Version 0.9.1 bugfix July 2018 build 013d7b7c2542+ Fri, 06 Jul 2018 19:26:36 +0100
REM compiler GCC version 9.2.1 20190827 (Red Hat 9.2.1-1)
REM options -cpp -mtune=generic -march=x86-64 -g -O0 -fpre-include=/usr/include/finclude/math-vector-fortran.h
REM seed -531412420 -1415712074 -780493788 1000413707 -1906003255 -24726241 -492883199 -1096706237 1573048376 519082203 -1432391141 436751999 -1876214113 1823286651 461355106 1794267584 1223669688 -568502607 -121653747 -1356172101 1302908239 348061509 1122071769 -1749084808 -1604659661 2138631521 865341560 503801608 -1648926656 -988430771 -811692622 1217051488 -1745826241
REM
CELL 1.54180   50.00000   50.00000   50.00000   90.00000   90.00000   90.00000
LATT -1
SFAC C  
C      1  0.3942530000000  0.5226290000000  0.5151710000000 1.0
C      1  0.6075980000000  0.5219240000000  0.4850480000000 1.0
C      1  0.6075980000000  0.5219260000000  0.5149550000000 1.0
C      1  0.3942540000000  0.5226280000000  0.4848250000000 1.0
C      1  0.4458440000000  0.4745560000000  0.5752210000000 1.0
C      1  0.5546660000000  0.4733550000000  0.4237820000000 1.0
C      1  0.5546680000000  0.4733490000000  0.5762110000000 1.0
C      1  0.4458280000000  0.4745740000000  0.4247820000000 1.0
C      1  0.4438540000000  0.5787350000000  0.4670970000000 1.0
C      1  0.5530350000000  0.5742130000000  0.5316650000000 1.0
C      1  0.5530360000000  0.5742110000000  0.4683320000000 1.0
C      1  0.4438520000000  0.5787340000000  0.5329040000000 1.0
C      1  0.4458440000000  0.5444890000000  0.5797540000000 1.0
C      1  0.5556590000000  0.5418970000000  0.4169640000000 1.0
C      1  0.5556550000000  0.5419010000000  0.5830360000000 1.0
C      1  0.4458480000000  0.5444910000000  0.4202480000000 1.0
C      1  0.4103210000000  0.4500570000000  0.5367350000000 1.0
C      1  0.5905880000000  0.4512750000000  0.4627900000000 1.0
C      1  0.5905810000000  0.4512750000000  0.5372180000000 1.0
C      1  0.4103270000000  0.4500420000000  0.4632730000000 1.0
C      1  0.5234080000000  0.4111130000000  0.5396060000000 1.0
C      1  0.4769410000000  0.4103520000000  0.4602720000000 1.0
C      1  0.4769670000000  0.4103230000000  0.5397050000000 1.0
C      1  0.5234010000000  0.4111280000000  0.4603830000000 1.0
C      1  0.4431770000000  0.4945010000000  0.4752950000000 1.0
C      1  0.5566170000000  0.4984900000000  0.5262010000000 1.0
C      1  0.5566180000000  0.4984880000000  0.4738010000000 1.0
C      1  0.4431760000000  0.4945010000000  0.5247040000000 1.0
C      1  0.5136460000000  0.5789630000000  0.4321910000000 1.0
C      1  0.4852940000000  0.5798190000000  0.5675250000000 1.0
C      1  0.4852990000000  0.5798200000000  0.4324760000000 1.0
C      1  0.5136420000000  0.5789660000000  0.5678070000000 1.0
C      1  0.3969620000000  0.4963000000000  0.5282340000000 1.0
C      1  0.6029810000000  0.4950160000000  0.4724330000000 1.0
C      1  0.6029800000000  0.4950170000000  0.5275710000000 1.0
C      1  0.3969650000000  0.4962990000000  0.4717610000000 1.0
C      1  0.4877950000000  0.4617920000000  0.4129210000000 1.0
C      1  0.5125060000000  0.4618110000000  0.5872230000000 1.0
C      1  0.5124620000000  0.4618800000000  0.4127080000000 1.0
C      1  0.4877990000000  0.4620280000000  0.5872920000000 1.0
C      1  0.5303290000000  0.5333190000000  0.5964630000000 1.0
C      1  0.4698820000000  0.5343420000000  0.4046940000000 1.0
C      1  0.4698790000000  0.5343380000000  0.5953090000000 1.0
C      1  0.5303340000000  0.5333140000000  0.4035410000000 1.0
C      1  0.6049070000000  0.4426990000000  0.5136160000000 1.0
C      1  0.3957150000000  0.4419460000000  0.4863840000000 1.0
C      1  0.3957160000000  0.4419460000000  0.5136060000000 1.0
C      1  0.6049080000000  0.4426970000000  0.4863940000000 1.0
C      1  0.4162010000000  0.5401590000000  0.4764180000000 1.0
C      1  0.5859120000000  0.5387140000000  0.5260380000000 1.0
C      1  0.5859120000000  0.5387110000000  0.4739630000000 1.0
C      1  0.4162000000000  0.5401580000000  0.5235790000000 1.0
C      1  0.4852280000000  0.5087160000000  0.4682430000000 1.0
C      1  0.5140690000000  0.5095660000000  0.5313000000000 1.0
C      1  0.5140700000000  0.5095650000000  0.4687020000000 1.0
C      1  0.4852270000000  0.5087160000000  0.5317570000000 1.0
C      1  0.4873020000000  0.5332270000000  0.4274650000000 1.0
C      1  0.5142630000000  0.5332260000000  0.5725530000000 1.0
C      1  0.5142670000000  0.5332250000000  0.4274500000000 1.0
C      1  0.4872990000000  0.5332270000000  0.5725340000000 1.0
C      1  0.4703940000000  0.4854750000000  0.5233410000000 1.0
C      1  0.5302180000000  0.4875400000000  0.4768040000000 1.0
C      1  0.5302180000000  0.4875420000000  0.5232000000000 1.0
C      1  0.4703950000000  0.4854730000000  0.4766570000000 1.0
C      1  0.4512570000000  0.4491870000000  0.5615840000000 1.0
C      1  0.5492000000000  0.4486670000000  0.4381990000000 1.0
C      1  0.5492140000000  0.4486910000000  0.5618040000000 1.0
C      1  0.4511220000000  0.4492390000000  0.4384290000000 1.0
C      1  0.4788410000000  0.5075140000000  0.4388190000000 1.0
C      1  0.5229500000000  0.5103490000000  0.5595800000000 1.0
C      1  0.5229520000000  0.5103430000000  0.4404210000000 1.0
C      1  0.4788360000000  0.5075150000000  0.5611830000000 1.0
C      1  0.5294890000000  0.5786770000000  0.5146690000000 1.0
C      1  0.4667690000000  0.5808940000000  0.4856180000000 1.0
C      1  0.4667680000000  0.5808930000000  0.5143830000000 1.0
C      1  0.5294900000000  0.5786760000000  0.4853280000000 1.0
C      1  0.5258160000000  0.4018580000000  0.4862300000000 1.0
C      1  0.4748310000000  0.4007780000000  0.5138180000000 1.0
C      1  0.4748300000000  0.4007820000000  0.4861720000000 1.0
C      1  0.5258190000000  0.4018580000000  0.5137600000000 1.0
C      1  0.4410820000000  0.5246250000000  0.4677450000000 1.0
C      1  0.5667610000000  0.5223710000000  0.5401670000000 1.0
C      1  0.5667620000000  0.5223680000000  0.4598330000000 1.0
C      1  0.4410810000000  0.5246250000000  0.5322540000000 1.0
C      1  0.5443380000000  0.5681900000000  0.5614000000000 1.0
C      1  0.4545970000000  0.5703860000000  0.4381050000000 1.0
C      1  0.4545950000000  0.5703850000000  0.5618970000000 1.0
C      1  0.5443400000000  0.5681870000000  0.4385990000000 1.0
C      1  0.4691470000000  0.5323210000000  0.5188990000000 1.0
C      1  0.5203890000000  0.5326400000000  0.4858190000000 1.0
C      1  0.5203880000000  0.5326410000000  0.5141820000000 1.0
C      1  0.4691480000000  0.5323210000000  0.4811010000000 1.0
C      1  0.4830250000000  0.4602450000000  0.4783540000000 1.0
C      1  0.5181950000000  0.4616350000000  0.5216930000000 1.0
C      1  0.5181950000000  0.4616330000000  0.4783050000000 1.0
C      1  0.4830230000000  0.4602460000000  0.5216490000000 1.0
C      1  0.4822870000000  0.4334670000000  0.5621500000000 1.0
C      1  0.5182080000000  0.4334970000000  0.4380020000000 1.0
C      1  0.5181140000000  0.4335860000000  0.5620750000000 1.0
C      1  0.4823950000000  0.4336460000000  0.4376200000000 1.0
C      1  0.4196140000000  0.4861350000000  0.5133000000000 1.0
C      1  0.5787710000000  0.4876330000000  0.4866470000000 1.0
C      1  0.5787710000000  0.4876350000000  0.5133560000000 1.0
C      1  0.4196140000000  0.4861340000000  0.4866950000000 1.0
C      1  0.4019500000000  0.4813360000000  0.5526210000000 1.0
C      1  0.5980470000000  0.4780560000000  0.4485680000000 1.0
C      1  0.5980430000000  0.4780600000000  0.5514370000000 1.0
C      1  0.4019550000000  0.4813490000000  0.4473720000000 1.0
C      1  0.5428250000000  0.4452600000000  0.4854130000000 1.0
C      1  0.4584630000000  0.4435910000000  0.5146220000000 1.0
C      1  0.4584650000000  0.4435920000000  0.4853820000000 1.0
C      1  0.5428240000000  0.4452630000000  0.5145850000000 1.0
C      1  0.5746900000000  0.5626830000000  0.4849670000000 1.0
C      1  0.4227500000000  0.5669870000000  0.5151810000000 1.0
C      1  0.4227500000000  0.5669870000000  0.4848180000000 1.0
C      1  0.5746900000000  0.5626840000000  0.5150310000000 1.0
C      1  0.4241910000000  0.4930350000000  0.4311490000000 1.0
C      1  0.5778580000000  0.4902640000000  0.5711910000000 1.0
C      1  0.5778630000000  0.4902640000000  0.4288090000000 1.0
C      1  0.4241860000000  0.4930300000000  0.5688500000000 1.0
C      1  0.4828560000000  0.5587010000000  0.4766050000000 1.0
C      1  0.5107830000000  0.5581380000000  0.5231770000000 1.0
C      1  0.5107830000000  0.5581370000000  0.4768220000000 1.0
C      1  0.4828550000000  0.5587010000000  0.5233960000000 1.0
C      1  0.4385410000000  0.4441160000000  0.4632650000000 1.0
C      1  0.5620990000000  0.4447110000000  0.5369180000000 1.0
C      1  0.5621160000000  0.4447170000000  0.4630920000000 1.0
C      1  0.4385480000000  0.4441140000000  0.5367490000000 1.0
C      1  0.4338690000000  0.5217560000000  0.5634900000000 1.0
C      1  0.5702200000000  0.5198750000000  0.4311130000000 1.0
C      1  0.5702160000000  0.5198750000000  0.5688880000000 1.0
C      1  0.4338740000000  0.5217570000000  0.4365090000000 1.0
C      1  0.5287750000000  0.4860350000000  0.5854770000000 1.0
C      1  0.4721040000000  0.4870080000000  0.4151630000000 1.0
C      1  0.4720990000000  0.4870430000000  0.5848390000000 1.0
C      1  0.5287590000000  0.4860860000000  0.4144890000000 1.0
C      1  0.4817500000000  0.5084900000000  0.6086400000000 1.0
C      1  0.5173250000000  0.5082990000000  0.3910760000000 1.0
C      1  0.5173050000000  0.5083380000000  0.6089610000000 1.0
C      1  0.4817590000000  0.5084780000000  0.3913530000000 1.0
END
