TITL C-3201378-2706-1122 -822438.783451086 125000 -567.340565577545 0 0 103 (C1) n - 1
REM
REM in /home/nfs/bkarasulu/CARBON/AIRSS/Generating-Clusters/LCBOP/Higher-Symm/SD-CG/FIRE-CG
REM
REM
REM
REM
REM
REM ./C.cell (b20cbc046b6831c77cfcea5457e17084)
REM AIRSS Version 0.9.1 bugfix July 2018 build 013d7b7c2542+ Fri, 06 Jul 2018 19:26:36 +0100
REM compiler GCC version 9.2.1 20190827 (Red Hat 9.2.1-1)
REM options -cpp -mtune=generic -march=x86-64 -g -O0 -fpre-include=/usr/include/finclude/math-vector-fortran.h
REM seed -1912745294 -1966177923 1670091567 -1563078444 -87379017 2142959220 2024782581 -298845004 -1702179330 -279334652 -1866718749 1837104901 -206815737 -1297879339 819714876 -1082460534 245952880 1516670967 1700325250 62824310 -624356126 2093764125 711048219 -991278961 1904849644 1345712832 1355929583 725826463 970963103 1468437848 915942271 -750480538 1579257706
REM
CELL 1.54180   50.00000   50.00000   50.00000   90.00000   90.00000   90.00000
LATT -1
SFAC C  
C      1  0.5320010000000  0.5030850000000  0.4634860000000 1.0
C      1  0.4763870000000  0.4574050000000  0.5392570000000 1.0
C      1  0.4561320000000  0.5438250000000  0.4772610000000 1.0
C      1  0.4677520000000  0.5035210000000  0.4636820000000 1.0
C      1  0.5399820000000  0.5144280000000  0.5335140000000 1.0
C      1  0.4649410000000  0.4984700000000  0.5423300000000 1.0
C      1  0.5000610000000  0.5317040000000  0.5320720000000 1.0
C      1  0.4775590000000  0.5456040000000  0.4623000000000 1.0
C      1  0.5038970000000  0.4592080000000  0.4726590000000 1.0
C      1  0.5524470000000  0.4626530000000  0.4673990000000 1.0
C      1  0.4554290000000  0.4594630000000  0.5235780000000 1.0
C      1  0.5397390000000  0.5280780000000  0.5067880000000 1.0
C      1  0.5401320000000  0.4864580000000  0.5327200000000 1.0
C      1  0.4783980000000  0.4579940000000  0.4614230000000 1.0
C      1  0.4561700000000  0.5295840000000  0.5014740000000 1.0
C      1  0.4559820000000  0.5240820000000  0.5484810000000 1.0
C      1  0.5491970000000  0.5250620000000  0.4557580000000 1.0
C      1  0.4609830000000  0.4771200000000  0.4562450000000 1.0
C      1  0.5037850000000  0.5380740000000  0.4717010000000 1.0
C      1  0.4748910000000  0.5419480000000  0.5435140000000 1.0
C      1  0.5016850000000  0.4674810000000  0.5311330000000 1.0
C      1  0.5400920000000  0.4738800000000  0.5043390000000 1.0
C      1  0.4556280000000  0.4716040000000  0.4987040000000 1.0
C      1  0.5509800000000  0.5424220000000  0.4758370000000 1.0
C      1  0.4139080000000  0.5376120000000  0.5160280000000 1.0
C      1  0.5374570000000  0.5120460000000  0.4163330000000 1.0
C      1  0.5177980000000  0.4230230000000  0.5335160000000 1.0
C      1  0.5838360000000  0.4622050000000  0.5178500000000 1.0
C      1  0.4139720000000  0.4618060000000  0.4838270000000 1.0
C      1  0.5942780000000  0.5418630000000  0.4890550000000 1.0
C      1  0.4612230000000  0.4820950000000  0.4120310000000 1.0
C      1  0.5393270000000  0.4839270000000  0.5784030000000 1.0
C      1  0.4635110000000  0.5150630000000  0.5901290000000 1.0
C      1  0.4873950000000  0.5835990000000  0.5405280000000 1.0
C      1  0.5185580000000  0.5835650000000  0.4654190000000 1.0
C      1  0.4841800000000  0.4137680000000  0.4614200000000 1.0
C      1  0.4108060000000  0.5396980000000  0.4833320000000 1.0
C      1  0.5400470000000  0.5145990000000  0.5792500000000 1.0
C      1  0.5166450000000  0.4170550000000  0.4636140000000 1.0
C      1  0.5934060000000  0.4635140000000  0.4903640000000 1.0
C      1  0.4102530000000  0.4603520000000  0.5167230000000 1.0
C      1  0.5859930000000  0.5379730000000  0.5184130000000 1.0
C      1  0.4636140000000  0.4829970000000  0.5847180000000 1.0
C      1  0.5322620000000  0.4827050000000  0.4226050000000 1.0
C      1  0.4644350000000  0.5156480000000  0.4174150000000 1.0
C      1  0.4860760000000  0.5901700000000  0.4617460000000 1.0
C      1  0.5176020000000  0.5758800000000  0.5363570000000 1.0
C      1  0.4869040000000  0.4141320000000  0.5392350000000 1.0
C      1  0.5199460000000  0.5560630000000  0.4500740000000 1.0
C      1  0.5562740000000  0.4489940000000  0.5145030000000 1.0
C      1  0.4346940000000  0.5248150000000  0.5643190000000 1.0
C      1  0.4768890000000  0.4368070000000  0.4413000000000 1.0
C      1  0.5192240000000  0.4499250000000  0.5490580000000 1.0
C      1  0.4790070000000  0.5619090000000  0.5619650000000 1.0
C      1  0.4417290000000  0.5503940000000  0.5177750000000 1.0
C      1  0.5666630000000  0.5633970000000  0.4781080000000 1.0
C      1  0.4421150000000  0.4493960000000  0.4829320000000 1.0
C      1  0.5577790000000  0.4776820000000  0.5545770000000 1.0
C      1  0.4407320000000  0.4755860000000  0.4378990000000 1.0
C      1  0.5689960000000  0.5186500000000  0.4398440000000 1.0
C      1  0.5189250000000  0.5486390000000  0.5506620000000 1.0
C      1  0.5673550000000  0.4424020000000  0.4737510000000 1.0
C      1  0.4472850000000  0.5183550000000  0.4438790000000 1.0
C      1  0.4784950000000  0.4387100000000  0.5597110000000 1.0
C      1  0.5185020000000  0.4445350000000  0.4510430000000 1.0
C      1  0.4780990000000  0.5628950000000  0.4411450000000 1.0
C      1  0.4370370000000  0.5629690000000  0.4762490000000 1.0
C      1  0.5582470000000  0.5529910000000  0.5188530000000 1.0
C      1  0.4369450000000  0.4391430000000  0.5248310000000 1.0
C      1  0.5432420000000  0.4803200000000  0.4497260000000 1.0
C      1  0.4465810000000  0.4823290000000  0.5588070000000 1.0
C      1  0.5585320000000  0.5214400000000  0.5554390000000 1.0
C      1  0.4596980000000  0.5884890000000  0.4850500000000 1.0
C      1  0.5989990000000  0.4883910000000  0.4763930000000 1.0
C      1  0.4864370000000  0.4602060000000  0.5832610000000 1.0
C      1  0.5404510000000  0.4183370000000  0.4833980000000 1.0
C      1  0.4599990000000  0.4142790000000  0.5170770000000 1.0
C      1  0.5393550000000  0.5774040000000  0.5164370000000 1.0
C      1  0.4190240000000  0.5151190000000  0.4608180000000 1.0
C      1  0.5850750000000  0.5153200000000  0.5402670000000 1.0
C      1  0.4168510000000  0.4848730000000  0.5394340000000 1.0
C      1  0.5178620000000  0.5344620000000  0.5780080000000 1.0
C      1  0.4858020000000  0.5396580000000  0.4174260000000 1.0
C      1  0.5135630000000  0.4595300000000  0.4231150000000 1.0
C      1  0.4629480000000  0.5793460000000  0.5171030000000 1.0
C      1  0.5844470000000  0.4830840000000  0.5402120000000 1.0
C      1  0.4840720000000  0.4554760000000  0.4168930000000 1.0
C      1  0.5388840000000  0.4244630000000  0.5121530000000 1.0
C      1  0.4618200000000  0.4202750000000  0.4850840000000 1.0
C      1  0.5423910000000  0.5851180000000  0.4864830000000 1.0
C      1  0.4117310000000  0.5166950000000  0.5404040000000 1.0
C      1  0.5939360000000  0.5152480000000  0.4661600000000 1.0
C      1  0.4150820000000  0.4832250000000  0.4594230000000 1.0
C      1  0.5172080000000  0.5369610000000  0.4227910000000 1.0
C      1  0.4876590000000  0.5399400000000  0.5869680000000 1.0
C      1  0.5168620000000  0.4643520000000  0.5763720000000 1.0
C      1  0.5427170000000  0.5003010000000  0.4909930000000 1.0
C      1  0.5101320000000  0.5343220000000  0.5022700000000 1.0
C      1  0.4651290000000  0.5009860000000  0.4939230000000 1.0
C      1  0.4931590000000  0.5008410000000  0.5321430000000 1.0
C      1  0.5037570000000  0.5090180000000  0.4644290000000 1.0
C      1  0.5101500000000  0.4696470000000  0.5000270000000 1.0
C      1  0.4950100000000  0.4978300000000  0.4993530000000 1.0
END
