TITL C-3201377-4638-1437 -20257.6325545926 125000 -822.020044139023 0 0 146 (C1) n - 1
REM
REM in /home/nfs/bkarasulu/CARBON/AIRSS/Generating-Clusters/LCBOP/Higher-Symm/SD-CG/FIRE-CG
REM
REM
REM
REM
REM
REM ./C.cell (b20cbc046b6831c77cfcea5457e17084)
REM AIRSS Version 0.9.1 bugfix July 2018 build 013d7b7c2542+ Fri, 06 Jul 2018 19:26:36 +0100
REM compiler GCC version 9.2.1 20190827 (Red Hat 9.2.1-1)
REM options -cpp -mtune=generic -march=x86-64 -g -O0 -fpre-include=/usr/include/finclude/math-vector-fortran.h
REM seed 874326333 1379714042 -1817779458 -1115683285 -1232844147 465143137 -498124919 -825952867 1263918270 72316213 -1092031232 1057506934 -1250142907 -1335616300 -120159330 -884630331 1979620248 -1035042772 2048940891 -1892092876 515926229 1446784186 -1077542242 -155177582 -695067078 -1609469680 -221915057 -625479629 743545356 566745590 388024352 -960304121 408450846
REM
CELL 1.54180   50.00000   50.00000   50.00000   90.00000   90.00000   90.00000
LATT -1
SFAC C  
C      1  0.4953120000000  0.5591120000000  0.4306220000000 1.0
C      1  0.4927070000000  0.5893870000000  0.5046910000000 1.0
C      1  0.4893180000000  0.5594130000000  0.5662840000000 1.0
C      1  0.4931050000000  0.4854120000000  0.5925470000000 1.0
C      1  0.4932490000000  0.4172060000000  0.5454620000000 1.0
C      1  0.4911360000000  0.4221050000000  0.4655180000000 1.0
C      1  0.4935210000000  0.4788250000000  0.4130090000000 1.0
C      1  0.5532940000000  0.4030440000000  0.5064070000000 1.0
C      1  0.5536270000000  0.4330720000000  0.4282450000000 1.0
C      1  0.5567750000000  0.5144780000000  0.4054070000000 1.0
C      1  0.5316070000000  0.5998100000000  0.4429100000000 1.0
C      1  0.5799970000000  0.5736590000000  0.5175230000000 1.0
C      1  0.5533310000000  0.5335620000000  0.5902540000000 1.0
C      1  0.5544250000000  0.4461860000000  0.5809500000000 1.0
C      1  0.5354580000000  0.4921000000000  0.5862710000000 1.0
C      1  0.5353180000000  0.4275270000000  0.5457320000000 1.0
C      1  0.5340190000000  0.4214930000000  0.4717010000000 1.0
C      1  0.5359590000000  0.4735670000000  0.4198010000000 1.0
C      1  0.5385100000000  0.5497340000000  0.4323440000000 1.0
C      1  0.5369600000000  0.5852480000000  0.4892650000000 1.0
C      1  0.5312260000000  0.5693930000000  0.5598080000000 1.0
C      1  0.5399600000000  0.4944800000000  0.4014840000000 1.0
C      1  0.5463150000000  0.5769880000000  0.4381020000000 1.0
C      1  0.5609850000000  0.5874370000000  0.5039950000000 1.0
C      1  0.5382640000000  0.5545510000000  0.5829670000000 1.0
C      1  0.5397700000000  0.4651110000000  0.5928110000000 1.0
C      1  0.5391760000000  0.4050560000000  0.5288010000000 1.0
C      1  0.5382460000000  0.4185830000000  0.4441480000000 1.0
C      1  0.5752140000000  0.4486540000000  0.4430230000000 1.0
C      1  0.5799530000000  0.5053940000000  0.4261900000000 1.0
C      1  0.6004410000000  0.5298770000000  0.4708470000000 1.0
C      1  0.5920770000000  0.5479370000000  0.5219280000000 1.0
C      1  0.5770530000000  0.5175500000000  0.5693480000000 1.0
C      1  0.5749110000000  0.4569140000000  0.5600100000000 1.0
C      1  0.5748830000000  0.4266540000000  0.5022980000000 1.0
C      1  0.4254970000000  0.4400940000000  0.5326360000000 1.0
C      1  0.4243640000000  0.4370340000000  0.4732930000000 1.0
C      1  0.4245320000000  0.4835140000000  0.4330730000000 1.0
C      1  0.4240060000000  0.5410940000000  0.4447160000000 1.0
C      1  0.4199340000000  0.5663960000000  0.4999620000000 1.0
C      1  0.4190470000000  0.5400970000000  0.5533780000000 1.0
C      1  0.4244220000000  0.4866200000000  0.5676560000000 1.0
C      1  0.5094060000000  0.6085410000000  0.4595040000000 1.0
C      1  0.4949920000000  0.6076280000000  0.5645620000000 1.0
C      1  0.5218020000000  0.5245260000000  0.6126790000000 1.0
C      1  0.5223160000000  0.4241240000000  0.5883740000000 1.0
C      1  0.5196260000000  0.3861470000000  0.4935500000000 1.0
C      1  0.5203980000000  0.4337270000000  0.4065170000000 1.0
C      1  0.5247510000000  0.5349710000000  0.3931450000000 1.0
C      1  0.5071060000000  0.5050980000000  0.4354790000000 1.0
C      1  0.5056740000000  0.5526360000000  0.4635850000000 1.0
C      1  0.5032700000000  0.5635890000000  0.5179320000000 1.0
C      1  0.5046380000000  0.5278150000000  0.5596560000000 1.0
C      1  0.5056710000000  0.4727230000000  0.5600650000000 1.0
C      1  0.5059430000000  0.4342620000000  0.5145760000000 1.0
C      1  0.5046600000000  0.4554770000000  0.4589770000000 1.0
C      1  0.5295970000000  0.4389530000000  0.4957870000000 1.0
C      1  0.5302450000000  0.4677150000000  0.4487630000000 1.0
C      1  0.5315200000000  0.5216320000000  0.4416550000000 1.0
C      1  0.5304210000000  0.5596280000000  0.4772680000000 1.0
C      1  0.5289360000000  0.5585110000000  0.5324290000000 1.0
C      1  0.5282900000000  0.5105660000000  0.5635610000000 1.0
C      1  0.5280710000000  0.4574950000000  0.5463670000000 1.0
C      1  0.5929320000000  0.5223110000000  0.4457960000000 1.0
C      1  0.6014400000000  0.5357030000000  0.4974350000000 1.0
C      1  0.5886710000000  0.5342340000000  0.5476700000000 1.0
C      1  0.5810820000000  0.4871360000000  0.5655470000000 1.0
C      1  0.5806780000000  0.4425320000000  0.5315220000000 1.0
C      1  0.5805610000000  0.4383730000000  0.4727630000000 1.0
C      1  0.5825220000000  0.4756770000000  0.4324670000000 1.0
C      1  0.4418770000000  0.5851480000000  0.4923390000000 1.0
C      1  0.4395710000000  0.5590520000000  0.5641920000000 1.0
C      1  0.4449700000000  0.4902330000000  0.5901890000000 1.0
C      1  0.4462260000000  0.4255000000000  0.5490090000000 1.0
C      1  0.4438800000000  0.4139590000000  0.4708150000000 1.0
C      1  0.4454900000000  0.4723850000000  0.4133690000000 1.0
C      1  0.4459540000000  0.5493420000000  0.4246300000000 1.0
C      1  0.4139110000000  0.5216200000000  0.5292980000000 1.0
C      1  0.4166270000000  0.4914340000000  0.5371410000000 1.0
C      1  0.4176600000000  0.4662860000000  0.5180160000000 1.0
C      1  0.4174540000000  0.4652750000000  0.4851320000000 1.0
C      1  0.4166670000000  0.4903150000000  0.4629520000000 1.0
C      1  0.4147510000000  0.5222950000000  0.4690980000000 1.0
C      1  0.4129640000000  0.5361270000000  0.4997510000000 1.0
C      1  0.4632740000000  0.5900220000000  0.4463410000000 1.0
C      1  0.4565730000000  0.5986980000000  0.5356780000000 1.0
C      1  0.4711750000000  0.5387210000000  0.6001450000000 1.0
C      1  0.4734240000000  0.4462460000000  0.5925410000000 1.0
C      1  0.4716580000000  0.3921700000000  0.5160620000000 1.0
C      1  0.4714890000000  0.4241440000000  0.4262600000000 1.0
C      1  0.4741900000000  0.5129910000000  0.3940440000000 1.0
C      1  0.4829650000000  0.6099580000000  0.4494910000000 1.0
C      1  0.4712810000000  0.6143790000000  0.5535470000000 1.0
C      1  0.5064860000000  0.5446410000000  0.6047110000000 1.0
C      1  0.5077210000000  0.4430940000000  0.5996960000000 1.0
C      1  0.5065710000000  0.3860060000000  0.5165150000000 1.0
C      1  0.5057270000000  0.4177430000000  0.4216150000000 1.0
C      1  0.5085940000000  0.5144620000000  0.3880130000000 1.0
C      1  0.4854200000000  0.5048200000000  0.4571170000000 1.0
C      1  0.4855470000000  0.5343760000000  0.4782910000000 1.0
C      1  0.4840030000000  0.5390220000000  0.5143000000000 1.0
C      1  0.4839800000000  0.5151870000000  0.5418010000000 1.0
C      1  0.4848670000000  0.4842820000000  0.5416410000000 1.0
C      1  0.4839320000000  0.4492070000000  0.5091390000000 1.0
C      1  0.4834830000000  0.4743190000000  0.4618680000000 1.0
C      1  0.5432050000000  0.5075790000000  0.5405230000000 1.0
C      1  0.5427630000000  0.4740790000000  0.5282270000000 1.0
C      1  0.5438330000000  0.4635150000000  0.4992400000000 1.0
C      1  0.5458490000000  0.4815130000000  0.4682280000000 1.0
C      1  0.5471770000000  0.5117760000000  0.4630110000000 1.0
C      1  0.5468260000000  0.5392410000000  0.4859940000000 1.0
C      1  0.5445420000000  0.5371460000000  0.5215970000000 1.0
C      1  0.4526210000000  0.5758200000000  0.4683490000000 1.0
C      1  0.4484910000000  0.5718600000000  0.5403350000000 1.0
C      1  0.4572010000000  0.5164660000000  0.5878700000000 1.0
C      1  0.4590670000000  0.4439920000000  0.5673090000000 1.0
C      1  0.4557840000000  0.4081210000000  0.4968930000000 1.0
C      1  0.4568080000000  0.4493140000000  0.4275220000000 1.0
C      1  0.4595410000000  0.5258160000000  0.4152110000000 1.0
C      1  0.4668770000000  0.4141020000000  0.4529180000000 1.0
C      1  0.4688940000000  0.4850890000000  0.4005350000000 1.0
C      1  0.4682130000000  0.5689700000000  0.4275910000000 1.0
C      1  0.4639120000000  0.5972480000000  0.5080530000000 1.0
C      1  0.4644440000000  0.5589430000000  0.5808290000000 1.0
C      1  0.4680070000000  0.4739600000000  0.5991480000000 1.0
C      1  0.4674000000000  0.4066850000000  0.5411590000000 1.0
C      1  0.5147000000000  0.4167140000000  0.5631670000000 1.0
C      1  0.5108440000000  0.4041600000000  0.4745860000000 1.0
C      1  0.5136390000000  0.4602650000000  0.4070180000000 1.0
C      1  0.5169300000000  0.5534080000000  0.4127280000000 1.0
C      1  0.5128720000000  0.6008950000000  0.4871790000000 1.0
C      1  0.5061520000000  0.5821620000000  0.5650110000000 1.0
C      1  0.5142510000000  0.4990700000000  0.6049960000000 1.0
C      1  0.4621460000000  0.5112200000000  0.4400710000000 1.0
C      1  0.4606720000000  0.5487340000000  0.4711240000000 1.0
C      1  0.4582780000000  0.5524720000000  0.5215020000000 1.0
C      1  0.4597690000000  0.5189630000000  0.5586970000000 1.0
C      1  0.4614240000000  0.4686200000000  0.5521840000000 1.0
C      1  0.4607450000000  0.4352750000000  0.5052820000000 1.0
C      1  0.4598570000000  0.4613310000000  0.4540590000000 1.0
C      1  0.5273850000000  0.5035110000000  0.5005120000000 1.0
C      1  0.5627660000000  0.5024180000000  0.5022790000000 1.0
C      1  0.4468920000000  0.5096610000000  0.4952540000000 1.0
C      1  0.4834220000000  0.4776400000000  0.5127490000000 1.0
C      1  0.4583500000000  0.4882150000000  0.5030990000000 1.0
C      1  0.5046300000000  0.4913920000000  0.4995860000000 1.0
END
