TITL C-3201373-1215-969 77325.0086027701 125000 -995.201209195847 0 0 163 (C1) n - 1
REM
REM in /home/nfs/bkarasulu/CARBON/AIRSS/Generating-Clusters/LCBOP/Higher-Symm/SD-CG/FIRE-CG
REM
REM
REM
REM
REM
REM ./C.cell (b20cbc046b6831c77cfcea5457e17084)
REM AIRSS Version 0.9.1 bugfix July 2018 build 013d7b7c2542+ Fri, 06 Jul 2018 19:26:36 +0100
REM compiler GCC version 9.2.1 20190827 (Red Hat 9.2.1-1)
REM options -cpp -mtune=generic -march=x86-64 -g -O0 -fpre-include=/usr/include/finclude/math-vector-fortran.h
REM seed -1267667263 -1868265873 925614760 -221525883 2136902934 245071738 1057654387 -2075525372 1603773928 1953887007 -545317552 -72383299 2043938321 280263286 -1983131964 822153591 2073988186 2050801328 -1643706057 1987233488 473908054 1063191400 -820667157 -1995397877 322207813 -1096543146 -882924281 -1043946935 -1332850773 -1259952746 -305339566 -1189787360 -2109846012
REM
CELL 1.54180   50.00000   50.00000   50.00000   90.00000   90.00000   90.00000
LATT -1
SFAC C  
C      1  0.5784050000000  0.5457920000000  0.5439870000000 1.0
C      1  0.5740910000000  0.4350680000000  0.5507860000000 1.0
C      1  0.4618700000000  0.4164370000000  0.5463830000000 1.0
C      1  0.4064850000000  0.5086490000000  0.5492150000000 1.0
C      1  0.4805250000000  0.5890420000000  0.5492360000000 1.0
C      1  0.5782380000000  0.5457770000000  0.4517000000000 1.0
C      1  0.5693000000000  0.4389810000000  0.4548920000000 1.0
C      1  0.4625850000000  0.4154120000000  0.4522570000000 1.0
C      1  0.4082510000000  0.5093350000000  0.4544000000000 1.0
C      1  0.4801490000000  0.5891940000000  0.4550800000000 1.0
C      1  0.5437440000000  0.4722090000000  0.4762240000000 1.0
C      1  0.4836800000000  0.4493680000000  0.4754750000000 1.0
C      1  0.4480300000000  0.4965720000000  0.4756110000000 1.0
C      1  0.4817630000000  0.5486940000000  0.4782580000000 1.0
C      1  0.5403710000000  0.5314870000000  0.4739680000000 1.0
C      1  0.5490100000000  0.4592070000000  0.5246670000000 1.0
C      1  0.4841400000000  0.4509150000000  0.5232750000000 1.0
C      1  0.4439490000000  0.5000410000000  0.5243050000000 1.0
C      1  0.4800700000000  0.5485390000000  0.5281390000000 1.0
C      1  0.5376170000000  0.5315390000000  0.5240360000000 1.0
C      1  0.5404360000000  0.5702250000000  0.5558870000000 1.0
C      1  0.5818410000000  0.4832800000000  0.5560480000000 1.0
C      1  0.5073190000000  0.4158660000000  0.5568500000000 1.0
C      1  0.4257580000000  0.4665580000000  0.5575360000000 1.0
C      1  0.4431940000000  0.5604200000000  0.5587970000000 1.0
C      1  0.5390950000000  0.5709570000000  0.4428360000000 1.0
C      1  0.5800100000000  0.4835470000000  0.4435980000000 1.0
C      1  0.5090960000000  0.4188410000000  0.4435920000000 1.0
C      1  0.4234950000000  0.4662300000000  0.4431850000000 1.0
C      1  0.4452820000000  0.5596630000000  0.4447370000000 1.0
C      1  0.4644000000000  0.5782090000000  0.4313180000000 1.0
C      1  0.5625280000000  0.5588940000000  0.4295050000000 1.0
C      1  0.5762720000000  0.4571690000000  0.4307440000000 1.0
C      1  0.4831310000000  0.4162900000000  0.4292550000000 1.0
C      1  0.4135450000000  0.4912030000000  0.4299810000000 1.0
C      1  0.4630130000000  0.5783770000000  0.5714500000000 1.0
C      1  0.5642890000000  0.5582580000000  0.5683120000000 1.0
C      1  0.5775980000000  0.4578950000000  0.5713030000000 1.0
C      1  0.4810440000000  0.4158670000000  0.5705020000000 1.0
C      1  0.4137390000000  0.4897310000000  0.5719910000000 1.0
C      1  0.5203390000000  0.3865570000000  0.4861150000000 1.0
C      1  0.3991840000000  0.4427770000000  0.4871030000000 1.0
C      1  0.4146620000000  0.5767450000000  0.4872160000000 1.0
C      1  0.5466240000000  0.6039020000000  0.4858220000000 1.0
C      1  0.6139560000000  0.4913410000000  0.4859180000000 1.0
C      1  0.5191050000000  0.3862530000000  0.5135420000000 1.0
C      1  0.3996680000000  0.4426070000000  0.5147780000000 1.0
C      1  0.4140520000000  0.5771460000000  0.5148140000000 1.0
C      1  0.5464010000000  0.6037950000000  0.5133070000000 1.0
C      1  0.6146010000000  0.4901780000000  0.5134650000000 1.0
C      1  0.5092460000000  0.5221120000000  0.4396400000000 1.0
C      1  0.5229500000000  0.4956520000000  0.4278600000000 1.0
C      1  0.5026000000000  0.4733670000000  0.4416220000000 1.0
C      1  0.4737010000000  0.4836590000000  0.4323290000000 1.0
C      1  0.4766830000000  0.5150840000000  0.4346490000000 1.0
C      1  0.5125330000000  0.5196240000000  0.5709710000000 1.0
C      1  0.5293050000000  0.4909160000000  0.5563290000000 1.0
C      1  0.5083120000000  0.4690710000000  0.5658370000000 1.0
C      1  0.4793610000000  0.4821170000000  0.5653310000000 1.0
C      1  0.4817790000000  0.5145390000000  0.5609790000000 1.0
C      1  0.4713760000000  0.5635890000000  0.5966090000000 1.0
C      1  0.5524940000000  0.5481250000000  0.5946950000000 1.0
C      1  0.5600890000000  0.4668570000000  0.5958880000000 1.0
C      1  0.4851150000000  0.4336830000000  0.5961480000000 1.0
C      1  0.4316410000000  0.4929770000000  0.5970900000000 1.0
C      1  0.4723900000000  0.5633160000000  0.4053430000000 1.0
C      1  0.5514580000000  0.5476400000000  0.4039920000000 1.0
C      1  0.5621810000000  0.4657970000000  0.4046320000000 1.0
C      1  0.4867270000000  0.4344160000000  0.4041170000000 1.0
C      1  0.4319660000000  0.4940440000000  0.4041980000000 1.0
C      1  0.5657700000000  0.4952840000000  0.6041710000000 1.0
C      1  0.5143520000000  0.4360420000000  0.6044840000000 1.0
C      1  0.4425630000000  0.4664830000000  0.6056540000000 1.0
C      1  0.4502790000000  0.5443880000000  0.6055400000000 1.0
C      1  0.5271850000000  0.5630600000000  0.6034230000000 1.0
C      1  0.5683330000000  0.4947670000000  0.3961730000000 1.0
C      1  0.5155600000000  0.4372410000000  0.3958130000000 1.0
C      1  0.4435250000000  0.4673640000000  0.3952620000000 1.0
C      1  0.4503090000000  0.5451850000000  0.3963170000000 1.0
C      1  0.5266350000000  0.5620280000000  0.3958150000000 1.0
C      1  0.4328710000000  0.5173060000000  0.5430800000000 1.0
C      1  0.4955650000000  0.5652000000000  0.5441940000000 1.0
C      1  0.5603470000000  0.5236780000000  0.5391640000000 1.0
C      1  0.5464940000000  0.4394420000000  0.5446040000000 1.0
C      1  0.4632730000000  0.4443530000000  0.5403950000000 1.0
C      1  0.4354430000000  0.5161970000000  0.4602900000000 1.0
C      1  0.4954540000000  0.5657330000000  0.4607430000000 1.0
C      1  0.5607490000000  0.5236390000000  0.4567330000000 1.0
C      1  0.5426270000000  0.4491210000000  0.4600630000000 1.0
C      1  0.4621910000000  0.4433120000000  0.4585490000000 1.0
C      1  0.4714040000000  0.4584170000000  0.3944840000000 1.0
C      1  0.4498350000000  0.5163560000000  0.3934290000000 1.0
C      1  0.4988680000000  0.5540630000000  0.3937470000000 1.0
C      1  0.5525790000000  0.5200990000000  0.3931080000000 1.0
C      1  0.5342350000000  0.4595480000000  0.3967940000000 1.0
C      1  0.4699350000000  0.4573760000000  0.6072810000000 1.0
C      1  0.4492370000000  0.5154430000000  0.6076820000000 1.0
C      1  0.4982640000000  0.5559320000000  0.6065740000000 1.0
C      1  0.5501050000000  0.5197020000000  0.6025440000000 1.0
C      1  0.5320540000000  0.4595740000000  0.6048020000000 1.0
C      1  0.5931490000000  0.4805890000000  0.5295390000000 1.0
C      1  0.5087800000000  0.4072900000000  0.5295000000000 1.0
C      1  0.4152570000000  0.4603180000000  0.5308030000000 1.0
C      1  0.4347490000000  0.5673760000000  0.5316640000000 1.0
C      1  0.5426980000000  0.5805710000000  0.5290710000000 1.0
C      1  0.5911740000000  0.4848090000000  0.4702660000000 1.0
C      1  0.5107370000000  0.4078770000000  0.4702250000000 1.0
C      1  0.4148200000000  0.4598180000000  0.4704190000000 1.0
C      1  0.4361820000000  0.5665870000000  0.4716210000000 1.0
C      1  0.5433660000000  0.5808900000000  0.4696690000000 1.0
C      1  0.4995420000000  0.4293930000000  0.5136660000000 1.0
C      1  0.4291300000000  0.4787720000000  0.5138830000000 1.0
C      1  0.4566040000000  0.5573720000000  0.5159680000000 1.0
C      1  0.5390970000000  0.5572690000000  0.5127690000000 1.0
C      1  0.5725730000000  0.4692270000000  0.5131050000000 1.0
C      1  0.4991930000000  0.4286660000000  0.4863480000000 1.0
C      1  0.4315570000000  0.4767050000000  0.4866300000000 1.0
C      1  0.4573110000000  0.5572910000000  0.4886410000000 1.0
C      1  0.5405900000000  0.5570270000000  0.4855130000000 1.0
C      1  0.5690600000000  0.4777250000000  0.4870930000000 1.0
C      1  0.5847100000000  0.4264610000000  0.5167620000000 1.0
C      1  0.4563880000000  0.4030180000000  0.5137900000000 1.0
C      1  0.3924870000000  0.5101620000000  0.5160560000000 1.0
C      1  0.4778670000000  0.6026620000000  0.5165420000000 1.0
C      1  0.5902580000000  0.5526990000000  0.5123030000000 1.0
C      1  0.5813980000000  0.4282070000000  0.4869920000000 1.0
C      1  0.4567900000000  0.4022460000000  0.4849780000000 1.0
C      1  0.3937190000000  0.5105740000000  0.4870660000000 1.0
C      1  0.4775180000000  0.6029190000000  0.4877970000000 1.0
C      1  0.5903820000000  0.5527200000000  0.4838030000000 1.0
C      1  0.4754260000000  0.4976920000000  0.4778640000000 1.0
C      1  0.4892260000000  0.5224310000000  0.4808860000000 1.0
C      1  0.5163040000000  0.5160370000000  0.4703250000000 1.0
C      1  0.5202570000000  0.4880220000000  0.4818450000000 1.0
C      1  0.4953700000000  0.4756070000000  0.4713590000000 1.0
C      1  0.4708040000000  0.4992230000000  0.5200300000000 1.0
C      1  0.4867160000000  0.5208490000000  0.5313650000000 1.0
C      1  0.5137460000000  0.5177750000000  0.5201940000000 1.0
C      1  0.5314280000000  0.4791210000000  0.5289200000000 1.0
C      1  0.4877070000000  0.4773290000000  0.5158790000000 1.0
C      1  0.4885450000000  0.4816990000000  0.3895090000000 1.0
C      1  0.4765380000000  0.5078150000000  0.3844560000000 1.0
C      1  0.4986050000000  0.5270740000000  0.3824260000000 1.0
C      1  0.5256870000000  0.5114700000000  0.3796700000000 1.0
C      1  0.5184660000000  0.4860900000000  0.3974140000000 1.0
C      1  0.4867130000000  0.4799760000000  0.6153450000000 1.0
C      1  0.4753270000000  0.5068370000000  0.6177560000000 1.0
C      1  0.4986520000000  0.5275750000000  0.6197750000000 1.0
C      1  0.5201380000000  0.5126840000000  0.6013860000000 1.0
C      1  0.5150600000000  0.4830580000000  0.6094090000000 1.0
C      1  0.5586470000000  0.5013180000000  0.5567470000000 1.0
C      1  0.5217270000000  0.4407790000000  0.5595520000000 1.0
C      1  0.4553670000000  0.4650200000000  0.5581820000000 1.0
C      1  0.4492060000000  0.5317790000000  0.5606220000000 1.0
C      1  0.5165940000000  0.5539430000000  0.5592540000000 1.0
C      1  0.5568660000000  0.5009460000000  0.4405260000000 1.0
C      1  0.5198100000000  0.4460250000000  0.4433170000000 1.0
C      1  0.4525010000000  0.4637600000000  0.4411100000000 1.0
C      1  0.4524690000000  0.5311440000000  0.4430590000000 1.0
C      1  0.5141330000000  0.5549670000000  0.4419130000000 1.0
C      1  0.5074600000000  0.5299370000000  0.6485700000000 1.0
C      1  0.5304940000000  0.5047570000000  0.3506590000000 1.0
C      1  0.5140480000000  0.4899600000000  0.5100010000000 1.0
END
