TITL C-3201378-2706-488 -1.28852156396213e-06 125000 -917.162991584326 0 0 153 (C1) n - 1
REM
REM in /home/nfs/bkarasulu/CARBON/AIRSS/Generating-Clusters/LCBOP/Higher-Symm/SD-CG/FIRE-CG
REM
REM
REM
REM
REM
REM ./C.cell (b20cbc046b6831c77cfcea5457e17084)
REM AIRSS Version 0.9.1 bugfix July 2018 build 013d7b7c2542+ Fri, 06 Jul 2018 19:26:36 +0100
REM compiler GCC version 9.2.1 20190827 (Red Hat 9.2.1-1)
REM options -cpp -mtune=generic -march=x86-64 -g -O0 -fpre-include=/usr/include/finclude/math-vector-fortran.h
REM seed 658858051 1404911905 282403416 422523982 1087190876 1776886799 83516704 -1393504153 1161698259 1926109960 2064826852 -1508571854 -1743754510 1612067926 -2132385756 1511011696 -1805995618 -1092070807 -480598195 -1661508870 -1831771981 -629843134 1542692459 1402618806 -950222398 944707615 -1206292709 -1855735940 140221702 -60012923 -2091671151 250148061 -1349987437
REM
CELL 1.54180   50.00000   50.00000   50.00000   90.00000   90.00000   90.00000
LATT -1
SFAC C  
C      1  0.5631970000000  0.5393400000000  0.4219100000000 1.0
C      1  0.4372200000000  0.5783000000000  0.5396320000000 1.0
C      1  0.5636280000000  0.4607800000000  0.5784020000000 1.0
C      1  0.4354800000000  0.4220820000000  0.4610360000000 1.0
C      1  0.4472580000000  0.4667130000000  0.4690580000000 1.0
C      1  0.5530850000000  0.5307850000000  0.4671980000000 1.0
C      1  0.4475220000000  0.5330810000000  0.5307640000000 1.0
C      1  0.5534600000000  0.4696260000000  0.5332880000000 1.0
C      1  0.4606120000000  0.4069690000000  0.4691320000000 1.0
C      1  0.5401310000000  0.5405890000000  0.4029930000000 1.0
C      1  0.4602190000000  0.5972550000000  0.5408860000000 1.0
C      1  0.5404280000000  0.4594540000000  0.5972100000000 1.0
C      1  0.4085260000000  0.5115750000000  0.5394850000000 1.0
C      1  0.5923730000000  0.4608600000000  0.5117280000000 1.0
C      1  0.4083770000000  0.4889970000000  0.4603890000000 1.0
C      1  0.5920250000000  0.5399760000000  0.4886630000000 1.0
C      1  0.5509170000000  0.5557710000000  0.5798740000000 1.0
C      1  0.4500520000000  0.4206070000000  0.5538850000000 1.0
C      1  0.5504000000000  0.4441700000000  0.4207530000000 1.0
C      1  0.4494840000000  0.5797690000000  0.4445550000000 1.0
C      1  0.5711550000000  0.4737180000000  0.4598140000000 1.0
C      1  0.4305930000000  0.5401670000000  0.4734510000000 1.0
C      1  0.5706280000000  0.5270720000000  0.5403210000000 1.0
C      1  0.4299830000000  0.4601990000000  0.5262810000000 1.0
C      1  0.5346530000000  0.4666570000000  0.4883410000000 1.0
C      1  0.4668350000000  0.5114170000000  0.4657750000000 1.0
C      1  0.5338870000000  0.5344930000000  0.5121090000000 1.0
C      1  0.4667840000000  0.4880800000000  0.5342290000000 1.0
C      1  0.4472030000000  0.5282830000000  0.4544150000000 1.0
C      1  0.5536470000000  0.5459480000000  0.5287270000000 1.0
C      1  0.4468920000000  0.4714690000000  0.5453730000000 1.0
C      1  0.5541320000000  0.4549760000000  0.4715210000000 1.0
C      1  0.4949260000000  0.6196630000000  0.4662850000000 1.0
C      1  0.5053470000000  0.5337940000000  0.6196520000000 1.0
C      1  0.4965330000000  0.3797570000000  0.5342990000000 1.0
C      1  0.5049540000000  0.4659780000000  0.3816100000000 1.0
C      1  0.5065280000000  0.3899230000000  0.4851140000000 1.0
C      1  0.4951670000000  0.5150140000000  0.3915480000000 1.0
C      1  0.5050090000000  0.6087360000000  0.5151280000000 1.0
C      1  0.4953930000000  0.4849360000000  0.6085940000000 1.0
C      1  0.4687360000000  0.5158820000000  0.5373350000000 1.0
C      1  0.5322970000000  0.4631500000000  0.5160300000000 1.0
C      1  0.4690000000000  0.4834900000000  0.4629050000000 1.0
C      1  0.5318040000000  0.5374030000000  0.4843030000000 1.0
C      1  0.5861290000000  0.4332100000000  0.5144430000000 1.0
C      1  0.4144170000000  0.4861040000000  0.4327130000000 1.0
C      1  0.5855840000000  0.5675600000000  0.4856910000000 1.0
C      1  0.4148280000000  0.5142870000000  0.5671410000000 1.0
C      1  0.4951740000000  0.5551500000000  0.5386460000000 1.0
C      1  0.5056100000000  0.4615780000000  0.5549840000000 1.0
C      1  0.4970980000000  0.4447700000000  0.4641150000000 1.0
C      1  0.5051580000000  0.5385230000000  0.4451250000000 1.0
C      1  0.6063460000000  0.5257720000000  0.5087020000000 1.0
C      1  0.3941760000000  0.4917670000000  0.5249440000000 1.0
C      1  0.6065560000000  0.4752100000000  0.4917230000000 1.0
C      1  0.3943980000000  0.5091410000000  0.4747730000000 1.0
C      1  0.5095450000000  0.5409990000000  0.3995270000000 1.0
C      1  0.4907700000000  0.6007330000000  0.5411660000000 1.0
C      1  0.5097700000000  0.4589930000000  0.6005670000000 1.0
C      1  0.4897750000000  0.3989610000000  0.4601480000000 1.0
C      1  0.4673910000000  0.5666980000000  0.4284350000000 1.0
C      1  0.5329770000000  0.5718510000000  0.5667930000000 1.0
C      1  0.4678150000000  0.4332990000000  0.5704680000000 1.0
C      1  0.5326060000000  0.4278630000000  0.4338320000000 1.0
C      1  0.4957550000000  0.5554960000000  0.6067940000000 1.0
C      1  0.5055690000000  0.3931950000000  0.5558600000000 1.0
C      1  0.4949360000000  0.4447930000000  0.3950090000000 1.0
C      1  0.5045420000000  0.6067420000000  0.4446260000000 1.0
C      1  0.5086220000000  0.5068980000000  0.6221420000000 1.0
C      1  0.4938940000000  0.3762180000000  0.5074740000000 1.0
C      1  0.5085180000000  0.4927900000000  0.3785200000000 1.0
C      1  0.4916810000000  0.6222260000000  0.4931830000000 1.0
C      1  0.4346940000000  0.5872590000000  0.4663190000000 1.0
C      1  0.5658230000000  0.5340740000000  0.5873440000000 1.0
C      1  0.4339090000000  0.4136740000000  0.5329190000000 1.0
C      1  0.5652700000000  0.4659360000000  0.4132460000000 1.0
C      1  0.5062060000000  0.4608530000000  0.5273660000000 1.0
C      1  0.4951800000000  0.4723110000000  0.4616910000000 1.0
C      1  0.5058040000000  0.5392210000000  0.4727640000000 1.0
C      1  0.4946440000000  0.5275120000000  0.5393980000000 1.0
C      1  0.4171420000000  0.4893630000000  0.5805970000000 1.0
C      1  0.5838050000000  0.4197510000000  0.4895230000000 1.0
C      1  0.4170090000000  0.5109870000000  0.4192340000000 1.0
C      1  0.5832080000000  0.5812090000000  0.5105040000000 1.0
C      1  0.6288340000000  0.5137110000000  0.4939910000000 1.0
C      1  0.3717880000000  0.5069080000000  0.5131070000000 1.0
C      1  0.6289640000000  0.4874270000000  0.5063700000000 1.0
C      1  0.3714930000000  0.4950710000000  0.4866550000000 1.0
C      1  0.4970710000000  0.5581050000000  0.4237400000000 1.0
C      1  0.5032890000000  0.5765270000000  0.5582180000000 1.0
C      1  0.4973950000000  0.4419470000000  0.5762430000000 1.0
C      1  0.5028270000000  0.4233180000000  0.4432760000000 1.0
C      1  0.5100560000000  0.5853650000000  0.4288950000000 1.0
C      1  0.4903100000000  0.5713210000000  0.5854760000000 1.0
C      1  0.5105650000000  0.4147480000000  0.5714810000000 1.0
C      1  0.4891990000000  0.4294850000000  0.4166370000000 1.0
C      1  0.4565870000000  0.5198720000000  0.5901700000000 1.0
C      1  0.5446130000000  0.4098240000000  0.5200140000000 1.0
C      1  0.4560660000000  0.4802430000000  0.4096960000000 1.0
C      1  0.5436690000000  0.5902240000000  0.4800290000000 1.0
C      1  0.4134260000000  0.5260570000000  0.4905210000000 1.0
C      1  0.5875630000000  0.5099870000000  0.5259240000000 1.0
C      1  0.4130250000000  0.4745640000000  0.5091950000000 1.0
C      1  0.5877010000000  0.4908850000000  0.4745280000000 1.0
C      1  0.5260940000000  0.5086060000000  0.5721430000000 1.0
C      1  0.4679620000000  0.4200800000000  0.4942880000000 1.0
C      1  0.5257100000000  0.4914290000000  0.4282960000000 1.0
C      1  0.4745880000000  0.5720650000000  0.4915680000000 1.0
C      1  0.4865910000000  0.5212450000000  0.4835910000000 1.0
C      1  0.5139800000000  0.5167570000000  0.5216000000000 1.0
C      1  0.4868310000000  0.4786640000000  0.5165890000000 1.0
C      1  0.5144690000000  0.4841570000000  0.4789410000000 1.0
C      1  0.6263580000000  0.4834820000000  0.5365810000000 1.0
C      1  0.3730720000000  0.4651280000000  0.4824550000000 1.0
C      1  0.6260680000000  0.5174550000000  0.4637240000000 1.0
C      1  0.3745400000000  0.5369210000000  0.5173480000000 1.0
C      1  0.5291680000000  0.5976780000000  0.5022210000000 1.0
C      1  0.4711750000000  0.4977180000000  0.5975520000000 1.0
C      1  0.5304580000000  0.4018040000000  0.4977760000000 1.0
C      1  0.4707390000000  0.5023560000000  0.4023150000000 1.0
C      1  0.4360620000000  0.5279640000000  0.4283850000000 1.0
C      1  0.5645950000000  0.5720560000000  0.5279600000000 1.0
C      1  0.4358240000000  0.4719840000000  0.5714380000000 1.0
C      1  0.5650010000000  0.4288460000000  0.4722430000000 1.0
C      1  0.4131280000000  0.4241460000000  0.4822760000000 1.0
C      1  0.5845430000000  0.5173950000000  0.4232800000000 1.0
C      1  0.4158670000000  0.5771070000000  0.5177690000000 1.0
C      1  0.5849800000000  0.4827350000000  0.5770820000000 1.0
C      1  0.5769050000000  0.5182490000000  0.4760500000000 1.0
C      1  0.4238040000000  0.5243840000000  0.5179880000000 1.0
C      1  0.5771680000000  0.4824490000000  0.5245130000000 1.0
C      1  0.4235830000000  0.4759830000000  0.4817420000000 1.0
C      1  0.4353590000000  0.4668270000000  0.4253620000000 1.0
C      1  0.5643440000000  0.5745530000000  0.4665880000000 1.0
C      1  0.4359910000000  0.5333690000000  0.5744510000000 1.0
C      1  0.5649790000000  0.4258640000000  0.5334950000000 1.0
C      1  0.5768000000000  0.4907940000000  0.4137850000000 1.0
C      1  0.4234380000000  0.5866880000000  0.4912400000000 1.0
C      1  0.5772800000000  0.5092400000000  0.5867190000000 1.0
C      1  0.4204050000000  0.4146790000000  0.5091060000000 1.0
C      1  0.4894300000000  0.4361500000000  0.4904390000000 1.0
C      1  0.5138650000000  0.5134070000000  0.4353020000000 1.0
C      1  0.4863540000000  0.5649230000000  0.5135490000000 1.0
C      1  0.5143440000000  0.4866640000000  0.5648490000000 1.0
C      1  0.5593800000000  0.4482260000000  0.5523080000000 1.0
C      1  0.4406640000000  0.4477690000000  0.4475150000000 1.0
C      1  0.5589070000000  0.5519940000000  0.4479410000000 1.0
C      1  0.4415740000000  0.5521840000000  0.5520750000000 1.0
C      1  0.3910240000000  0.5597890000000  0.5196940000000 1.0
C      1  0.6098810000000  0.4810090000000  0.5595680000000 1.0
C      1  0.3888830000000  0.4419120000000  0.4800150000000 1.0
C      1  0.6095120000000  0.5194480000000  0.4407220000000 1.0
C      1  0.5004380000000  0.5002240000000  0.5002870000000 1.0
END
