TITL C-3201375-1262-1264 1.14017859597259e-06 125000 -1169.30767595299 0 0 186 (C1) n - 1
REM
REM in /home/nfs/bkarasulu/CARBON/AIRSS/Generating-Clusters/LCBOP/Higher-Symm/SD-CG/FIRE-CG
REM
REM
REM
REM
REM
REM ./C.cell (b20cbc046b6831c77cfcea5457e17084)
REM AIRSS Version 0.9.1 bugfix July 2018 build 013d7b7c2542+ Fri, 06 Jul 2018 19:26:36 +0100
REM compiler GCC version 9.2.1 20190827 (Red Hat 9.2.1-1)
REM options -cpp -mtune=generic -march=x86-64 -g -O0 -fpre-include=/usr/include/finclude/math-vector-fortran.h
REM seed -2093835858 -509289342 -210059891 569998142 -1297733940 354301092 87616525 2045199978 -1094575630 1269149418 105158686 -1510554297 -1795172879 -515996843 -1009796315 1232151232 -632454453 -993256667 -345714952 1187298956 622802734 267409418 602781182 -252913777 357330669 -206037569 910697948 480135217 1312056162 1810838463 1441738744 -86805274 1208375511
REM
CELL 1.54180   50.00000   50.00000   50.00000   90.00000   90.00000   90.00000
LATT -1
SFAC C  
C      1  0.4739780000000  0.5908780000000  0.5680980000000 1.0
C      1  0.4877790000000  0.5895880000000  0.4400960000000 1.0
C      1  0.4882680000000  0.4714040000000  0.3941420000000 1.0
C      1  0.4885620000000  0.3907760000000  0.4930810000000 1.0
C      1  0.4925400000000  0.4660940000000  0.6013900000000 1.0
C      1  0.4368120000000  0.4571900000000  0.6352510000000 1.0
C      1  0.4190030000000  0.6209630000000  0.5728580000000 1.0
C      1  0.4298810000000  0.6127170000000  0.4228610000000 1.0
C      1  0.4301110000000  0.4638010000000  0.3672980000000 1.0
C      1  0.4232810000000  0.3767000000000  0.4985070000000 1.0
C      1  0.4902280000000  0.6114350000000  0.5763400000000 1.0
C      1  0.5167530000000  0.5889950000000  0.4385190000000 1.0
C      1  0.5171100000000  0.4684960000000  0.3934670000000 1.0
C      1  0.5171470000000  0.3893770000000  0.4957070000000 1.0
C      1  0.5220350000000  0.4675820000000  0.6038070000000 1.0
C      1  0.4129970000000  0.6411520000000  0.5882040000000 1.0
C      1  0.4231270000000  0.6371930000000  0.4169950000000 1.0
C      1  0.4230670000000  0.4677290000000  0.3425180000000 1.0
C      1  0.4081930000000  0.3598620000000  0.4855500000000 1.0
C      1  0.4310970000000  0.4416460000000  0.6553710000000 1.0
C      1  0.5961760000000  0.4760770000000  0.5462500000000 1.0
C      1  0.5992280000000  0.5321120000000  0.5366400000000 1.0
C      1  0.6025120000000  0.5416040000000  0.4754520000000 1.0
C      1  0.6036440000000  0.4848330000000  0.4509560000000 1.0
C      1  0.6008550000000  0.4462880000000  0.4958680000000 1.0
C      1  0.4619640000000  0.5140700000000  0.5792630000000 1.0
C      1  0.4567050000000  0.5727900000000  0.5060380000000 1.0
C      1  0.4606410000000  0.5312130000000  0.4321360000000 1.0
C      1  0.4626380000000  0.4441120000000  0.4452500000000 1.0
C      1  0.4564980000000  0.4357790000000  0.5316350000000 1.0
C      1  0.6052950000000  0.4337520000000  0.5214670000000 1.0
C      1  0.5935180000000  0.4923350000000  0.5694190000000 1.0
C      1  0.6017490000000  0.5597260000000  0.5251840000000 1.0
C      1  0.6082440000000  0.5354420000000  0.4469390000000 1.0
C      1  0.6083050000000  0.4562930000000  0.4476430000000 1.0
C      1  0.5096660000000  0.5258430000000  0.4392160000000 1.0
C      1  0.5103980000000  0.4515740000000  0.4528420000000 1.0
C      1  0.5063960000000  0.4481120000000  0.5274200000000 1.0
C      1  0.5112940000000  0.5148140000000  0.5614470000000 1.0
C      1  0.5057810000000  0.5608580000000  0.5043580000000 1.0
C      1  0.4635810000000  0.5497420000000  0.5220220000000 1.0
C      1  0.4676730000000  0.5417870000000  0.4605880000000 1.0
C      1  0.4685640000000  0.4748760000000  0.4452430000000 1.0
C      1  0.4689640000000  0.4390120000000  0.4976250000000 1.0
C      1  0.4604800000000  0.4903930000000  0.5602080000000 1.0
C      1  0.4853050000000  0.4042890000000  0.5633090000000 1.0
C      1  0.4882460000000  0.5344690000000  0.6142330000000 1.0
C      1  0.4770220000000  0.6168980000000  0.5082400000000 1.0
C      1  0.4820720000000  0.5449090000000  0.3898180000000 1.0
C      1  0.4827570000000  0.4079960000000  0.4203000000000 1.0
C      1  0.5474890000000  0.4204060000000  0.5281770000000 1.0
C      1  0.5384720000000  0.5112770000000  0.6059840000000 1.0
C      1  0.5425290000000  0.5803730000000  0.5264130000000 1.0
C      1  0.5510300000000  0.5486360000000  0.4267870000000 1.0
C      1  0.5515630000000  0.4444160000000  0.4286050000000 1.0
C      1  0.5219870000000  0.6043590000000  0.4910550000000 1.0
C      1  0.5259820000000  0.5226340000000  0.3943260000000 1.0
C      1  0.5256430000000  0.4066310000000  0.4439230000000 1.0
C      1  0.5264380000000  0.4284710000000  0.5693460000000 1.0
C      1  0.5276740000000  0.5524030000000  0.5891520000000 1.0
C      1  0.5823400000000  0.4907360000000  0.4722260000000 1.0
C      1  0.5814570000000  0.4700290000000  0.4965260000000 1.0
C      1  0.5796070000000  0.4861270000000  0.5230430000000 1.0
C      1  0.5802870000000  0.5169070000000  0.5171910000000 1.0
C      1  0.5815600000000  0.5209460000000  0.4849970000000 1.0
C      1  0.5111120000000  0.5447480000000  0.4820070000000 1.0
C      1  0.5120000000000  0.4988900000000  0.4478640000000 1.0
C      1  0.5115760000000  0.4531460000000  0.4808180000000 1.0
C      1  0.5043300000000  0.4779610000000  0.5300800000000 1.0
C      1  0.5084530000000  0.5276960000000  0.5359290000000 1.0
C      1  0.5570450000000  0.4877440000000  0.4535720000000 1.0
C      1  0.5550950000000  0.4540800000000  0.4934750000000 1.0
C      1  0.5518280000000  0.4806920000000  0.5342930000000 1.0
C      1  0.5537450000000  0.5307930000000  0.5257440000000 1.0
C      1  0.5562070000000  0.5364660000000  0.4745560000000 1.0
C      1  0.4630190000000  0.5032070000000  0.5348770000000 1.0
C      1  0.4482730000000  0.5268860000000  0.5281460000000 1.0
C      1  0.4598010000000  0.5235860000000  0.4813410000000 1.0
C      1  0.4595080000000  0.4810110000000  0.4721000000000 1.0
C      1  0.4811410000000  0.4921820000000  0.5160940000000 1.0
C      1  0.4384780000000  0.4602650000000  0.3937720000000 1.0
C      1  0.4395780000000  0.3952380000000  0.5113120000000 1.0
C      1  0.4435480000000  0.4734950000000  0.6133980000000 1.0
C      1  0.4264090000000  0.5994150000000  0.5566870000000 1.0
C      1  0.4379260000000  0.5868190000000  0.4297370000000 1.0
C      1  0.5295080000000  0.4872230000000  0.5151020000000 1.0
C      1  0.5294470000000  0.5172170000000  0.5151930000000 1.0
C      1  0.5313920000000  0.5232440000000  0.4852830000000 1.0
C      1  0.5324570000000  0.4961130000000  0.4694370000000 1.0
C      1  0.5315940000000  0.4730070000000  0.4893900000000 1.0
C      1  0.4296260000000  0.4208540000000  0.5233640000000 1.0
C      1  0.4223780000000  0.4794020000000  0.5941700000000 1.0
C      1  0.4070520000000  0.5808820000000  0.5483900000000 1.0
C      1  0.4188660000000  0.5691320000000  0.4420870000000 1.0
C      1  0.4194380000000  0.4645330000000  0.4149860000000 1.0
C      1  0.4794100000000  0.5935980000000  0.4671470000000 1.0
C      1  0.4808180000000  0.4986520000000  0.3997400000000 1.0
C      1  0.4807760000000  0.4027550000000  0.4678560000000 1.0
C      1  0.4831690000000  0.4489670000000  0.5798650000000 1.0
C      1  0.4779240000000  0.5648170000000  0.5789770000000 1.0
C      1  0.4172530000000  0.4917800000000  0.5213880000000 1.0
C      1  0.4254280000000  0.5184870000000  0.5139990000000 1.0
C      1  0.4321180000000  0.5158320000000  0.4856430000000 1.0
C      1  0.4321290000000  0.4863580000000  0.4782220000000 1.0
C      1  0.4214120000000  0.4736640000000  0.5012950000000 1.0
C      1  0.5947490000000  0.5222590000000  0.5653020000000 1.0
C      1  0.5968880000000  0.5654380000000  0.4944000000000 1.0
C      1  0.6017640000000  0.5080800000000  0.4334520000000 1.0
C      1  0.5988990000000  0.4356420000000  0.4686360000000 1.0
C      1  0.5976390000000  0.4476630000000  0.5473270000000 1.0
C      1  0.5496040000000  0.4667900000000  0.5866160000000 1.0
C      1  0.5672280000000  0.5659600000000  0.5595160000000 1.0
C      1  0.5406640000000  0.5831100000000  0.4544350000000 1.0
C      1  0.5417450000000  0.4805020000000  0.4034430000000 1.0
C      1  0.5408470000000  0.4032300000000  0.4869290000000 1.0
C      1  0.5772330000000  0.5325490000000  0.5883770000000 1.0
C      1  0.5742210000000  0.5888290000000  0.4926430000000 1.0
C      1  0.5772900000000  0.5156890000000  0.4081670000000 1.0
C      1  0.5768900000000  0.4164650000000  0.4550950000000 1.0
C      1  0.5766370000000  0.4313520000000  0.5625040000000 1.0
C      1  0.4937210000000  0.6107740000000  0.4855980000000 1.0
C      1  0.4968920000000  0.5204040000000  0.3885970000000 1.0
C      1  0.4970980000000  0.3993850000000  0.4437510000000 1.0
C      1  0.4987640000000  0.4249650000000  0.5769340000000 1.0
C      1  0.4993830000000  0.5576310000000  0.5978720000000 1.0
C      1  0.3764200000000  0.4862330000000  0.4807990000000 1.0
C      1  0.3739150000000  0.4722720000000  0.5071530000000 1.0
C      1  0.3733390000000  0.4924900000000  0.5292260000000 1.0
C      1  0.3725940000000  0.5186990000000  0.5155200000000 1.0
C      1  0.3762710000000  0.5153030000000  0.4864760000000 1.0
C      1  0.4688540000000  0.4326390000000  0.4192650000000 1.0
C      1  0.4741030000000  0.4074130000000  0.5383460000000 1.0
C      1  0.4740050000000  0.5106300000000  0.6053180000000 1.0
C      1  0.4600060000000  0.5976720000000  0.5207940000000 1.0
C      1  0.4672750000000  0.5525030000000  0.4127540000000 1.0
C      1  0.5251680000000  0.4312700000000  0.5407470000000 1.0
C      1  0.5246680000000  0.5236560000000  0.5845490000000 1.0
C      1  0.5204860000000  0.5835650000000  0.5107510000000 1.0
C      1  0.5270130000000  0.5363560000000  0.4195770000000 1.0
C      1  0.5272100000000  0.4346100000000  0.4379550000000 1.0
C      1  0.4630000000000  0.5726570000000  0.4778900000000 1.0
C      1  0.4641530000000  0.5033630000000  0.4237720000000 1.0
C      1  0.4650360000000  0.4281150000000  0.4705770000000 1.0
C      1  0.4643670000000  0.4590940000000  0.5585850000000 1.0
C      1  0.4609500000000  0.5422120000000  0.5727600000000 1.0
C      1  0.4981360000000  0.4748570000000  0.4432830000000 1.0
C      1  0.4959610000000  0.4433870000000  0.5016270000000 1.0
C      1  0.5127000000000  0.4869590000000  0.5576210000000 1.0
C      1  0.4918230000000  0.5473690000000  0.5248940000000 1.0
C      1  0.4971350000000  0.5422770000000  0.4582490000000 1.0
C      1  0.3860230000000  0.5355220000000  0.4689280000000 1.0
C      1  0.3858630000000  0.4757120000000  0.4560000000000 1.0
C      1  0.3831700000000  0.4461890000000  0.5130620000000 1.0
C      1  0.3845200000000  0.4877950000000  0.5555570000000 1.0
C      1  0.3758200000000  0.5431200000000  0.5286740000000 1.0
C      1  0.5492510000000  0.5556900000000  0.5389840000000 1.0
C      1  0.5520510000000  0.5569040000000  0.4536690000000 1.0
C      1  0.5528890000000  0.4725300000000  0.4285920000000 1.0
C      1  0.5497470000000  0.4262700000000  0.5010050000000 1.0
C      1  0.5399420000000  0.4779140000000  0.5599250000000 1.0
C      1  0.4536080000000  0.5966690000000  0.5486220000000 1.0
C      1  0.4654690000000  0.5787830000000  0.4239090000000 1.0
C      1  0.4662400000000  0.4522580000000  0.3985610000000 1.0
C      1  0.4688810000000  0.3919960000000  0.5146580000000 1.0
C      1  0.4715250000000  0.4830890000000  0.6120640000000 1.0
C      1  0.5995270000000  0.4436810000000  0.4230440000000 1.0
C      1  0.5938330000000  0.4073290000000  0.5257230000000 1.0
C      1  0.5744550000000  0.4848530000000  0.5911050000000 1.0
C      1  0.5867650000000  0.5794540000000  0.5415520000000 1.0
C      1  0.5987820000000  0.5540340000000  0.4266580000000 1.0
C      1  0.5754450000000  0.4293000000000  0.4281400000000 1.0
C      1  0.5704160000000  0.4109280000000  0.5419980000000 1.0
C      1  0.5664310000000  0.5098840000000  0.6032920000000 1.0
C      1  0.5684700000000  0.5932440000000  0.5217630000000 1.0
C      1  0.5753990000000  0.5441000000000  0.4135930000000 1.0
C      1  0.5482550000000  0.5981470000000  0.4775210000000 1.0
C      1  0.5511320000000  0.5061160000000  0.3952680000000 1.0
C      1  0.5504440000000  0.4021780000000  0.4602430000000 1.0
C      1  0.5532030000000  0.4376910000000  0.5788520000000 1.0
C      1  0.5586130000000  0.5555800000000  0.5845710000000 1.0
C      1  0.3888760000000  0.5636200000000  0.5395170000000 1.0
C      1  0.4013470000000  0.5529450000000  0.4549240000000 1.0
C      1  0.4014050000000  0.4695860000000  0.4346040000000 1.0
C      1  0.4034330000000  0.4304610000000  0.5210950000000 1.0
C      1  0.4024620000000  0.4834680000000  0.5758190000000 1.0
C      1  0.4745670000000  0.4989760000000  0.4887350000000 1.0
END
