TITL C-3201376-6384-171 25.4944441530022 125000 -491.15420306232 0 0 84 (C1) n - 1
REM
REM in /home/nfs/bkarasulu/CARBON/AIRSS/Generating-Clusters/LCBOP/Higher-Symm/SD-CG/FIRE-CG
REM
REM
REM
REM
REM
REM ./C.cell (b20cbc046b6831c77cfcea5457e17084)
REM AIRSS Version 0.9.1 bugfix July 2018 build 013d7b7c2542+ Fri, 06 Jul 2018 19:26:36 +0100
REM compiler GCC version 9.2.1 20190827 (Red Hat 9.2.1-1)
REM options -cpp -mtune=generic -march=x86-64 -g -O0 -fpre-include=/usr/include/finclude/math-vector-fortran.h
REM seed -242704550 -1604458626 -719156052 -1724730645 1059404377 1132415839 -574174812 -1911210602 1954203042 -311584349 -660080255 1556830 738774703 -1249948544 -761467686 -1553012810 -279116736 499075998 809933551 1126436146 980940427 -2122508518 1329199850 -1877732111 -1640636060 -1208971949 1033325297 301232676 -1751317451 100411120 -146902845 1406087202 1525283750
REM
CELL 1.54180   50.00000   50.00000   50.00000   90.00000   90.00000   90.00000
LATT -1
SFAC C  
C      1  0.4769970000000  0.4671430000000  0.5287390000000 1.0
C      1  0.5204350000000  0.4663480000000  0.5313440000000 1.0
C      1  0.5389390000000  0.4688630000000  0.4851270000000 1.0
C      1  0.4986610000000  0.4695910000000  0.4638170000000 1.0
C      1  0.4605660000000  0.4667000000000  0.4847590000000 1.0
C      1  0.4690710000000  0.5391440000000  0.4651710000000 1.0
C      1  0.5185680000000  0.5371510000000  0.4718610000000 1.0
C      1  0.5432120000000  0.5338080000000  0.5153730000000 1.0
C      1  0.4961460000000  0.5365180000000  0.5384000000000 1.0
C      1  0.4538340000000  0.5370630000000  0.5146230000000 1.0
C      1  0.5393320000000  0.4268590000000  0.5041380000000 1.0
C      1  0.5126590000000  0.4262720000000  0.4635380000000 1.0
C      1  0.4475290000000  0.4236740000000  0.4625910000000 1.0
C      1  0.4819480000000  0.4210480000000  0.5132070000000 1.0
C      1  0.5270160000000  0.4267590000000  0.5609440000000 1.0
C      1  0.5532380000000  0.5744180000000  0.4970010000000 1.0
C      1  0.5252550000000  0.5726510000000  0.5312530000000 1.0
C      1  0.4859820000000  0.5762040000000  0.5130020000000 1.0
C      1  0.4879110000000  0.5859500000000  0.4707930000000 1.0
C      1  0.5292970000000  0.5778450000000  0.4608490000000 1.0
C      1  0.4179850000000  0.4722280000000  0.5243750000000 1.0
C      1  0.5033820000000  0.4853070000000  0.5841650000000 1.0
C      1  0.5830800000000  0.4842100000000  0.5267960000000 1.0
C      1  0.5489770000000  0.4841010000000  0.4331870000000 1.0
C      1  0.4474010000000  0.4831510000000  0.4294160000000 1.0
C      1  0.4120380000000  0.5080460000000  0.4731840000000 1.0
C      1  0.4999780000000  0.5163740000000  0.4184220000000 1.0
C      1  0.5834640000000  0.5131980000000  0.4749460000000 1.0
C      1  0.5521430000000  0.5180240000000  0.5676650000000 1.0
C      1  0.4466360000000  0.5046400000000  0.5686600000000 1.0
C      1  0.4312850000000  0.4686450000000  0.4496600000000 1.0
C      1  0.4372480000000  0.4582310000000  0.5441380000000 1.0
C      1  0.5287070000000  0.4737970000000  0.5760600000000 1.0
C      1  0.5796730000000  0.4685470000000  0.5019640000000 1.0
C      1  0.5236740000000  0.4701780000000  0.4271440000000 1.0
C      1  0.4248560000000  0.5126530000000  0.5516770000000 1.0
C      1  0.4250120000000  0.5210710000000  0.4502170000000 1.0
C      1  0.5256180000000  0.5308180000000  0.4279520000000 1.0
C      1  0.5839950000000  0.5284400000000  0.4997940000000 1.0
C      1  0.5257530000000  0.5320240000000  0.5713930000000 1.0
C      1  0.5005740000000  0.4862690000000  0.4161470000000 1.0
C      1  0.4123270000000  0.4790290000000  0.4703620000000 1.0
C      1  0.4510720000000  0.4750270000000  0.5680380000000 1.0
C      1  0.5528670000000  0.4889370000000  0.5707780000000 1.0
C      1  0.5830130000000  0.4836540000000  0.4754530000000 1.0
C      1  0.5005480000000  0.5150380000000  0.5821230000000 1.0
C      1  0.4138270000000  0.5015800000000  0.5274710000000 1.0
C      1  0.4455360000000  0.5125010000000  0.4306960000000 1.0
C      1  0.5498140000000  0.5136160000000  0.4328650000000 1.0
C      1  0.5859700000000  0.5135940000000  0.5256840000000 1.0
C      1  0.4082030000000  0.5151150000000  0.5015750000000 1.0
C      1  0.4704740000000  0.5197640000000  0.5787150000000 1.0
C      1  0.5742430000000  0.5264160000000  0.5500680000000 1.0
C      1  0.5710430000000  0.5235730000000  0.4506060000000 1.0
C      1  0.4710760000000  0.5250110000000  0.4204770000000 1.0
C      1  0.4105920000000  0.4648880000000  0.4967280000000 1.0
C      1  0.4730200000000  0.4748970000000  0.4175340000000 1.0
C      1  0.5703240000000  0.4732730000000  0.4505330000000 1.0
C      1  0.5725550000000  0.4763470000000  0.5527590000000 1.0
C      1  0.4777670000000  0.4704110000000  0.5807960000000 1.0
C      1  0.4569960000000  0.4959630000000  0.4870370000000 1.0
C      1  0.4732790000000  0.4950140000000  0.5302780000000 1.0
C      1  0.5208050000000  0.4951100000000  0.5323260000000 1.0
C      1  0.5348710000000  0.4958810000000  0.4886370000000 1.0
C      1  0.4962300000000  0.4974810000000  0.4622790000000 1.0
C      1  0.4569190000000  0.5088340000000  0.5121160000000 1.0
C      1  0.4721620000000  0.5110220000000  0.4683030000000 1.0
C      1  0.5184110000000  0.5101210000000  0.4722350000000 1.0
C      1  0.5370440000000  0.5071960000000  0.5138460000000 1.0
C      1  0.4964950000000  0.5088600000000  0.5363890000000 1.0
C      1  0.4469270000000  0.4506220000000  0.4655440000000 1.0
C      1  0.4605370000000  0.4444640000000  0.5310110000000 1.0
C      1  0.5255860000000  0.4534010000000  0.5559860000000 1.0
C      1  0.5558560000000  0.4506360000000  0.4991200000000 1.0
C      1  0.5137270000000  0.4513470000000  0.4477840000000 1.0
C      1  0.4651870000000  0.5614560000000  0.5156210000000 1.0
C      1  0.4738740000000  0.5655470000000  0.4637890000000 1.0
C      1  0.5244990000000  0.5527030000000  0.4486520000000 1.0
C      1  0.5633260000000  0.5491860000000  0.5026720000000 1.0
C      1  0.5175270000000  0.5516910000000  0.5497060000000 1.0
C      1  0.4882620000000  0.4599250000000  0.4874220000000 1.0
C      1  0.4997120000000  0.4606680000000  0.5131260000000 1.0
C      1  0.5119310000000  0.4206060000000  0.4933500000000 1.0
C      1  0.5180260000000  0.5806330000000  0.4958830000000 1.0
END
