TITL C-3201374-830-52 0.669285019865736 125000 -252.124732136473 0 0 43 (C1) n - 1
REM
REM in /home/nfs/bkarasulu/CARBON/AIRSS/Generating-Clusters/LCBOP/Higher-Symm/SD-CG/FIRE-CG
REM
REM
REM
REM
REM
REM ./C.cell (b20cbc046b6831c77cfcea5457e17084)
REM AIRSS Version 0.9.1 bugfix July 2018 build 013d7b7c2542+ Fri, 06 Jul 2018 19:26:36 +0100
REM compiler GCC version 9.2.1 20190827 (Red Hat 9.2.1-1)
REM options -cpp -mtune=generic -march=x86-64 -g -O0 -fpre-include=/usr/include/finclude/math-vector-fortran.h
REM seed 1473835761 -970352471 -505186983 -527144825 416552739 408717643 1233604593 1266468096 1862584613 -1024424502 2010248612 -1685971179 -1740283353 -349859517 -1011009289 -18913839 -334424933 75075544 -709243001 -820580097 10423793 1591244313 -1355004620 -901743923 -1669773910 -874498919 58886285 4234011 32706422 -2121940587 1458938240 -809151785 -107380186
REM
CELL 1.54180   50.00000   50.00000   50.00000   90.00000   90.00000   90.00000
LATT -1
SFAC C  
C      1  0.4596410000000  0.5446010000000  0.5330800000000 1.0
C      1  0.5227920000000  0.4515300000000  0.5172230000000 1.0
C      1  0.5905860000000  0.4795880000000  0.5660070000000 1.0
C      1  0.4555880000000  0.4965930000000  0.5199740000000 1.0
C      1  0.5383970000000  0.4457650000000  0.5631100000000 1.0
C      1  0.4457160000000  0.4846860000000  0.4958370000000 1.0
C      1  0.5762210000000  0.5442330000000  0.5027350000000 1.0
C      1  0.4320930000000  0.5145830000000  0.3828670000000 1.0
C      1  0.4367730000000  0.4234200000000  0.5308230000000 1.0
C      1  0.4408110000000  0.4359860000000  0.5542980000000 1.0
C      1  0.4724800000000  0.5685700000000  0.5316310000000 1.0
C      1  0.4391240000000  0.5007220000000  0.4739030000000 1.0
C      1  0.5315960000000  0.4653120000000  0.4936750000000 1.0
C      1  0.5866650000000  0.4868050000000  0.5390350000000 1.0
C      1  0.4687550000000  0.5214830000000  0.5191160000000 1.0
C      1  0.5442740000000  0.4587030000000  0.5376490000000 1.0
C      1  0.4234570000000  0.5275290000000  0.4291640000000 1.0
C      1  0.4240530000000  0.5025350000000  0.3612010000000 1.0
C      1  0.5538500000000  0.5533040000000  0.4918010000000 1.0
C      1  0.5216490000000  0.5580880000000  0.4557060000000 1.0
C      1  0.4524330000000  0.4835620000000  0.5446780000000 1.0
C      1  0.4377450000000  0.4332050000000  0.5058170000000 1.0
C      1  0.4418960000000  0.4568930000000  0.4941520000000 1.0
C      1  0.5643500000000  0.4760130000000  0.5255880000000 1.0
C      1  0.5274750000000  0.5546990000000  0.4828230000000 1.0
C      1  0.4924400000000  0.5263420000000  0.5040190000000 1.0
C      1  0.4948400000000  0.5721240000000  0.5165030000000 1.0
C      1  0.4473270000000  0.4616170000000  0.5590500000000 1.0
C      1  0.5551760000000  0.4791500000000  0.4982470000000 1.0
C      1  0.3998730000000  0.5414000000000  0.4288550000000 1.0
C      1  0.4652420000000  0.5399840000000  0.4075200000000 1.0
C      1  0.4403210000000  0.5274200000000  0.4062520000000 1.0
C      1  0.4881580000000  0.5497380000000  0.4165820000000 1.0
C      1  0.5061690000000  0.5511520000000  0.5009190000000 1.0
C      1  0.5935540000000  0.5280090000000  0.5145220000000 1.0
C      1  0.5052610000000  0.4344150000000  0.5321650000000 1.0
C      1  0.5078500000000  0.5561340000000  0.4331500000000 1.0
C      1  0.4314380000000  0.5135300000000  0.4520290000000 1.0
C      1  0.6311080000000  0.4997570000000  0.5247900000000 1.0
C      1  0.5784850000000  0.4647670000000  0.5848420000000 1.0
C      1  0.5140550000000  0.4311280000000  0.5582600000000 1.0
C      1  0.5559920000000  0.4499900000000  0.5842610000000 1.0
C      1  0.6042920000000  0.5049380000000  0.5261430000000 1.0
END
