TITL C-3201372-1405-757 0.000230547932802621 125000 -709.741760956232 0 0 118 (C1) n - 1
REM
REM in /home/nfs/bkarasulu/CARBON/AIRSS/Generating-Clusters/LCBOP/Higher-Symm/SD-CG/FIRE-CG
REM
REM
REM
REM
REM
REM ./C.cell (b20cbc046b6831c77cfcea5457e17084)
REM AIRSS Version 0.9.1 bugfix July 2018 build 013d7b7c2542+ Fri, 06 Jul 2018 19:26:36 +0100
REM compiler GCC version 9.2.1 20190827 (Red Hat 9.2.1-1)
REM options -cpp -mtune=generic -march=x86-64 -g -O0 -fpre-include=/usr/include/finclude/math-vector-fortran.h
REM seed 1774318026 -1830736681 1558531581 -1791645743 1665655814 -1170644399 1825495746 -1749045538 429021552 263289836 -1015093866 98022058 -493276713 941835785 102324187 -211772037 709713207 721797956 -1025117528 -1128498548 611934644 -836429933 -366687294 988932026 -1890729027 -770486512 -1304601174 -225713334 -1256702634 1665459932 1118603040 589448472 -256193835
REM
CELL 1.54180   50.00000   50.00000   50.00000   90.00000   90.00000   90.00000
LATT -1
SFAC C  
C      1  0.4864840000000  0.5159480000000  0.5623420000000 1.0
C      1  0.4842960000000  0.4762910000000  0.4306870000000 1.0
C      1  0.5179120000000  0.4746630000000  0.5585740000000 1.0
C      1  0.5183690000000  0.5169220000000  0.4233160000000 1.0
C      1  0.6043390000000  0.4037180000000  0.5210590000000 1.0
C      1  0.5955820000000  0.5942250000000  0.5012450000000 1.0
C      1  0.4043150000000  0.5868990000000  0.4934620000000 1.0
C      1  0.4113500000000  0.3956800000000  0.5000800000000 1.0
C      1  0.4174940000000  0.5416340000000  0.5044140000000 1.0
C      1  0.4578720000000  0.4077750000000  0.4954910000000 1.0
C      1  0.5931950000000  0.4511690000000  0.5182920000000 1.0
C      1  0.5507410000000  0.5782080000000  0.4938840000000 1.0
C      1  0.5841420000000  0.4224500000000  0.5172140000000 1.0
C      1  0.5789900000000  0.5722130000000  0.4988370000000 1.0
C      1  0.4252270000000  0.5694760000000  0.4985060000000 1.0
C      1  0.4298780000000  0.4161430000000  0.4984600000000 1.0
C      1  0.4507890000000  0.5365870000000  0.6034510000000 1.0
C      1  0.4834600000000  0.4775130000000  0.3803440000000 1.0
C      1  0.5308040000000  0.4717520000000  0.6093080000000 1.0
C      1  0.4558780000000  0.5787350000000  0.3606620000000 1.0
C      1  0.4694990000000  0.4547750000000  0.4367880000000 1.0
C      1  0.5297860000000  0.4589370000000  0.5406900000000 1.0
C      1  0.5431440000000  0.5231800000000  0.4357670000000 1.0
C      1  0.4700430000000  0.5354650000000  0.5549890000000 1.0
C      1  0.5299910000000  0.5881090000000  0.5391810000000 1.0
C      1  0.4191480000000  0.5206840000000  0.4609750000000 1.0
C      1  0.4723590000000  0.4134890000000  0.5418110000000 1.0
C      1  0.5921710000000  0.4612350000000  0.4723640000000 1.0
C      1  0.4666660000000  0.5812520000000  0.4722100000000 1.0
C      1  0.4174030000000  0.4570640000000  0.5252720000000 1.0
C      1  0.5452930000000  0.4066970000000  0.4860560000000 1.0
C      1  0.6005600000000  0.5367490000000  0.5274890000000 1.0
C      1  0.5204670000000  0.5630240000000  0.5483910000000 1.0
C      1  0.4472300000000  0.5190290000000  0.4578400000000 1.0
C      1  0.4745140000000  0.4416830000000  0.5429790000000 1.0
C      1  0.5642040000000  0.4624330000000  0.4686820000000 1.0
C      1  0.5920330000000  0.5461990000000  0.5012500000000 1.0
C      1  0.4521490000000  0.5811860000000  0.4974380000000 1.0
C      1  0.4191710000000  0.4432060000000  0.4997880000000 1.0
C      1  0.5568140000000  0.4108110000000  0.5127440000000 1.0
C      1  0.4564110000000  0.5251150000000  0.4312410000000 1.0
C      1  0.4697270000000  0.4544660000000  0.5686630000000 1.0
C      1  0.5561860000000  0.4725620000000  0.4429780000000 1.0
C      1  0.5192260000000  0.5550460000000  0.5763410000000 1.0
C      1  0.6038890000000  0.4688090000000  0.4968600000000 1.0
C      1  0.5289950000000  0.5932570000000  0.5107990000000 1.0
C      1  0.4072220000000  0.5193500000000  0.4866310000000 1.0
C      1  0.4780920000000  0.3999330000000  0.5173340000000 1.0
C      1  0.5113740000000  0.5622400000000  0.4777710000000 1.0
C      1  0.4350230000000  0.5031830000000  0.5242130000000 1.0
C      1  0.4976340000000  0.4219340000000  0.4789060000000 1.0
C      1  0.5797380000000  0.4952790000000  0.5407300000000 1.0
C      1  0.5502920000000  0.5182290000000  0.5988850000000 1.0
C      1  0.4656650000000  0.5730720000000  0.4100030000000 1.0
C      1  0.4348800000000  0.4916730000000  0.5842500000000 1.0
C      1  0.5270370000000  0.4567500000000  0.4009330000000 1.0
C      1  0.5436060000000  0.4582560000000  0.4220680000000 1.0
C      1  0.5410660000000  0.5406580000000  0.5874830000000 1.0
C      1  0.4640880000000  0.5515990000000  0.4256280000000 1.0
C      1  0.4467960000000  0.4704300000000  0.5731600000000 1.0
C      1  0.5025500000000  0.4691990000000  0.6099680000000 1.0
C      1  0.4502280000000  0.5578690000000  0.3449700000000 1.0
C      1  0.4784720000000  0.5392560000000  0.6089980000000 1.0
C      1  0.4630440000000  0.4970830000000  0.3833780000000 1.0
C      1  0.4878260000000  0.4538010000000  0.5909760000000 1.0
C      1  0.5595410000000  0.5004710000000  0.4390370000000 1.0
C      1  0.4961330000000  0.5553830000000  0.5933530000000 1.0
C      1  0.4548680000000  0.5076820000000  0.4086440000000 1.0
C      1  0.5747700000000  0.4684700000000  0.5321330000000 1.0
C      1  0.5388530000000  0.5633410000000  0.4717600000000 1.0
C      1  0.4297120000000  0.5307500000000  0.5278090000000 1.0
C      1  0.4710030000000  0.4165850000000  0.4711380000000 1.0
C      1  0.4768600000000  0.4815870000000  0.5147390000000 1.0
C      1  0.5190200000000  0.4624860000000  0.4846670000000 1.0
C      1  0.5375410000000  0.5224300000000  0.5285560000000 1.0
C      1  0.4888600000000  0.5243700000000  0.4845320000000 1.0
C      1  0.5354120000000  0.3963210000000  0.5568320000000 1.0
C      1  0.6069080000000  0.5248010000000  0.4577480000000 1.0
C      1  0.4668940000000  0.6049770000000  0.5401280000000 1.0
C      1  0.4002110000000  0.4589890000000  0.4553200000000 1.0
C      1  0.4488470000000  0.5312310000000  0.3455860000000 1.0
C      1  0.4884780000000  0.5174210000000  0.6239930000000 1.0
C      1  0.4529390000000  0.5093770000000  0.3602380000000 1.0
C      1  0.4901820000000  0.4906310000000  0.6237300000000 1.0
C      1  0.4069960000000  0.4638870000000  0.4812060000000 1.0
C      1  0.5335340000000  0.4006080000000  0.5300590000000 1.0
C      1  0.6006510000000  0.5227300000000  0.4841630000000 1.0
C      1  0.4725560000000  0.5951820000000  0.5154210000000 1.0
C      1  0.4812140000000  0.4538020000000  0.5168900000000 1.0
C      1  0.5461830000000  0.4607040000000  0.4919920000000 1.0
C      1  0.5188110000000  0.5442850000000  0.5260870000000 1.0
C      1  0.4620320000000  0.5151910000000  0.4830320000000 1.0
C      1  0.5260370000000  0.5018710000000  0.5139510000000 1.0
C      1  0.5055720000000  0.5086700000000  0.4687260000000 1.0
C      1  0.5008130000000  0.4948900000000  0.5170830000000 1.0
C      1  0.5125340000000  0.4832820000000  0.4679770000000 1.0
C      1  0.4353430000000  0.5160760000000  0.5952930000000 1.0
C      1  0.5061330000000  0.4639570000000  0.3855750000000 1.0
C      1  0.5476110000000  0.4925490000000  0.6060600000000 1.0
C      1  0.4622740000000  0.5841610000000  0.3860090000000 1.0
C      1  0.5036350000000  0.5442740000000  0.4994560000000 1.0
C      1  0.4559290000000  0.4978680000000  0.5056750000000 1.0
C      1  0.4991950000000  0.4453980000000  0.4949190000000 1.0
C      1  0.5584260000000  0.5136340000000  0.5450180000000 1.0
C      1  0.6064950000000  0.4979200000000  0.5010390000000 1.0
C      1  0.5001840000000  0.5979330000000  0.5017530000000 1.0
C      1  0.4027290000000  0.4908840000000  0.4951680000000 1.0
C      1  0.5079290000000  0.3952800000000  0.5136460000000 1.0
C      1  0.5495110000000  0.4616270000000  0.5210660000000 1.0
C      1  0.5475690000000  0.5468240000000  0.4507420000000 1.0
C      1  0.4467130000000  0.5439530000000  0.5453360000000 1.0
C      1  0.4622740000000  0.4322430000000  0.4495420000000 1.0
C      1  0.4946530000000  0.5848160000000  0.4757850000000 1.0
C      1  0.4134720000000  0.4850680000000  0.5221910000000 1.0
C      1  0.5169110000000  0.4025910000000  0.4862770000000 1.0
C      1  0.6019110000000  0.5079790000000  0.5283620000000 1.0
C      1  0.5038760000000  0.4962190000000  0.5654310000000 1.0
C      1  0.4997500000000  0.4973890000000  0.4236320000000 1.0
END
