TITL C-3201377-4638-1085 0.23077794084177 125000 -1115.98904660041 0 0 182 (C1) n - 1
REM
REM in /home/nfs/bkarasulu/CARBON/AIRSS/Generating-Clusters/LCBOP/Higher-Symm/SD-CG/FIRE-CG
REM
REM
REM
REM
REM
REM ./C.cell (b20cbc046b6831c77cfcea5457e17084)
REM AIRSS Version 0.9.1 bugfix July 2018 build 013d7b7c2542+ Fri, 06 Jul 2018 19:26:36 +0100
REM compiler GCC version 9.2.1 20190827 (Red Hat 9.2.1-1)
REM options -cpp -mtune=generic -march=x86-64 -g -O0 -fpre-include=/usr/include/finclude/math-vector-fortran.h
REM seed 1165672387 2047318036 1972191586 318543427 31591109 -1100933187 667958142 -2134955846 575926903 1144865268 -477021431 2052966499 17832775 403290917 894529964 -268414391 -1126828506 1035859005 1425733520 1969936140 -1496984576 1059811198 -2129929565 519116529 -1618487500 1166395193 1595774218 309722958 1486799008 -865104588 -1556677336 1775220387 -1523913831
REM
CELL 1.54180   50.00000   50.00000   50.00000   90.00000   90.00000   90.00000
LATT -1
SFAC C  
C      1  0.5963440000000  0.4331910000000  0.4282290000000 1.0
C      1  0.4390950000000  0.5107480000000  0.5473510000000 1.0
C      1  0.4574210000000  0.4630620000000  0.6272310000000 1.0
C      1  0.5287170000000  0.4163390000000  0.6516040000000 1.0
C      1  0.4976450000000  0.6190420000000  0.4672360000000 1.0
C      1  0.6091460000000  0.4934200000000  0.4744430000000 1.0
C      1  0.3873140000000  0.4890860000000  0.5277970000000 1.0
C      1  0.5643610000000  0.6120300000000  0.4894740000000 1.0
C      1  0.5675280000000  0.5330240000000  0.4519900000000 1.0
C      1  0.3755450000000  0.4970810000000  0.5030320000000 1.0
C      1  0.4654270000000  0.5964390000000  0.4939690000000 1.0
C      1  0.5239230000000  0.5165840000000  0.4376390000000 1.0
C      1  0.5652460000000  0.4771000000000  0.4794440000000 1.0
C      1  0.4411020000000  0.4915060000000  0.4993780000000 1.0
C      1  0.5577940000000  0.6014220000000  0.4656350000000 1.0
C      1  0.3988730000000  0.4030190000000  0.4845860000000 1.0
C      1  0.5640760000000  0.6092200000000  0.5178440000000 1.0
C      1  0.4724670000000  0.4231810000000  0.4916210000000 1.0
C      1  0.5036820000000  0.5139830000000  0.5887120000000 1.0
C      1  0.4284340000000  0.5533680000000  0.5025770000000 1.0
C      1  0.4686970000000  0.4785310000000  0.4079090000000 1.0
C      1  0.4218430000000  0.4388250000000  0.4368830000000 1.0
C      1  0.5616900000000  0.4145090000000  0.5912820000000 1.0
C      1  0.5819620000000  0.4144470000000  0.5735960000000 1.0
C      1  0.4469770000000  0.5057810000000  0.4751220000000 1.0
C      1  0.3878070000000  0.5070180000000  0.5501550000000 1.0
C      1  0.3941930000000  0.5480030000000  0.4699240000000 1.0
C      1  0.6282460000000  0.5283750000000  0.5360900000000 1.0
C      1  0.5061890000000  0.4882960000000  0.3767620000000 1.0
C      1  0.5434040000000  0.5736180000000  0.4242710000000 1.0
C      1  0.5614260000000  0.4551600000000  0.5465750000000 1.0
C      1  0.4265100000000  0.5682970000000  0.5523060000000 1.0
C      1  0.5463710000000  0.5460830000000  0.4967540000000 1.0
C      1  0.4858510000000  0.4009150000000  0.4230830000000 1.0
C      1  0.5961140000000  0.5313350000000  0.4543810000000 1.0
C      1  0.4677240000000  0.5485240000000  0.5625350000000 1.0
C      1  0.5565650000000  0.5547720000000  0.4062880000000 1.0
C      1  0.4152290000000  0.5120690000000  0.4211590000000 1.0
C      1  0.5860530000000  0.5948130000000  0.5299980000000 1.0
C      1  0.5533970000000  0.5222570000000  0.5678360000000 1.0
C      1  0.5419830000000  0.4585030000000  0.5272730000000 1.0
C      1  0.5069670000000  0.5613750000000  0.3937510000000 1.0
C      1  0.5275680000000  0.5835010000000  0.5341270000000 1.0
C      1  0.4381650000000  0.5528680000000  0.5977670000000 1.0
C      1  0.5231900000000  0.5573200000000  0.5778680000000 1.0
C      1  0.4503780000000  0.4567960000000  0.5298470000000 1.0
C      1  0.5165920000000  0.5357580000000  0.3847830000000 1.0
C      1  0.5300330000000  0.3337910000000  0.4481780000000 1.0
C      1  0.3946210000000  0.4995760000000  0.5769640000000 1.0
C      1  0.4182980000000  0.4202990000000  0.5267930000000 1.0
C      1  0.5301590000000  0.4508520000000  0.3555950000000 1.0
C      1  0.4303410000000  0.4482480000000  0.5713450000000 1.0
C      1  0.4335690000000  0.5314980000000  0.4184170000000 1.0
C      1  0.5686540000000  0.4964900000000  0.4198520000000 1.0
C      1  0.4424500000000  0.5343600000000  0.4836560000000 1.0
C      1  0.4292630000000  0.4259170000000  0.5889060000000 1.0
C      1  0.5241440000000  0.5736580000000  0.6015180000000 1.0
C      1  0.5422590000000  0.3552530000000  0.4564890000000 1.0
C      1  0.5177030000000  0.5783250000000  0.4123720000000 1.0
C      1  0.4969380000000  0.4759960000000  0.4991630000000 1.0
C      1  0.4871120000000  0.4867780000000  0.5228190000000 1.0
C      1  0.4691040000000  0.5175760000000  0.3722350000000 1.0
C      1  0.5265940000000  0.5289980000000  0.5771500000000 1.0
C      1  0.5091660000000  0.4538390000000  0.4544660000000 1.0
C      1  0.5274220000000  0.5046260000000  0.5100620000000 1.0
C      1  0.6234410000000  0.4541220000000  0.4625290000000 1.0
C      1  0.6222060000000  0.5536610000000  0.4953310000000 1.0
C      1  0.4013760000000  0.4538110000000  0.4952180000000 1.0
C      1  0.3853030000000  0.4962150000000  0.4759690000000 1.0
C      1  0.4476690000000  0.5077030000000  0.5213270000000 1.0
C      1  0.5912670000000  0.5000100000000  0.5444730000000 1.0
C      1  0.4044340000000  0.5519010000000  0.5629380000000 1.0
C      1  0.4828780000000  0.5263780000000  0.6054990000000 1.0
C      1  0.4507790000000  0.5494830000000  0.4316260000000 1.0
C      1  0.4718510000000  0.4226980000000  0.4315830000000 1.0
C      1  0.4570780000000  0.5224000000000  0.5635070000000 1.0
C      1  0.6027500000000  0.5394010000000  0.4815140000000 1.0
C      1  0.5603860000000  0.5074460000000  0.3942560000000 1.0
C      1  0.3861520000000  0.5215280000000  0.4631900000000 1.0
C      1  0.6010030000000  0.5291740000000  0.5808040000000 1.0
C      1  0.4168710000000  0.3732850000000  0.5163230000000 1.0
C      1  0.5137850000000  0.4329170000000  0.3679140000000 1.0
C      1  0.4477150000000  0.5656990000000  0.5730410000000 1.0
C      1  0.5656400000000  0.5309770000000  0.5158280000000 1.0
C      1  0.5189480000000  0.3970240000000  0.4945200000000 1.0
C      1  0.4355050000000  0.5723700000000  0.5247510000000 1.0
C      1  0.4942720000000  0.4076950000000  0.4945910000000 1.0
C      1  0.5914840000000  0.4222290000000  0.5477750000000 1.0
C      1  0.5743970000000  0.5284890000000  0.5867630000000 1.0
C      1  0.3998730000000  0.5519050000000  0.4976430000000 1.0
C      1  0.3886970000000  0.5357500000000  0.5452520000000 1.0
C      1  0.5462210000000  0.3901170000000  0.4904460000000 1.0
C      1  0.6053670000000  0.5759160000000  0.5337840000000 1.0
C      1  0.6245610000000  0.4722040000000  0.4853180000000 1.0
C      1  0.4462960000000  0.5026680000000  0.3769940000000 1.0
C      1  0.4266760000000  0.3937290000000  0.5334960000000 1.0
C      1  0.5893820000000  0.4507880000000  0.5426900000000 1.0
C      1  0.4837870000000  0.4447240000000  0.4450540000000 1.0
C      1  0.6387060000000  0.5053880000000  0.5209720000000 1.0
C      1  0.5264500000000  0.4774280000000  0.3600980000000 1.0
C      1  0.5848260000000  0.4049750000000  0.5262640000000 1.0
C      1  0.5389740000000  0.4185170000000  0.6049970000000 1.0
C      1  0.4343980000000  0.5691180000000  0.4442090000000 1.0
C      1  0.5038700000000  0.5341710000000  0.4767190000000 1.0
C      1  0.5657890000000  0.5163860000000  0.5414420000000 1.0
C      1  0.4744550000000  0.4731570000000  0.5685750000000 1.0
C      1  0.4057800000000  0.4254830000000  0.5001060000000 1.0
C      1  0.5093020000000  0.6386430000000  0.4527090000000 1.0
C      1  0.4846950000000  0.5410200000000  0.5190720000000 1.0
C      1  0.4461220000000  0.4202240000000  0.6094210000000 1.0
C      1  0.5343860000000  0.5670230000000  0.5128470000000 1.0
C      1  0.5663630000000  0.3946560000000  0.5097910000000 1.0
C      1  0.4112620000000  0.5426280000000  0.5898390000000 1.0
C      1  0.5058510000000  0.4733780000000  0.4744950000000 1.0
C      1  0.4762980000000  0.5134670000000  0.5208690000000 1.0
C      1  0.5317930000000  0.4841680000000  0.5260850000000 1.0
C      1  0.4604110000000  0.4883980000000  0.4561740000000 1.0
C      1  0.5550040000000  0.5536200000000  0.4676500000000 1.0
C      1  0.4201830000000  0.4840690000000  0.4192450000000 1.0
C      1  0.5360720000000  0.4454720000000  0.4536300000000 1.0
C      1  0.4238490000000  0.4472910000000  0.5415540000000 1.0
C      1  0.4417530000000  0.4826960000000  0.3980990000000 1.0
C      1  0.4930540000000  0.4285480000000  0.6223330000000 1.0
C      1  0.6069960000000  0.5050800000000  0.4483570000000 1.0
C      1  0.5164190000000  0.6290360000000  0.5258820000000 1.0
C      1  0.6029650000000  0.4745990000000  0.5337790000000 1.0
C      1  0.5085690000000  0.5960330000000  0.5985460000000 1.0
C      1  0.4028150000000  0.4652980000000  0.5241470000000 1.0
C      1  0.6255580000000  0.4794580000000  0.5145400000000 1.0
C      1  0.5201130000000  0.4212020000000  0.6259560000000 1.0
C      1  0.4459560000000  0.4799150000000  0.6074470000000 1.0
C      1  0.5015470000000  0.5307510000000  0.4486900000000 1.0
C      1  0.4121050000000  0.4655270000000  0.4416500000000 1.0
C      1  0.4433860000000  0.4239460000000  0.4304640000000 1.0
C      1  0.4490050000000  0.4686630000000  0.5812060000000 1.0
C      1  0.4976570000000  0.5154820000000  0.3765290000000 1.0
C      1  0.6104980000000  0.5188540000000  0.5563230000000 1.0
C      1  0.5373470000000  0.6100100000000  0.5299090000000 1.0
C      1  0.5942980000000  0.4853270000000  0.4308690000000 1.0
C      1  0.4728270000000  0.4933870000000  0.4314260000000 1.0
C      1  0.4467410000000  0.4639500000000  0.5029340000000 1.0
C      1  0.4687050000000  0.6143030000000  0.5353960000000 1.0
C      1  0.5454090000000  0.5320940000000  0.3913750000000 1.0
C      1  0.4807020000000  0.5758490000000  0.4809750000000 1.0
C      1  0.3835070000000  0.5465180000000  0.5197190000000 1.0
C      1  0.5259850000000  0.5249480000000  0.4914800000000 1.0
C      1  0.6219360000000  0.5544300000000  0.5238570000000 1.0
C      1  0.5453550000000  0.4349330000000  0.4304050000000 1.0
C      1  0.4817530000000  0.6214560000000  0.4910470000000 1.0
C      1  0.5506740000000  0.4530460000000  0.4774430000000 1.0
C      1  0.4580020000000  0.4466830000000  0.4844960000000 1.0
C      1  0.5857010000000  0.5222260000000  0.4980770000000 1.0
C      1  0.6054710000000  0.4578400000000  0.4385970000000 1.0
C      1  0.5090900000000  0.5730800000000  0.5550860000000 1.0
C      1  0.5523710000000  0.5127540000000  0.4387890000000 1.0
C      1  0.4943340000000  0.4419310000000  0.3846600000000 1.0
C      1  0.3994350000000  0.4709860000000  0.4695620000000 1.0
C      1  0.4531230000000  0.5946310000000  0.5197040000000 1.0
C      1  0.5740130000000  0.3912010000000  0.4496170000000 1.0
C      1  0.4967300000000  0.5967400000000  0.5725910000000 1.0
C      1  0.4888700000000  0.6277640000000  0.5183220000000 1.0
C      1  0.5840570000000  0.4958950000000  0.4877720000000 1.0
C      1  0.4449680000000  0.3879920000000  0.5528810000000 1.0
C      1  0.4875570000000  0.5552100000000  0.5437640000000 1.0
C      1  0.4959270000000  0.4880810000000  0.5796400000000 1.0
C      1  0.5508310000000  0.5776510000000  0.4521390000000 1.0
C      1  0.4970170000000  0.5906070000000  0.4619650000000 1.0
C      1  0.4658720000000  0.4360300000000  0.6225630000000 1.0
C      1  0.5542670000000  0.3788800000000  0.4653600000000 1.0
C      1  0.4542680000000  0.5300680000000  0.6091980000000 1.0
C      1  0.4088380000000  0.5655100000000  0.4529260000000 1.0
C      1  0.4756050000000  0.6113570000000  0.5622560000000 1.0
C      1  0.4895090000000  0.4691540000000  0.3911800000000 1.0
C      1  0.4738000000000  0.4687700000000  0.5409470000000 1.0
C      1  0.4357990000000  0.5064050000000  0.6085270000000 1.0
C      1  0.4639610000000  0.4595770000000  0.4604200000000 1.0
C      1  0.4041000000000  0.3777170000000  0.4928180000000 1.0
C      1  0.5428480000000  0.4437770000000  0.5031380000000 1.0
C      1  0.4876120000000  0.5511880000000  0.4923620000000 1.0
C      1  0.4781440000000  0.5423390000000  0.4363260000000 1.0
C      1  0.4104210000000  0.5140910000000  0.5956170000000 1.0
C      1  0.5878730000000  0.4087580000000  0.4351120000000 1.0
END
