TITL C-3201372-1405-1632 -874.005100249941 125000 -1004.93753550455 0 0 167 (C1) n - 1
REM
REM in /home/nfs/bkarasulu/CARBON/AIRSS/Generating-Clusters/LCBOP/Higher-Symm/SD-CG/FIRE-CG
REM
REM
REM
REM
REM
REM ./C.cell (b20cbc046b6831c77cfcea5457e17084)
REM AIRSS Version 0.9.1 bugfix July 2018 build 013d7b7c2542+ Fri, 06 Jul 2018 19:26:36 +0100
REM compiler GCC version 9.2.1 20190827 (Red Hat 9.2.1-1)
REM options -cpp -mtune=generic -march=x86-64 -g -O0 -fpre-include=/usr/include/finclude/math-vector-fortran.h
REM seed -33520970 -1416004283 1023202051 1596025259 -313828672 -650389624 -1757968541 901996738 475954296 427507316 419848477 1665552434 2006527315 1657028611 399847914 -812452644 -1826369572 -1311669547 -1033576171 -187859611 354804901 975523582 497424895 1925925523 1893784865 -830914451 1330861400 1977508374 1809862768 1856032624 -1574154080 1177704704 -1590463
REM
CELL 1.54180   50.00000   50.00000   50.00000   90.00000   90.00000   90.00000
LATT -1
SFAC C  
C      1  0.4505840000000  0.5723800000000  0.5866720000000 1.0
C      1  0.5498610000000  0.5882460000000  0.4256460000000 1.0
C      1  0.4474530000000  0.4236640000000  0.4127510000000 1.0
C      1  0.5493710000000  0.4117050000000  0.5741120000000 1.0
C      1  0.4728530000000  0.4566290000000  0.4941520000000 1.0
C      1  0.5275070000000  0.4922320000000  0.5423620000000 1.0
C      1  0.4725190000000  0.5411680000000  0.5052240000000 1.0
C      1  0.5311090000000  0.4997150000000  0.4552400000000 1.0
C      1  0.5487100000000  0.4556690000000  0.4689300000000 1.0
C      1  0.4449420000000  0.4647470000000  0.5332580000000 1.0
C      1  0.5528750000000  0.5306490000000  0.5348290000000 1.0
C      1  0.4451750000000  0.5346600000000  0.4662350000000 1.0
C      1  0.5241310000000  0.6025130000000  0.4932780000000 1.0
C      1  0.4763860000000  0.4948280000000  0.3947670000000 1.0
C      1  0.5246180000000  0.3974370000000  0.5062540000000 1.0
C      1  0.4758080000000  0.5057370000000  0.6029150000000 1.0
C      1  0.5298820000000  0.5342680000000  0.5542670000000 1.0
C      1  0.4691320000000  0.5540420000000  0.4636830000000 1.0
C      1  0.5091660000000  0.4658170000000  0.4324490000000 1.0
C      1  0.4688870000000  0.4457160000000  0.5361670000000 1.0
C      1  0.5765290000000  0.4921480000000  0.5274290000000 1.0
C      1  0.4227230000000  0.5281890000000  0.5051740000000 1.0
C      1  0.5780370000000  0.5094530000000  0.4745900000000 1.0
C      1  0.4227510000000  0.4709110000000  0.4941380000000 1.0
C      1  0.5595350000000  0.4712320000000  0.4875070000000 1.0
C      1  0.4480050000000  0.4927180000000  0.5251050000000 1.0
C      1  0.5463050000000  0.5191370000000  0.5088370000000 1.0
C      1  0.4479840000000  0.5064510000000  0.4741030000000 1.0
C      1  0.4776400000000  0.5733190000000  0.4058560000000 1.0
C      1  0.5210370000000  0.4074180000000  0.4283170000000 1.0
C      1  0.4777180000000  0.4274210000000  0.5944300000000 1.0
C      1  0.5223890000000  0.5926140000000  0.5713740000000 1.0
C      1  0.3940550000000  0.4351290000000  0.4603340000000 1.0
C      1  0.6054340000000  0.4579110000000  0.5676820000000 1.0
C      1  0.3947660000000  0.5654550000000  0.5406980000000 1.0
C      1  0.6052240000000  0.5412880000000  0.4329100000000 1.0
C      1  0.4549540000000  0.4068170000000  0.5490520000000 1.0
C      1  0.5452910000000  0.5475380000000  0.5924310000000 1.0
C      1  0.4548160000000  0.5930340000000  0.4515920000000 1.0
C      1  0.5447850000000  0.4525670000000  0.4078040000000 1.0
C      1  0.5181470000000  0.5409580000000  0.6044300000000 1.0
C      1  0.4818990000000  0.6049300000000  0.4582970000000 1.0
C      1  0.5194580000000  0.4589510000000  0.3910100000000 1.0
C      1  0.4822920000000  0.3952310000000  0.5418440000000 1.0
C      1  0.4931410000000  0.4823100000000  0.6031960000000 1.0
C      1  0.5069620000000  0.6018080000000  0.5165900000000 1.0
C      1  0.4930350000000  0.5190280000000  0.3953810000000 1.0
C      1  0.5070780000000  0.3988150000000  0.4833610000000 1.0
C      1  0.4747450000000  0.5661780000000  0.4897800000000 1.0
C      1  0.5223050000000  0.4908500000000  0.4282840000000 1.0
C      1  0.4744060000000  0.4324600000000  0.5106180000000 1.0
C      1  0.5252590000000  0.5083240000000  0.5671670000000 1.0
C      1  0.5054850000000  0.5022050000000  0.5287630000000 1.0
C      1  0.4946460000000  0.5276200000000  0.4953470000000 1.0
C      1  0.5078690000000  0.4952220000000  0.4697220000000 1.0
C      1  0.4958420000000  0.4693080000000  0.5022650000000 1.0
C      1  0.4904080000000  0.4543240000000  0.5544020000000 1.0
C      1  0.5094280000000  0.5526950000000  0.5442930000000 1.0
C      1  0.4908750000000  0.5458780000000  0.4454490000000 1.0
C      1  0.5032600000000  0.4463710000000  0.4521950000000 1.0
C      1  0.5573200000000  0.5258380000000  0.4299620000000 1.0
C      1  0.4416040000000  0.4294910000000  0.4759230000000 1.0
C      1  0.5574250000000  0.4730530000000  0.5699820000000 1.0
C      1  0.4429680000000  0.5688530000000  0.5252930000000 1.0
C      1  0.4398790000000  0.5159570000000  0.5672330000000 1.0
C      1  0.5588180000000  0.5671070000000  0.4813350000000 1.0
C      1  0.4408150000000  0.4830030000000  0.4318980000000 1.0
C      1  0.5612860000000  0.4305570000000  0.5168370000000 1.0
C      1  0.5156800000000  0.3962830000000  0.4554840000000 1.0
C      1  0.4838530000000  0.4544100000000  0.6058690000000 1.0
C      1  0.5162720000000  0.6041830000000  0.5444650000000 1.0
C      1  0.4834840000000  0.5467430000000  0.3935550000000 1.0
C      1  0.3977650000000  0.4990750000000  0.4478310000000 1.0
C      1  0.6049430000000  0.4516640000000  0.5058500000000 1.0
C      1  0.3969740000000  0.5006650000000  0.5511950000000 1.0
C      1  0.6011840000000  0.5511770000000  0.4978160000000 1.0
C      1  0.5447660000000  0.4258070000000  0.4253470000000 1.0
C      1  0.4542710000000  0.4245900000000  0.5757300000000 1.0
C      1  0.5458980000000  0.5739150000000  0.5741640000000 1.0
C      1  0.4541970000000  0.5754880000000  0.4247580000000 1.0
C      1  0.5744830000000  0.5050120000000  0.4175310000000 1.0
C      1  0.4240240000000  0.4175000000000  0.4964960000000 1.0
C      1  0.5744250000000  0.4940970000000  0.5825610000000 1.0
C      1  0.4257150000000  0.5821240000000  0.5049480000000 1.0
C      1  0.4376520000000  0.5520480000000  0.4187190000000 1.0
C      1  0.5627620000000  0.4176600000000  0.4472870000000 1.0
C      1  0.4371500000000  0.4475500000000  0.5814800000000 1.0
C      1  0.5627210000000  0.5794430000000  0.5508740000000 1.0
C      1  0.4496370000000  0.5004180000000  0.5896450000000 1.0
C      1  0.5500190000000  0.5889120000000  0.4981030000000 1.0
C      1  0.4504500000000  0.4990810000000  0.4095100000000 1.0
C      1  0.5515500000000  0.4087480000000  0.5005310000000 1.0
C      1  0.4743710000000  0.4207100000000  0.4205320000000 1.0
C      1  0.5220960000000  0.4189820000000  0.5760710000000 1.0
C      1  0.4778550000000  0.5743350000000  0.5793900000000 1.0
C      1  0.5224720000000  0.5811860000000  0.4239340000000 1.0
C      1  0.4560640000000  0.5160480000000  0.5416650000000 1.0
C      1  0.5408540000000  0.5447580000000  0.4760570000000 1.0
C      1  0.4569020000000  0.4832330000000  0.4578420000000 1.0
C      1  0.5424330000000  0.4522270000000  0.5211610000000 1.0
C      1  0.4069090000000  0.4483440000000  0.4381480000000 1.0
C      1  0.5926250000000  0.4364650000000  0.5535040000000 1.0
C      1  0.4073840000000  0.5512640000000  0.5622690000000 1.0
C      1  0.5923170000000  0.5627460000000  0.4470180000000 1.0
C      1  0.4998030000000  0.5895900000000  0.5888980000000 1.0
C      1  0.5002930000000  0.5907420000000  0.4090250000000 1.0
C      1  0.4982170000000  0.4085930000000  0.4107850000000 1.0
C      1  0.5001860000000  0.4097350000000  0.5915250000000 1.0
C      1  0.4832070000000  0.4812730000000  0.5607020000000 1.0
C      1  0.5178810000000  0.5583710000000  0.5172900000000 1.0
C      1  0.4840460000000  0.5188920000000  0.4394620000000 1.0
C      1  0.5225540000000  0.4460770000000  0.4738930000000 1.0
C      1  0.6005490000000  0.4817780000000  0.5804100000000 1.0
C      1  0.3996830000000  0.5792660000000  0.5174150000000 1.0
C      1  0.6004740000000  0.5175630000000  0.4197920000000 1.0
C      1  0.3981200000000  0.4214010000000  0.4839260000000 1.0
C      1  0.5192120000000  0.4529800000000  0.5027210000000 1.0
C      1  0.4835470000000  0.5062830000000  0.5467220000000 1.0
C      1  0.5173340000000  0.5450890000000  0.4917230000000 1.0
C      1  0.4843700000000  0.4939710000000  0.4530370000000 1.0
C      1  0.5646440000000  0.5222680000000  0.5899790000000 1.0
C      1  0.4354930000000  0.5902060000000  0.4768810000000 1.0
C      1  0.5642990000000  0.4770220000000  0.4115590000000 1.0
C      1  0.4346840000000  0.4093550000000  0.5242440000000 1.0
C      1  0.5749230000000  0.5803830000000  0.4322700000000 1.0
C      1  0.4231180000000  0.4324340000000  0.4205720000000 1.0
C      1  0.5745600000000  0.4191520000000  0.5676440000000 1.0
C      1  0.4253580000000  0.5658700000000  0.5793930000000 1.0
C      1  0.4120350000000  0.5225560000000  0.5621820000000 1.0
C      1  0.5866760000000  0.5619260000000  0.4755680000000 1.0
C      1  0.4126960000000  0.4768840000000  0.4372360000000 1.0
C      1  0.5885630000000  0.4372350000000  0.5246370000000 1.0
C      1  0.5622320000000  0.4082450000000  0.4732230000000 1.0
C      1  0.4385630000000  0.4734290000000  0.5902980000000 1.0
C      1  0.5613200000000  0.5883740000000  0.5250070000000 1.0
C      1  0.4392510000000  0.5262010000000  0.4097030000000 1.0
C      1  0.4680030000000  0.5793600000000  0.5331900000000 1.0
C      1  0.5326000000000  0.5349120000000  0.4191950000000 1.0
C      1  0.4656580000000  0.4170340000000  0.4679030000000 1.0
C      1  0.5322910000000  0.4652110000000  0.5808100000000 1.0
C      1  0.6099330000000  0.4711750000000  0.4874130000000 1.0
C      1  0.3982970000000  0.4768240000000  0.5377280000000 1.0
C      1  0.5993290000000  0.5371600000000  0.5211810000000 1.0
C      1  0.3986120000000  0.5228470000000  0.4614300000000 1.0
C      1  0.5158610000000  0.4455070000000  0.5670600000000 1.0
C      1  0.4841190000000  0.5654980000000  0.5528160000000 1.0
C      1  0.5163300000000  0.5546740000000  0.4329440000000 1.0
C      1  0.4800950000000  0.4297160000000  0.4471520000000 1.0
C      1  0.4475460000000  0.4594060000000  0.4777050000000 1.0
C      1  0.5526220000000  0.4755870000000  0.5400640000000 1.0
C      1  0.4472470000000  0.5391660000000  0.5218800000000 1.0
C      1  0.5528740000000  0.5207610000000  0.4592650000000 1.0
C      1  0.4818720000000  0.4109950000000  0.4906880000000 1.0
C      1  0.5178750000000  0.4885870000000  0.5891080000000 1.0
C      1  0.4824980000000  0.5876300000000  0.5099210000000 1.0
C      1  0.5176380000000  0.5129820000000  0.4093390000000 1.0
C      1  0.5072060000000  0.6066210000000  0.4695620000000 1.0
C      1  0.4940670000000  0.4712620000000  0.3886000000000 1.0
C      1  0.5076180000000  0.3935800000000  0.5302400000000 1.0
C      1  0.4928470000000  0.5295910000000  0.6062820000000 1.0
C      1  0.4174240000000  0.4613420000000  0.5224930000000 1.0
C      1  0.5810270000000  0.5209750000000  0.5364000000000 1.0
C      1  0.4176300000000  0.5381430000000  0.4769620000000 1.0
C      1  0.6022320000000  0.4934240000000  0.4731370000000 1.0
C      1  0.4331460000000  0.4995230000000  0.4995350000000 1.0
C      1  0.5646620000000  0.4974500000000  0.4992790000000 1.0
C      1  0.5009550000000  0.4986230000000  0.4991720000000 1.0
END
