TITL C-3201378-2706-1137 -4.00105798280295e-07 125000 -448.984880097747 0 0 74 (D3) n - 1
REM
REM in /home/nfs/bkarasulu/CARBON/AIRSS/Generating-Clusters/LCBOP/Higher-Symm/SD-CG/FIRE-CG
REM
REM
REM
REM
REM
REM ./C.cell (b20cbc046b6831c77cfcea5457e17084)
REM AIRSS Version 0.9.1 bugfix July 2018 build 013d7b7c2542+ Fri, 06 Jul 2018 19:26:36 +0100
REM compiler GCC version 9.2.1 20190827 (Red Hat 9.2.1-1)
REM options -cpp -mtune=generic -march=x86-64 -g -O0 -fpre-include=/usr/include/finclude/math-vector-fortran.h
REM seed -1264361268 169574051 -976523292 107238498 1331061811 -784315224 -1582770826 871406519 -1103819845 629316289 -1355108729 1738989694 -794300464 787712116 129550027 970853540 -1409698911 -984628817 -16287913 -1461841536 -952051617 -1038752743 1584892604 1177681872 -1425763657 -1418679283 1057326711 -1428177813 -557002456 -1323198206 472779538 -56502839 -1249625259
REM
CELL 1.54180   50.00000   50.00000   50.00000   90.00000   90.00000   90.00000
LATT -1
SFAC C  
C      1  0.4282010000000  0.5105560000000  0.4676750000000 1.0
C      1  0.5641920000000  0.5105520000000  0.4538820000000 1.0
C      1  0.5081420000000  0.5105470000000  0.5785500000000 1.0
C      1  0.5721580000000  0.4879350000000  0.4676820000000 1.0
C      1  0.4361690000000  0.4879400000000  0.4538740000000 1.0
C      1  0.4922060000000  0.4879310000000  0.5785480000000 1.0
C      1  0.5268310000000  0.4811320000000  0.4556300000000 1.0
C      1  0.5253050000000  0.4811270000000  0.5453180000000 1.0
C      1  0.4483960000000  0.4811320000000  0.4991530000000 1.0
C      1  0.4735300000000  0.5173600000000  0.4556300000000 1.0
C      1  0.4750460000000  0.5173550000000  0.5453170000000 1.0
C      1  0.5519600000000  0.5173550000000  0.4991600000000 1.0
C      1  0.5224580000000  0.5710730000000  0.4807230000000 1.0
C      1  0.5057690000000  0.5710710000000  0.5289890000000 1.0
C      1  0.4723140000000  0.5710740000000  0.4904030000000 1.0
C      1  0.4779000000000  0.4274170000000  0.4807130000000 1.0
C      1  0.4945840000000  0.4274140000000  0.5289810000000 1.0
C      1  0.5280430000000  0.4274140000000  0.4903990000000 1.0
C      1  0.5507350000000  0.4916650000000  0.5544090000000 1.0
C      1  0.4278100000000  0.4916710000000  0.5166310000000 1.0
C      1  0.5219890000000  0.4916730000000  0.4290630000000 1.0
C      1  0.4496150000000  0.5068160000000  0.5544040000000 1.0
C      1  0.5725450000000  0.5068140000000  0.5166400000000 1.0
C      1  0.4783750000000  0.5068220000000  0.4290620000000 1.0
C      1  0.4947830000000  0.4458820000000  0.5515310000000 1.0
C      1  0.4582740000000  0.4458870000000  0.4696120000000 1.0
C      1  0.5474720000000  0.4458840000000  0.4789530000000 1.0
C      1  0.5055680000000  0.5526000000000  0.5515370000000 1.0
C      1  0.5420860000000  0.5526030000000  0.4696220000000 1.0
C      1  0.4528860000000  0.5526060000000  0.4789540000000 1.0
C      1  0.5257810000000  0.5760820000000  0.5094010000000 1.0
C      1  0.4792720000000  0.5760830000000  0.5175290000000 1.0
C      1  0.4954890000000  0.5760850000000  0.4731870000000 1.0
C      1  0.4745740000000  0.4224040000000  0.5093900000000 1.0
C      1  0.5210820000000  0.4224020000000  0.5175220000000 1.0
C      1  0.5048710000000  0.4224050000000  0.4731790000000 1.0
C      1  0.4806580000000  0.5124050000000  0.5185520000000 1.0
C      1  0.4939040000000  0.5124070000000  0.4738720000000 1.0
C      1  0.5259740000000  0.5124040000000  0.5076830000000 1.0
C      1  0.5196960000000  0.4860800000000  0.5185520000000 1.0
C      1  0.5064560000000  0.4860830000000  0.4738720000000 1.0
C      1  0.4743810000000  0.4860830000000  0.5076790000000 1.0
C      1  0.5509850000000  0.5209990000000  0.5556530000000 1.0
C      1  0.4266100000000  0.5210050000000  0.5162270000000 1.0
C      1  0.5229410000000  0.5210070000000  0.4282280000000 1.0
C      1  0.4493650000000  0.4774820000000  0.5556450000000 1.0
C      1  0.5737440000000  0.4774800000000  0.5162330000000 1.0
C      1  0.4774230000000  0.4774880000000  0.4282230000000 1.0
C      1  0.5720440000000  0.5297750000000  0.5369590000000 1.0
C      1  0.4322700000000  0.5297790000000  0.5438120000000 1.0
C      1  0.4962230000000  0.5297840000000  0.4193380000000 1.0
C      1  0.4283080000000  0.4687090000000  0.5369480000000 1.0
C      1  0.5680810000000  0.4687030000000  0.5438160000000 1.0
C      1  0.5041420000000  0.4687120000000  0.4193350000000 1.0
C      1  0.5585300000000  0.5446730000000  0.4924780000000 1.0
C      1  0.4775510000000  0.5446730000000  0.5543500000000 1.0
C      1  0.4644580000000  0.5446790000000  0.4532840000000 1.0
C      1  0.4418270000000  0.4538150000000  0.4924670000000 1.0
C      1  0.5228000000000  0.4538090000000  0.5543480000000 1.0
C      1  0.5359030000000  0.4538140000000  0.4532830000000 1.0
C      1  0.5237780000000  0.5314220000000  0.5633460000000 1.0
C      1  0.4335520000000  0.5314290000000  0.4888190000000 1.0
C      1  0.5432080000000  0.5314280000000  0.4479440000000 1.0
C      1  0.4765710000000  0.4670580000000  0.5633400000000 1.0
C      1  0.5668060000000  0.4670590000000  0.4888230000000 1.0
C      1  0.4571540000000  0.4670650000000  0.4479360000000 1.0
C      1  0.4293760000000  0.4456630000000  0.5180940000000 1.0
C      1  0.5199350000000  0.4456650000000  0.4296860000000 1.0
C      1  0.5512190000000  0.4456570000000  0.5523160000000 1.0
C      1  0.5709790000000  0.5528220000000  0.5181070000000 1.0
C      1  0.4804290000000  0.5528300000000  0.4296900000000 1.0
C      1  0.4491320000000  0.5528240000000  0.5523170000000 1.0
C      1  0.5001770000000  0.4756400000000  0.5000340000000 1.0
C      1  0.5001790000000  0.5228470000000  0.5000360000000 1.0
END
