TITL C-3201372-1405-1586 16.2887895953503 125000 -910.317489111495 0 0 148 (C1) n - 1
REM
REM in /home/nfs/bkarasulu/CARBON/AIRSS/Generating-Clusters/LCBOP/Higher-Symm/SD-CG/FIRE-CG
REM
REM
REM
REM
REM
REM ./C.cell (b20cbc046b6831c77cfcea5457e17084)
REM AIRSS Version 0.9.1 bugfix July 2018 build 013d7b7c2542+ Fri, 06 Jul 2018 19:26:36 +0100
REM compiler GCC version 9.2.1 20190827 (Red Hat 9.2.1-1)
REM options -cpp -mtune=generic -march=x86-64 -g -O0 -fpre-include=/usr/include/finclude/math-vector-fortran.h
REM seed 1515612787 1919935478 1856679950 -1757944215 561759286 1369047189 -1567166454 -925218970 -1652045255 1516439415 758390012 -891160385 1485990131 -1265794237 897718811 -1983443416 62256422 2065632605 -1104471798 546564983 33434746 661684883 1368529632 206137514 -2133808719 -1176228791 1713265955 -814757065 -89983849 1520142646 539965033 81664378 1953222324
REM
CELL 1.54180   50.00000   50.00000   50.00000   90.00000   90.00000   90.00000
LATT -1
SFAC C  
C      1  0.5885480000000  0.5087140000000  0.4008570000000 1.0
C      1  0.5653080000000  0.4674590000000  0.4064300000000 1.0
C      1  0.4948820000000  0.4084450000000  0.5202770000000 1.0
C      1  0.3911780000000  0.4909950000000  0.5339630000000 1.0
C      1  0.4823060000000  0.5144040000000  0.6011500000000 1.0
C      1  0.5693300000000  0.5648460000000  0.5557300000000 1.0
C      1  0.4501450000000  0.5350880000000  0.4475330000000 1.0
C      1  0.4447020000000  0.4190470000000  0.5313550000000 1.0
C      1  0.5240790000000  0.5114260000000  0.4774070000000 1.0
C      1  0.4526900000000  0.4929880000000  0.5043250000000 1.0
C      1  0.5497570000000  0.5546110000000  0.4441560000000 1.0
C      1  0.4146010000000  0.5871140000000  0.4395580000000 1.0
C      1  0.5365680000000  0.5590500000000  0.3786350000000 1.0
C      1  0.5981330000000  0.4285110000000  0.5534990000000 1.0
C      1  0.5018620000000  0.5772450000000  0.5715530000000 1.0
C      1  0.4828240000000  0.5711450000000  0.4451980000000 1.0
C      1  0.4536850000000  0.4642280000000  0.5020680000000 1.0
C      1  0.5629660000000  0.5324320000000  0.4335160000000 1.0
C      1  0.5101260000000  0.4164710000000  0.4142270000000 1.0
C      1  0.4225930000000  0.4561040000000  0.5404870000000 1.0
C      1  0.4795080000000  0.4613920000000  0.6064950000000 1.0
C      1  0.4008210000000  0.4762210000000  0.4709150000000 1.0
C      1  0.5600840000000  0.4536710000000  0.6112030000000 1.0
C      1  0.4777870000000  0.5340800000000  0.5140760000000 1.0
C      1  0.4554500000000  0.4398520000000  0.3755610000000 1.0
C      1  0.4940750000000  0.4504080000000  0.4759600000000 1.0
C      1  0.5969600000000  0.4536450000000  0.5403680000000 1.0
C      1  0.4682610000000  0.4358150000000  0.3994840000000 1.0
C      1  0.5870770000000  0.4903670000000  0.4449020000000 1.0
C      1  0.5413840000000  0.4006250000000  0.4742450000000 1.0
C      1  0.5474880000000  0.5826040000000  0.5575090000000 1.0
C      1  0.6117990000000  0.4932760000000  0.5146200000000 1.0
C      1  0.4467140000000  0.4872220000000  0.5871290000000 1.0
C      1  0.4242850000000  0.5819720000000  0.4656480000000 1.0
C      1  0.5014980000000  0.4727430000000  0.4921280000000 1.0
C      1  0.5548930000000  0.4705750000000  0.5605700000000 1.0
C      1  0.5717550000000  0.5310110000000  0.4062610000000 1.0
C      1  0.5743360000000  0.4344970000000  0.5988000000000 1.0
C      1  0.5091760000000  0.5140400000000  0.6100920000000 1.0
C      1  0.3691400000000  0.5006720000000  0.5180060000000 1.0
C      1  0.5236930000000  0.5390450000000  0.4811290000000 1.0
C      1  0.3990040000000  0.5364180000000  0.4616880000000 1.0
C      1  0.5202850000000  0.5836810000000  0.5501050000000 1.0
C      1  0.4178910000000  0.4687420000000  0.4465050000000 1.0
C      1  0.4755570000000  0.4021260000000  0.4970290000000 1.0
C      1  0.5839670000000  0.4338900000000  0.4791020000000 1.0
C      1  0.5301950000000  0.4978350000000  0.6148300000000 1.0
C      1  0.4511270000000  0.4300110000000  0.4670040000000 1.0
C      1  0.4751430000000  0.5438180000000  0.4872460000000 1.0
C      1  0.4033030000000  0.5330840000000  0.5170130000000 1.0
C      1  0.5137700000000  0.6342300000000  0.4921410000000 1.0
C      1  0.5275910000000  0.5137890000000  0.5487720000000 1.0
C      1  0.5970730000000  0.4982810000000  0.5620210000000 1.0
C      1  0.4384200000000  0.5084930000000  0.4859920000000 1.0
C      1  0.5070540000000  0.4698290000000  0.4339730000000 1.0
C      1  0.5091740000000  0.5750090000000  0.4533930000000 1.0
C      1  0.5089570000000  0.4466590000000  0.4517900000000 1.0
C      1  0.5321300000000  0.5334290000000  0.5300810000000 1.0
C      1  0.4991010000000  0.5910800000000  0.5947270000000 1.0
C      1  0.4778700000000  0.4943500000000  0.5469030000000 1.0
C      1  0.6040520000000  0.5076030000000  0.4894920000000 1.0
C      1  0.5458290000000  0.4759990000000  0.6158060000000 1.0
C      1  0.4856510000000  0.4087890000000  0.5489200000000 1.0
C      1  0.5263320000000  0.5927100000000  0.4680350000000 1.0
C      1  0.4693790000000  0.5384030000000  0.5796830000000 1.0
C      1  0.4454970000000  0.5948150000000  0.4797930000000 1.0
C      1  0.5236090000000  0.5509100000000  0.4549180000000 1.0
C      1  0.5839650000000  0.4726280000000  0.5588540000000 1.0
C      1  0.4443020000000  0.4467250000000  0.5239860000000 1.0
C      1  0.4398500000000  0.4875980000000  0.4451780000000 1.0
C      1  0.6150590000000  0.5037670000000  0.5405990000000 1.0
C      1  0.5394040000000  0.4650310000000  0.3992110000000 1.0
C      1  0.3825510000000  0.5189170000000  0.5005230000000 1.0
C      1  0.5468120000000  0.4943020000000  0.5468000000000 1.0
C      1  0.3995660000000  0.5693020000000  0.4255160000000 1.0
C      1  0.4093450000000  0.5142740000000  0.5387690000000 1.0
C      1  0.4434610000000  0.5415760000000  0.5649950000000 1.0
C      1  0.4382560000000  0.5122760000000  0.4579930000000 1.0
C      1  0.5061180000000  0.4658530000000  0.5181030000000 1.0
C      1  0.5068890000000  0.4508130000000  0.5607520000000 1.0
C      1  0.3916870000000  0.5103450000000  0.4744780000000 1.0
C      1  0.6006470000000  0.5466020000000  0.5191580000000 1.0
C      1  0.4272560000000  0.4451040000000  0.4301520000000 1.0
C      1  0.4603460000000  0.5869300000000  0.5038810000000 1.0
C      1  0.4152500000000  0.4289040000000  0.4934910000000 1.0
C      1  0.6044750000000  0.4644770000000  0.5141880000000 1.0
C      1  0.5085260000000  0.5725330000000  0.5226700000000 1.0
C      1  0.4133610000000  0.5577640000000  0.4777040000000 1.0
C      1  0.4918560000000  0.5910920000000  0.5047970000000 1.0
C      1  0.4245960000000  0.4472100000000  0.5673510000000 1.0
C      1  0.4774260000000  0.5770610000000  0.4182800000000 1.0
C      1  0.4918260000000  0.4681810000000  0.5425630000000 1.0
C      1  0.5569940000000  0.4898590000000  0.5205890000000 1.0
C      1  0.4416630000000  0.4157780000000  0.4884730000000 1.0
C      1  0.5727160000000  0.5626810000000  0.4829770000000 1.0
C      1  0.4437790000000  0.4372510000000  0.5838060000000 1.0
C      1  0.4400910000000  0.5697580000000  0.5198280000000 1.0
C      1  0.5647470000000  0.4146100000000  0.4772450000000 1.0
C      1  0.5588300000000  0.5754160000000  0.4619400000000 1.0
C      1  0.5977500000000  0.4582110000000  0.4859850000000 1.0
C      1  0.5590570000000  0.5647750000000  0.5077950000000 1.0
C      1  0.4900390000000  0.5756750000000  0.3947200000000 1.0
C      1  0.5470690000000  0.4982900000000  0.4681910000000 1.0
C      1  0.4638820000000  0.4154120000000  0.4469740000000 1.0
C      1  0.5015350000000  0.5094410000000  0.5581620000000 1.0
C      1  0.5507880000000  0.4661430000000  0.5059610000000 1.0
C      1  0.4640800000000  0.4548470000000  0.4743830000000 1.0
C      1  0.5774320000000  0.5453860000000  0.5744950000000 1.0
C      1  0.5152980000000  0.4209890000000  0.4415300000000 1.0
C      1  0.5650510000000  0.5087320000000  0.4495090000000 1.0
C      1  0.4902700000000  0.4879140000000  0.4488270000000 1.0
C      1  0.4689840000000  0.5513190000000  0.4603130000000 1.0
C      1  0.5122030000000  0.4623300000000  0.4070390000000 1.0
C      1  0.5319240000000  0.4482430000000  0.5214920000000 1.0
C      1  0.4527130000000  0.4291340000000  0.4231020000000 1.0
C      1  0.4871370000000  0.5543480000000  0.5635270000000 1.0
C      1  0.5872590000000  0.5204010000000  0.5765100000000 1.0
C      1  0.5302250000000  0.5541490000000  0.5085340000000 1.0
C      1  0.5779940000000  0.5607490000000  0.5293420000000 1.0
C      1  0.5205230000000  0.4208690000000  0.5156550000000 1.0
C      1  0.4717570000000  0.4385540000000  0.5898530000000 1.0
C      1  0.5153310000000  0.4014070000000  0.4621020000000 1.0
C      1  0.5164030000000  0.6598080000000  0.4963780000000 1.0
C      1  0.4027890000000  0.4569410000000  0.4957660000000 1.0
C      1  0.5352830000000  0.4505980000000  0.5527270000000 1.0
C      1  0.5583710000000  0.5461820000000  0.3869850000000 1.0
C      1  0.5857200000000  0.4846850000000  0.4163660000000 1.0
C      1  0.4642270000000  0.4760470000000  0.4522560000000 1.0
C      1  0.4406190000000  0.5645640000000  0.5480080000000 1.0
C      1  0.4884640000000  0.5514920000000  0.5342020000000 1.0
C      1  0.5016400000000  0.4954120000000  0.4748420000000 1.0
C      1  0.4582140000000  0.4019580000000  0.5469360000000 1.0
C      1  0.4869940000000  0.3984480000000  0.4691350000000 1.0
C      1  0.4323830000000  0.5171960000000  0.5546850000000 1.0
C      1  0.4186800000000  0.5543580000000  0.5057310000000 1.0
C      1  0.4022220000000  0.4668770000000  0.5241890000000 1.0
C      1  0.3921150000000  0.5450800000000  0.4354580000000 1.0
C      1  0.4969910000000  0.4380250000000  0.4007020000000 1.0
C      1  0.5995710000000  0.4840970000000  0.4700950000000 1.0
C      1  0.4909440000000  0.4291420000000  0.5697160000000 1.0
C      1  0.5120300000000  0.5691530000000  0.3811020000000 1.0
C      1  0.4694520000000  0.4882250000000  0.6033370000000 1.0
C      1  0.4707520000000  0.5073700000000  0.5205570000000 1.0
C      1  0.5109120000000  0.6067750000000  0.4881670000000 1.0
C      1  0.5880240000000  0.4235420000000  0.5782830000000 1.0
C      1  0.5966880000000  0.5366420000000  0.4923840000000 1.0
C      1  0.4499090000000  0.4955630000000  0.5607610000000 1.0
C      1  0.5502210000000  0.4718420000000  0.4783960000000 1.0
END
