TITL C-3201376-6384-1091 0.252369642655809 125000 -453.557408616426 0 0 76 (C1) n - 1
REM
REM in /home/nfs/bkarasulu/CARBON/AIRSS/Generating-Clusters/LCBOP/Higher-Symm/SD-CG/FIRE-CG
REM
REM
REM
REM
REM
REM ./C.cell (b20cbc046b6831c77cfcea5457e17084)
REM AIRSS Version 0.9.1 bugfix July 2018 build 013d7b7c2542+ Fri, 06 Jul 2018 19:26:36 +0100
REM compiler GCC version 9.2.1 20190827 (Red Hat 9.2.1-1)
REM options -cpp -mtune=generic -march=x86-64 -g -O0 -fpre-include=/usr/include/finclude/math-vector-fortran.h
REM seed -17698424 1186984113 -834009906 -1975788065 -1751801492 -1328429809 -885114635 2053385132 -144364238 801954964 342152658 230494955 -962843923 960927452 -729029766 699383013 -1849753167 -1700550075 1657550600 -1949805166 -1719027155 16602977 1274817907 595903581 -1797229223 -1930793789 -2012727729 -1913342295 939558457 147259787 -93141066 1782427887 861166752
REM
CELL 1.54180   50.00000   50.00000   50.00000   90.00000   90.00000   90.00000
LATT -1
SFAC C  
C      1  0.4516900000000  0.4757370000000  0.4179890000000 1.0
C      1  0.4966910000000  0.5658220000000  0.4744500000000 1.0
C      1  0.4345130000000  0.5256950000000  0.4609610000000 1.0
C      1  0.5297570000000  0.4863010000000  0.5265290000000 1.0
C      1  0.4471760000000  0.3546210000000  0.4664260000000 1.0
C      1  0.5348910000000  0.5728830000000  0.4487830000000 1.0
C      1  0.4364430000000  0.4969580000000  0.4224100000000 1.0
C      1  0.5541070000000  0.4930820000000  0.5101670000000 1.0
C      1  0.5838770000000  0.4932760000000  0.5991780000000 1.0
C      1  0.4864360000000  0.4386220000000  0.4352020000000 1.0
C      1  0.5995040000000  0.5461110000000  0.5276870000000 1.0
C      1  0.5049650000000  0.4597410000000  0.5556330000000 1.0
C      1  0.4655200000000  0.5110440000000  0.5500760000000 1.0
C      1  0.5384080000000  0.5373400000000  0.5151530000000 1.0
C      1  0.4538570000000  0.4704500000000  0.5260130000000 1.0
C      1  0.4688520000000  0.4559760000000  0.4221400000000 1.0
C      1  0.4900270000000  0.5368360000000  0.5184370000000 1.0
C      1  0.4914550000000  0.4703970000000  0.6012100000000 1.0
C      1  0.5136480000000  0.5294710000000  0.5050520000000 1.0
C      1  0.5000600000000  0.4894670000000  0.5189010000000 1.0
C      1  0.4963770000000  0.4458170000000  0.4603120000000 1.0
C      1  0.5087020000000  0.5124740000000  0.4815940000000 1.0
C      1  0.5217660000000  0.5835670000000  0.5421210000000 1.0
C      1  0.5220110000000  0.5877050000000  0.5124380000000 1.0
C      1  0.4359770000000  0.3985930000000  0.5261750000000 1.0
C      1  0.4932830000000  0.4141830000000  0.4235960000000 1.0
C      1  0.4618800000000  0.3573080000000  0.4445030000000 1.0
C      1  0.5043650000000  0.5305480000000  0.5662790000000 1.0
C      1  0.4947660000000  0.5803350000000  0.4996540000000 1.0
C      1  0.4487810000000  0.5283730000000  0.4831160000000 1.0
C      1  0.5224440000000  0.5249200000000  0.4596440000000 1.0
C      1  0.4622930000000  0.4443990000000  0.5323830000000 1.0
C      1  0.4041300000000  0.5330990000000  0.4238830000000 1.0
C      1  0.5008980000000  0.4857740000000  0.4895960000000 1.0
C      1  0.5938760000000  0.5329190000000  0.4843230000000 1.0
C      1  0.5008360000000  0.4570410000000  0.4854320000000 1.0
C      1  0.4906180000000  0.4437170000000  0.5345880000000 1.0
C      1  0.5466140000000  0.5885200000000  0.4945430000000 1.0
C      1  0.5792070000000  0.4997220000000  0.5516570000000 1.0
C      1  0.4882650000000  0.5068930000000  0.5691680000000 1.0
C      1  0.5319750000000  0.4296730000000  0.5141480000000 1.0
C      1  0.4507210000000  0.5364840000000  0.5449320000000 1.0
C      1  0.5424530000000  0.5922520000000  0.4663990000000 1.0
C      1  0.4461130000000  0.4219630000000  0.5335680000000 1.0
C      1  0.4927880000000  0.5472980000000  0.5456180000000 1.0
C      1  0.5781590000000  0.5025510000000  0.5235500000000 1.0
C      1  0.4687930000000  0.5776670000000  0.5148120000000 1.0
C      1  0.4326480000000  0.3771570000000  0.5108860000000 1.0
C      1  0.5548720000000  0.4952030000000  0.4814480000000 1.0
C      1  0.5100780000000  0.3809920000000  0.3931350000000 1.0
C      1  0.4780650000000  0.3686630000000  0.4268310000000 1.0
C      1  0.4959240000000  0.5751110000000  0.5508200000000 1.0
C      1  0.4720320000000  0.4919660000000  0.5292030000000 1.0
C      1  0.5537190000000  0.5522400000000  0.5335850000000 1.0
C      1  0.5954900000000  0.5223630000000  0.5113000000000 1.0
C      1  0.4248940000000  0.5186740000000  0.4356740000000 1.0
C      1  0.5452550000000  0.4415280000000  0.5350540000000 1.0
C      1  0.4668920000000  0.5320590000000  0.5021930000000 1.0
C      1  0.4366930000000  0.3615490000000  0.4898030000000 1.0
C      1  0.3646880000000  0.5605210000000  0.4015060000000 1.0
C      1  0.4525780000000  0.5614550000000  0.5315350000000 1.0
C      1  0.5161820000000  0.5531790000000  0.4569510000000 1.0
C      1  0.3844160000000  0.5468050000000  0.4126980000000 1.0
C      1  0.5389750000000  0.5628370000000  0.5549950000000 1.0
C      1  0.3452850000000  0.5740120000000  0.3904970000000 1.0
C      1  0.5504500000000  0.5238030000000  0.5826700000000 1.0
C      1  0.5775930000000  0.5641420000000  0.5252720000000 1.0
C      1  0.5056160000000  0.4398820000000  0.5090620000000 1.0
C      1  0.4948840000000  0.4790600000000  0.5752900000000 1.0
C      1  0.5849100000000  0.5585800000000  0.4792300000000 1.0
C      1  0.5321630000000  0.4645910000000  0.5457170000000 1.0
C      1  0.5725980000000  0.5755340000000  0.4993150000000 1.0
C      1  0.5472670000000  0.5103010000000  0.4597940000000 1.0
C      1  0.5304280000000  0.5408740000000  0.5727780000000 1.0
C      1  0.5713790000000  0.5054610000000  0.5781340000000 1.0
C      1  0.4940590000000  0.3878370000000  0.4141950000000 1.0
END
