TITL C-3201377-4638-2034 127376.575537168 125000 -1224.35009106603 0 0 196 (C1) n - 1
REM
REM in /home/nfs/bkarasulu/CARBON/AIRSS/Generating-Clusters/LCBOP/Higher-Symm/SD-CG/FIRE-CG
REM
REM
REM
REM
REM
REM ./C.cell (b20cbc046b6831c77cfcea5457e17084)
REM AIRSS Version 0.9.1 bugfix July 2018 build 013d7b7c2542+ Fri, 06 Jul 2018 19:26:36 +0100
REM compiler GCC version 9.2.1 20190827 (Red Hat 9.2.1-1)
REM options -cpp -mtune=generic -march=x86-64 -g -O0 -fpre-include=/usr/include/finclude/math-vector-fortran.h
REM seed -618640926 -1695915484 1891411299 -1008933368 -737465797 -336707045 -1901260243 315456817 -1139933218 304014766 -37868473 -262410037 225414250 -1203023413 -2066748605 582334127 -2062784320 -564093291 -1370740799 355249716 1225720174 1512431061 -1470448317 709272672 1154366662 25429112 1145344696 379808511 -43709153 2108096506 615937348 -347147536 760231517
REM
CELL 1.54180   50.00000   50.00000   50.00000   90.00000   90.00000   90.00000
LATT -1
SFAC C  
C      1  0.5137230000000  0.3965340000000  0.5076220000000 1.0
C      1  0.5559910000000  0.4960460000000  0.3936680000000 1.0
C      1  0.3792780000000  0.5582410000000  0.5104820000000 1.0
C      1  0.4907900000000  0.6016490000000  0.5104420000000 1.0
C      1  0.4930410000000  0.3969360000000  0.4586220000000 1.0
C      1  0.5048710000000  0.6167900000000  0.4416750000000 1.0
C      1  0.4767420000000  0.5194030000000  0.3732560000000 1.0
C      1  0.4469760000000  0.4954650000000  0.6112450000000 1.0
C      1  0.5448590000000  0.5136590000000  0.6264470000000 1.0
C      1  0.6166380000000  0.4520060000000  0.4914730000000 1.0
C      1  0.6184580000000  0.5259770000000  0.4992910000000 1.0
C      1  0.3923980000000  0.4558580000000  0.5101270000000 1.0
C      1  0.3888450000000  0.5051760000000  0.5480370000000 1.0
C      1  0.5027220000000  0.5315410000000  0.3748420000000 1.0
C      1  0.5424020000000  0.3927650000000  0.4958940000000 1.0
C      1  0.6234870000000  0.5128860000000  0.5250030000000 1.0
C      1  0.3794320000000  0.5143520000000  0.4581130000000 1.0
C      1  0.6090140000000  0.4909730000000  0.4463480000000 1.0
C      1  0.5124940000000  0.4603350000000  0.3805980000000 1.0
C      1  0.4935880000000  0.4588880000000  0.6181690000000 1.0
C      1  0.4915410000000  0.5466420000000  0.6156250000000 1.0
C      1  0.4644970000000  0.6115390000000  0.5001670000000 1.0
C      1  0.5208020000000  0.6055030000000  0.5049700000000 1.0
C      1  0.4907130000000  0.3983360000000  0.4900130000000 1.0
C      1  0.5179440000000  0.5730020000000  0.4251630000000 1.0
C      1  0.4454560000000  0.5314170000000  0.5762700000000 1.0
C      1  0.5838250000000  0.4482760000000  0.5305690000000 1.0
C      1  0.4685860000000  0.4330830000000  0.4270090000000 1.0
C      1  0.4637550000000  0.5668700000000  0.5408180000000 1.0
C      1  0.5397180000000  0.4206040000000  0.5466180000000 1.0
C      1  0.5435460000000  0.4772020000000  0.5944510000000 1.0
C      1  0.5540550000000  0.5309410000000  0.4275700000000 1.0
C      1  0.4587740000000  0.4774520000000  0.3976290000000 1.0
C      1  0.4169090000000  0.5578610000000  0.5407750000000 1.0
C      1  0.4274580000000  0.4364410000000  0.4812140000000 1.0
C      1  0.5774400000000  0.5496160000000  0.4718300000000 1.0
C      1  0.5749380000000  0.5303520000000  0.4486910000000 1.0
C      1  0.5260120000000  0.4573000000000  0.5817110000000 1.0
C      1  0.4384440000000  0.5781200000000  0.5266490000000 1.0
C      1  0.4080730000000  0.4753430000000  0.4469250000000 1.0
C      1  0.5957570000000  0.4726320000000  0.5451980000000 1.0
C      1  0.4327000000000  0.5309520000000  0.5488200000000 1.0
C      1  0.4640580000000  0.5536930000000  0.5759320000000 1.0
C      1  0.5347960000000  0.5501440000000  0.4121720000000 1.0
C      1  0.4737200000000  0.4543560000000  0.4087920000000 1.0
C      1  0.5643730000000  0.4248900000000  0.5312630000000 1.0
C      1  0.4427420000000  0.4117480000000  0.4812640000000 1.0
C      1  0.5511960000000  0.5657840000000  0.4755080000000 1.0
C      1  0.5550810000000  0.3686200000000  0.5070410000000 1.0
C      1  0.5285340000000  0.5369850000000  0.3855980000000 1.0
C      1  0.3781590000000  0.5311810000000  0.5498520000000 1.0
C      1  0.4430230000000  0.6079050000000  0.5202500000000 1.0
C      1  0.4437840000000  0.3918450000000  0.4609260000000 1.0
C      1  0.5487340000000  0.6109940000000  0.4209000000000 1.0
C      1  0.4945370000000  0.4747660000000  0.3641240000000 1.0
C      1  0.4712830000000  0.5346800000000  0.6311210000000 1.0
C      1  0.5138630000000  0.4737000000000  0.6314590000000 1.0
C      1  0.6195770000000  0.4843280000000  0.5295920000000 1.0
C      1  0.6316490000000  0.5055890000000  0.4546660000000 1.0
C      1  0.3861150000000  0.4860610000000  0.4634390000000 1.0
C      1  0.3888410000000  0.5538730000000  0.5367050000000 1.0
C      1  0.5487100000000  0.5178720000000  0.3767940000000 1.0
C      1  0.5641720000000  0.3482480000000  0.5204910000000 1.0
C      1  0.6323240000000  0.4667260000000  0.5102410000000 1.0
C      1  0.3819630000000  0.4718860000000  0.4883570000000 1.0
C      1  0.6346820000000  0.5203560000000  0.4769870000000 1.0
C      1  0.4733590000000  0.4907540000000  0.3752050000000 1.0
C      1  0.5362000000000  0.4871650000000  0.6204820000000 1.0
C      1  0.4540120000000  0.5141090000000  0.6310600000000 1.0
C      1  0.4288150000000  0.6280360000000  0.5317920000000 1.0
C      1  0.5247190000000  0.6007330000000  0.4287990000000 1.0
C      1  0.4676360000000  0.3821080000000  0.4512960000000 1.0
C      1  0.5302930000000  0.4871610000000  0.4361900000000 1.0
C      1  0.4355580000000  0.5234440000000  0.4866130000000 1.0
C      1  0.4909130000000  0.4321290000000  0.5384430000000 1.0
C      1  0.4718730000000  0.5022010000000  0.4325480000000 1.0
C      1  0.4593790000000  0.4833390000000  0.5637560000000 1.0
C      1  0.5297310000000  0.5131430000000  0.5685240000000 1.0
C      1  0.5697500000000  0.4601360000000  0.4836840000000 1.0
C      1  0.5729810000000  0.5255410000000  0.5119780000000 1.0
C      1  0.4382390000000  0.4496750000000  0.5267690000000 1.0
C      1  0.5139070000000  0.5730880000000  0.5407050000000 1.0
C      1  0.5072560000000  0.4443300000000  0.4538760000000 1.0
C      1  0.4808310000000  0.5644180000000  0.4627440000000 1.0
C      1  0.4884050000000  0.5234230000000  0.4279090000000 1.0
C      1  0.5480480000000  0.4420580000000  0.4903320000000 1.0
C      1  0.4324280000000  0.4755290000000  0.5510420000000 1.0
C      1  0.5167620000000  0.4618080000000  0.4317630000000 1.0
C      1  0.4767340000000  0.4461910000000  0.5705470000000 1.0
C      1  0.5043710000000  0.5294600000000  0.5694990000000 1.0
C      1  0.4586330000000  0.5720660000000  0.4780270000000 1.0
C      1  0.5316890000000  0.5639930000000  0.5205830000000 1.0
C      1  0.4693080000000  0.4335670000000  0.5181700000000 1.0
C      1  0.5686720000000  0.5070040000000  0.5327960000000 1.0
C      1  0.4349900000000  0.5062350000000  0.4643470000000 1.0
C      1  0.5674870000000  0.4865170000000  0.4715910000000 1.0
C      1  0.4554560000000  0.5371550000000  0.3794200000000 1.0
C      1  0.3831210000000  0.4561220000000  0.5375770000000 1.0
C      1  0.5212280000000  0.3907770000000  0.4501410000000 1.0
C      1  0.5606820000000  0.4687420000000  0.3885520000000 1.0
C      1  0.5419700000000  0.5414810000000  0.6207720000000 1.0
C      1  0.4448900000000  0.4671450000000  0.6145200000000 1.0
C      1  0.6201580000000  0.5488810000000  0.5632200000000 1.0
C      1  0.6165490000000  0.4457740000000  0.4641050000000 1.0
C      1  0.3931880000000  0.5489260000000  0.4881270000000 1.0
C      1  0.4820610000000  0.6220180000000  0.4550510000000 1.0
C      1  0.4501630000000  0.3863620000000  0.5625810000000 1.0
C      1  0.5478620000000  0.6129220000000  0.5491320000000 1.0
C      1  0.5391680000000  0.4541840000000  0.3771900000000 1.0
C      1  0.4615130000000  0.3644850000000  0.5541000000000 1.0
C      1  0.3856040000000  0.5427160000000  0.4613160000000 1.0
C      1  0.4557230000000  0.5529090000000  0.4027890000000 1.0
C      1  0.5165270000000  0.5518720000000  0.6268400000000 1.0
C      1  0.4673280000000  0.4560350000000  0.6278330000000 1.0
C      1  0.5347470000000  0.6196380000000  0.5262800000000 1.0
C      1  0.4586350000000  0.6147970000000  0.4705400000000 1.0
C      1  0.5442050000000  0.3936610000000  0.4658580000000 1.0
C      1  0.6095080000000  0.4628660000000  0.4424750000000 1.0
C      1  0.3736750000000  0.4816100000000  0.5458160000000 1.0
C      1  0.6286460000000  0.5298560000000  0.5467370000000 1.0
C      1  0.4769490000000  0.4933120000000  0.5425400000000 1.0
C      1  0.5358420000000  0.4829940000000  0.5039050000000 1.0
C      1  0.4915100000000  0.5404410000000  0.4731080000000 1.0
C      1  0.5239820000000  0.4966190000000  0.5459510000000 1.0
C      1  0.5214880000000  0.5019080000000  0.4614560000000 1.0
C      1  0.4749450000000  0.4869970000000  0.4557250000000 1.0
C      1  0.4576390000000  0.5214810000000  0.5061380000000 1.0
C      1  0.4603580000000  0.4747420000000  0.4967620000000 1.0
C      1  0.5476180000000  0.5253960000000  0.4980950000000 1.0
C      1  0.5029290000000  0.4573590000000  0.4810510000000 1.0
C      1  0.5025850000000  0.5275820000000  0.5180930000000 1.0
C      1  0.5107510000000  0.4541180000000  0.5340670000000 1.0
C      1  0.5023790000000  0.4802710000000  0.5417690000000 1.0
C      1  0.4845370000000  0.5285740000000  0.4963720000000 1.0
C      1  0.5427710000000  0.5008260000000  0.4816830000000 1.0
C      1  0.4864740000000  0.5232550000000  0.5438440000000 1.0
C      1  0.5117890000000  0.5292720000000  0.4556110000000 1.0
C      1  0.4986150000000  0.4852170000000  0.4704140000000 1.0
C      1  0.5242670000000  0.4565580000000  0.5009750000000 1.0
C      1  0.4781170000000  0.4532820000000  0.4975290000000 1.0
C      1  0.5277360000000  0.5375320000000  0.5133320000000 1.0
C      1  0.4499470000000  0.4802080000000  0.4703940000000 1.0
C      1  0.5442160000000  0.4930310000000  0.5280320000000 1.0
C      1  0.4619850000000  0.4939050000000  0.5162100000000 1.0
C      1  0.5025450000000  0.4579890000000  0.4070060000000 1.0
C      1  0.4250570000000  0.4978470000000  0.4371780000000 1.0
C      1  0.4653780000000  0.4097250000000  0.4999670000000 1.0
C      1  0.4781350000000  0.5478700000000  0.4192750000000 1.0
C      1  0.4982450000000  0.4534290000000  0.5901750000000 1.0
C      1  0.4891800000000  0.5468820000000  0.5871790000000 1.0
C      1  0.5841310000000  0.5025790000000  0.4544580000000 1.0
C      1  0.5776210000000  0.4935980000000  0.5572270000000 1.0
C      1  0.4178920000000  0.5036400000000  0.5455700000000 1.0
C      1  0.5373090000000  0.5810960000000  0.4975090000000 1.0
C      1  0.5558220000000  0.4184690000000  0.5041900000000 1.0
C      1  0.4379820000000  0.5678790000000  0.4971240000000 1.0
C      1  0.4475650000000  0.4947450000000  0.4184000000000 1.0
C      1  0.4880970000000  0.4244740000000  0.4462970000000 1.0
C      1  0.4189160000000  0.4454480000000  0.5073920000000 1.0
C      1  0.5479630000000  0.5027390000000  0.4201420000000 1.0
C      1  0.4520950000000  0.5040900000000  0.5846500000000 1.0
C      1  0.5551200000000  0.4981850000000  0.5776150000000 1.0
C      1  0.4904910000000  0.5678350000000  0.4350820000000 1.0
C      1  0.4881340000000  0.5822830000000  0.5331060000000 1.0
C      1  0.5127320000000  0.4086060000000  0.5348350000000 1.0
C      1  0.5923600000000  0.5377510000000  0.4952610000000 1.0
C      1  0.4209270000000  0.5466030000000  0.4910280000000 1.0
C      1  0.5903900000000  0.4530310000000  0.5019540000000 1.0
C      1  0.5717490000000  0.4484720000000  0.4071430000000 1.0
C      1  0.4101270000000  0.5886180000000  0.4585150000000 1.0
C      1  0.4381060000000  0.4110190000000  0.5670890000000 1.0
C      1  0.4101740000000  0.5600400000000  0.4199670000000 1.0
C      1  0.4339230000000  0.4517290000000  0.5931020000000 1.0
C      1  0.5579940000000  0.5578770000000  0.6037190000000 1.0
C      1  0.5862220000000  0.4246320000000  0.4478020000000 1.0
C      1  0.5993950000000  0.5630680000000  0.5750620000000 1.0
C      1  0.3985260000000  0.4421030000000  0.5580920000000 1.0
C      1  0.5601940000000  0.5948210000000  0.5671620000000 1.0
C      1  0.5466620000000  0.4092910000000  0.4244060000000 1.0
C      1  0.4428730000000  0.5946580000000  0.4263790000000 1.0
C      1  0.4357950000000  0.5702960000000  0.4127550000000 1.0
C      1  0.5631060000000  0.4077290000000  0.4479840000000 1.0
C      1  0.4163420000000  0.4603880000000  0.5719170000000 1.0
C      1  0.5523600000000  0.4273500000000  0.4042710000000 1.0
C      1  0.4522630000000  0.4333460000000  0.5790520000000 1.0
C      1  0.5477030000000  0.5804980000000  0.5888070000000 1.0
C      1  0.4359780000000  0.6027580000000  0.4537650000000 1.0
C      1  0.5869450000000  0.5856800000000  0.5630050000000 1.0
C      1  0.4106950000000  0.4162060000000  0.5591380000000 1.0
C      1  0.5849390000000  0.5522660000000  0.5970410000000 1.0
C      1  0.3982120000000  0.5644320000000  0.4454190000000 1.0
C      1  0.5893180000000  0.4464380000000  0.4288400000000 1.0
C      1  0.5324140000000  0.5511850000000  0.4585420000000 1.0
C      1  0.5309200000000  0.4464160000000  0.5561620000000 1.0
C      1  0.4285630000000  0.4586210000000  0.4622300000000 1.0
C      1  0.4589260000000  0.5363090000000  0.5329540000000 1.0
END
