TITL C-3201373-1215-2001 6.05943173234286e-06 125000 -789.339525337177 0 0 127 (C3i) n - 1
REM
REM in /home/nfs/bkarasulu/CARBON/AIRSS/Generating-Clusters/LCBOP/Higher-Symm/SD-CG/FIRE-CG
REM
REM
REM
REM
REM
REM ./C.cell (b20cbc046b6831c77cfcea5457e17084)
REM AIRSS Version 0.9.1 bugfix July 2018 build 013d7b7c2542+ Fri, 06 Jul 2018 19:26:36 +0100
REM compiler GCC version 9.2.1 20190827 (Red Hat 9.2.1-1)
REM options -cpp -mtune=generic -march=x86-64 -g -O0 -fpre-include=/usr/include/finclude/math-vector-fortran.h
REM seed -787309091 579603811 1666902767 694474742 -2097396426 1634545576 1011595332 2093300448 -1335645853 -1412869853 1898900922 1145279801 822006871 635037491 465397060 -452703412 -1732790788 -1428246993 -952338462 850935053 -1600837913 1215656519 1717555322 1776261638 56520311 -493013058 1237571837 534369051 422204157 -1938520036 410507279 1303713322 36312909
REM
CELL 1.54180   50.00000   50.00000   50.00000   90.00000   90.00000   90.00000
LATT -1
SFAC C  
C      1  0.4202810000000  0.5326120000000  0.5584610000000 1.0
C      1  0.4094290000000  0.4678100000000  0.4601560000000 1.0
C      1  0.4891380000000  0.5326120000000  0.4016080000000 1.0
C      1  0.5796960000000  0.4678070000000  0.4413620000000 1.0
C      1  0.5905480000000  0.5326090000000  0.5396660000000 1.0
C      1  0.5108390000000  0.4678070000000  0.5982150000000 1.0
C      1  0.4463180000000  0.4215360000000  0.4593890000000 1.0
C      1  0.5082490000000  0.5788840000000  0.4331720000000 1.0
C      1  0.5619150000000  0.4215340000000  0.4736930000000 1.0
C      1  0.5536590000000  0.5788830000000  0.5404340000000 1.0
C      1  0.4917280000000  0.4215350000000  0.5666500000000 1.0
C      1  0.4380620000000  0.5788850000000  0.5261300000000 1.0
C      1  0.5078880000000  0.5114270000000  0.4019730000000 1.0
C      1  0.5887550000000  0.4889910000000  0.4577820000000 1.0
C      1  0.5808570000000  0.5114250000000  0.5557220000000 1.0
C      1  0.4920890000000  0.4889920000000  0.5978500000000 1.0
C      1  0.4112220000000  0.5114280000000  0.5420400000000 1.0
C      1  0.4191200000000  0.4889940000000  0.4441010000000 1.0
C      1  0.4944000000000  0.4422080000000  0.4156530000000 1.0
C      1  0.5701650000000  0.5582110000000  0.4529440000000 1.0
C      1  0.5757510000000  0.4422060000000  0.5372010000000 1.0
C      1  0.5055770000000  0.5582110000000  0.5841700000000 1.0
C      1  0.4298110000000  0.4422090000000  0.5468790000000 1.0
C      1  0.4242260000000  0.5582130000000  0.4626220000000 1.0
C      1  0.4401120000000  0.5814560000000  0.4614720000000 1.0
C      1  0.5033380000000  0.4189660000000  0.4288350000000 1.0
C      1  0.5632190000000  0.5814530000000  0.4672760000000 1.0
C      1  0.5598650000000  0.4189630000000  0.5383510000000 1.0
C      1  0.4966390000000  0.5814540000000  0.5709880000000 1.0
C      1  0.4367580000000  0.4189660000000  0.5325460000000 1.0
C      1  0.5638980000000  0.5820550000000  0.5144950000000 1.0
C      1  0.5193120000000  0.4183620000000  0.5625480000000 1.0
C      1  0.4554070000000  0.5820570000000  0.5479670000000 1.0
C      1  0.4360780000000  0.4183640000000  0.4853280000000 1.0
C      1  0.4806650000000  0.5820570000000  0.4372740000000 1.0
C      1  0.5445700000000  0.4183620000000  0.4518560000000 1.0
C      1  0.5872890000000  0.5371230000000  0.4622320000000 1.0
C      1  0.5762700000000  0.4632930000000  0.5566750000000 1.0
C      1  0.4889710000000  0.5371240000000  0.5943560000000 1.0
C      1  0.4126880000000  0.4632960000000  0.5375910000000 1.0
C      1  0.4237070000000  0.5371260000000  0.4431480000000 1.0
C      1  0.5110060000000  0.4632950000000  0.4054670000000 1.0
C      1  0.5362290000000  0.4580310000000  0.5888350000000 1.0
C      1  0.4411000000000  0.5423870000000  0.5757600000000 1.0
C      1  0.4048570000000  0.4580340000000  0.4868350000000 1.0
C      1  0.4637480000000  0.5423880000000  0.4109880000000 1.0
C      1  0.5588770000000  0.4580320000000  0.4240630000000 1.0
C      1  0.5951200000000  0.5423850000000  0.5129870000000 1.0
C      1  0.5200350000000  0.5262880000000  0.5159390000000 1.0
C      1  0.4961310000000  0.4741310000000  0.5252850000000 1.0
C      1  0.4760860000000  0.5262890000000  0.5092580000000 1.0
C      1  0.4799420000000  0.4741310000000  0.4838840000000 1.0
C      1  0.5038460000000  0.5262880000000  0.4745380000000 1.0
C      1  0.5238910000000  0.4741300000000  0.4905650000000 1.0
C      1  0.5071270000000  0.5138520000000  0.5964950000000 1.0
C      1  0.4199140000000  0.4865680000000  0.5543850000000 1.0
C      1  0.4127760000000  0.5138550000000  0.4578020000000 1.0
C      1  0.4928500000000  0.4865680000000  0.4033280000000 1.0
C      1  0.5800630000000  0.5138510000000  0.4454380000000 1.0
C      1  0.5872010000000  0.4865650000000  0.5420210000000 1.0
C      1  0.5482430000000  0.5471110000000  0.4368690000000 1.0
C      1  0.5787110000000  0.4533060000000  0.5101780000000 1.0
C      1  0.5304590000000  0.5471100000000  0.5732220000000 1.0
C      1  0.4517340000000  0.4533080000000  0.5629530000000 1.0
C      1  0.4212660000000  0.5471130000000  0.4896440000000 1.0
C      1  0.4695180000000  0.4533090000000  0.4266010000000 1.0
C      1  0.4792790000000  0.4280280000000  0.5112900000000 1.0
C      1  0.4797810000000  0.5723920000000  0.4876680000000 1.0
C      1  0.5004860000000  0.4280280000000  0.4762880000000 1.0
C      1  0.5206980000000  0.5723910000000  0.4885330000000 1.0
C      1  0.5201960000000  0.4280270000000  0.5121550000000 1.0
C      1  0.4994910000000  0.5723910000000  0.5235350000000 1.0
C      1  0.4682610000000  0.4837840000000  0.4226070000000 1.0
C      1  0.5510720000000  0.5166360000000  0.4337830000000 1.0
C      1  0.5827990000000  0.4837810000000  0.5110860000000 1.0
C      1  0.5317160000000  0.5166350000000  0.5772160000000 1.0
C      1  0.4489050000000  0.4837830000000  0.5660400000000 1.0
C      1  0.4171780000000  0.5166380000000  0.4887360000000 1.0
C      1  0.5056610000000  0.5084770000000  0.4531500000000 1.0
C      1  0.5433210000000  0.4919410000000  0.4814430000000 1.0
C      1  0.5376490000000  0.5084760000000  0.5282040000000 1.0
C      1  0.4943160000000  0.4919420000000  0.5466720000000 1.0
C      1  0.4566560000000  0.5084780000000  0.5183800000000 1.0
C      1  0.4623280000000  0.4919430000000  0.4716190000000 1.0
C      1  0.5233510000000  0.5581070000000  0.4440950000000 1.0
C      1  0.5600070000000  0.4423110000000  0.4922340000000 1.0
C      1  0.5366480000000  0.5581060000000  0.5480520000000 1.0
C      1  0.4766260000000  0.4423120000000  0.5557280000000 1.0
C      1  0.4399700000000  0.5581080000000  0.5075890000000 1.0
C      1  0.4633290000000  0.4423130000000  0.4517710000000 1.0
C      1  0.5327430000000  0.4488180000000  0.4991350000000 1.0
C      1  0.5170400000000  0.5516000000000  0.5278910000000 1.0
C      1  0.4842820000000  0.4488180000000  0.5286660000000 1.0
C      1  0.4672340000000  0.5516010000000  0.5006880000000 1.0
C      1  0.4829370000000  0.4488190000000  0.4719320000000 1.0
C      1  0.5156950000000  0.5516010000000  0.4711570000000 1.0
C      1  0.5557980000000  0.4981970000000  0.5077830000000 1.0
C      1  0.5210770000000  0.5022200000000  0.5521800000000 1.0
C      1  0.4652670000000  0.4981990000000  0.5443080000000 1.0
C      1  0.4441790000000  0.5022220000000  0.4920400000000 1.0
C      1  0.4789000000000  0.4981990000000  0.4476430000000 1.0
C      1  0.5347100000000  0.5022200000000  0.4555150000000 1.0
C      1  0.4616150000000  0.5269800000000  0.5895850000000 1.0
C      1  0.4031420000000  0.4734410000000  0.5115150000000 1.0
C      1  0.4415170000000  0.5269820000000  0.4218420000000 1.0
C      1  0.5383620000000  0.4734390000000  0.4102380000000 1.0
C      1  0.5968350000000  0.5269790000000  0.4883080000000 1.0
C      1  0.5584600000000  0.4734370000000  0.5779810000000 1.0
C      1  0.4106190000000  0.4303560000000  0.4893220000000 1.0
C      1  0.4644760000000  0.5700660000000  0.4172230000000 1.0
C      1  0.5538410000000  0.4303540000000  0.4278110000000 1.0
C      1  0.5893570000000  0.5700630000000  0.5105010000000 1.0
C      1  0.5355010000000  0.4303530000000  0.5826000000000 1.0
C      1  0.4461360000000  0.5700650000000  0.5720120000000 1.0
C      1  0.5967320000000  0.4965330000000  0.4864400000000 1.0
C      1  0.5600270000000  0.5038820000000  0.5769580000000 1.0
C      1  0.4632830000000  0.4965350000000  0.5904300000000 1.0
C      1  0.4032450000000  0.5038860000000  0.5133830000000 1.0
C      1  0.4399500000000  0.4965370000000  0.4228650000000 1.0
C      1  0.5366940000000  0.5038840000000  0.4093930000000 1.0
C      1  0.4527240000000  0.4175010000000  0.5087600000000 1.0
C      1  0.4686950000000  0.5829200000000  0.4634060000000 1.0
C      1  0.5159540000000  0.4175000000000  0.4545550000000 1.0
C      1  0.5472530000000  0.5829180000000  0.4910630000000 1.0
C      1  0.5312820000000  0.4174990000000  0.5364170000000 1.0
C      1  0.4840230000000  0.5829190000000  0.5452680000000 1.0
C      1  0.4999880000000  0.5002100000000  0.4999110000000 1.0
END
