TITL C-3201378-2706-2286 66846.1218545142 125000 -847.197124246231 0 0 138 (C1) n - 1
REM
REM in /home/nfs/bkarasulu/CARBON/AIRSS/Generating-Clusters/LCBOP/Higher-Symm/SD-CG/FIRE-CG
REM
REM
REM
REM
REM
REM ./C.cell (b20cbc046b6831c77cfcea5457e17084)
REM AIRSS Version 0.9.1 bugfix July 2018 build 013d7b7c2542+ Fri, 06 Jul 2018 19:26:36 +0100
REM compiler GCC version 9.2.1 20190827 (Red Hat 9.2.1-1)
REM options -cpp -mtune=generic -march=x86-64 -g -O0 -fpre-include=/usr/include/finclude/math-vector-fortran.h
REM seed -1077672295 388355226 -936925515 -1823074424 -957521131 -929845040 2083372758 354576579 155075546 -1951508719 -675498554 -1941297322 1594385473 2069865077 -964200299 92339589 -909722750 2054254224 -406308063 1960436943 1788401762 -1093740781 163040999 730536046 -1812855058 -1570766143 -1776576031 -649577238 705585417 1513617534 813692940 842321336 -1138290069
REM
CELL 1.54180   50.00000   50.00000   50.00000   90.00000   90.00000   90.00000
LATT -1
SFAC C  
C      1  0.5536590000000  0.5686260000000  0.5349560000000 1.0
C      1  0.4483800000000  0.5612810000000  0.5804220000000 1.0
C      1  0.4545160000000  0.5349930000000  0.5902650000000 1.0
C      1  0.4261230000000  0.5325590000000  0.5397730000000 1.0
C      1  0.5174690000000  0.4556390000000  0.5638660000000 1.0
C      1  0.5572540000000  0.5314360000000  0.4370930000000 1.0
C      1  0.5660220000000  0.4009460000000  0.5088530000000 1.0
C      1  0.6106270000000  0.5021730000000  0.5533350000000 1.0
C      1  0.5046930000000  0.5084270000000  0.4857600000000 1.0
C      1  0.4518890000000  0.5475150000000  0.4481540000000 1.0
C      1  0.4526640000000  0.4943150000000  0.5307020000000 1.0
C      1  0.5219600000000  0.4622820000000  0.4425620000000 1.0
C      1  0.5712890000000  0.4895310000000  0.5889720000000 1.0
C      1  0.5853980000000  0.4312670000000  0.5421790000000 1.0
C      1  0.5744710000000  0.4845030000000  0.4444750000000 1.0
C      1  0.4190380000000  0.4543470000000  0.4196170000000 1.0
C      1  0.5031130000000  0.4823690000000  0.4991830000000 1.0
C      1  0.4925790000000  0.5382710000000  0.5217760000000 1.0
C      1  0.5235510000000  0.3931050000000  0.5547550000000 1.0
C      1  0.4777450000000  0.4659650000000  0.4481610000000 1.0
C      1  0.5171120000000  0.4213280000000  0.4174810000000 1.0
C      1  0.5645140000000  0.5160190000000  0.6002640000000 1.0
C      1  0.4331380000000  0.5307180000000  0.4622880000000 1.0
C      1  0.3934160000000  0.4965120000000  0.5028280000000 1.0
C      1  0.4548460000000  0.4192730000000  0.5151650000000 1.0
C      1  0.5518890000000  0.4812970000000  0.5342450000000 1.0
C      1  0.4829020000000  0.5114860000000  0.4476300000000 1.0
C      1  0.4513210000000  0.4880120000000  0.4811200000000 1.0
C      1  0.4796050000000  0.4922170000000  0.5706570000000 1.0
C      1  0.4542070000000  0.4604660000000  0.4887350000000 1.0
C      1  0.4338820000000  0.5173000000000  0.4903300000000 1.0
C      1  0.4828000000000  0.5333740000000  0.5901770000000 1.0
C      1  0.5573970000000  0.4353540000000  0.4720070000000 1.0
C      1  0.4675180000000  0.4590760000000  0.4223740000000 1.0
C      1  0.4394060000000  0.5097080000000  0.5832310000000 1.0
C      1  0.4074780000000  0.4341160000000  0.5078460000000 1.0
C      1  0.5746040000000  0.4172120000000  0.4876600000000 1.0
C      1  0.4103040000000  0.4802860000000  0.4217620000000 1.0
C      1  0.4807800000000  0.3916090000000  0.4797730000000 1.0
C      1  0.4429170000000  0.4457530000000  0.4316660000000 1.0
C      1  0.5078370000000  0.4291010000000  0.4720570000000 1.0
C      1  0.5236250000000  0.5526630000000  0.4905580000000 1.0
C      1  0.5097970000000  0.6020610000000  0.4827050000000 1.0
C      1  0.5426440000000  0.4122030000000  0.5517290000000 1.0
C      1  0.4674760000000  0.4903170000000  0.4580610000000 1.0
C      1  0.4570800000000  0.4033590000000  0.4909380000000 1.0
C      1  0.5311330000000  0.4390440000000  0.4844930000000 1.0
C      1  0.4445270000000  0.6032610000000  0.5228120000000 1.0
C      1  0.5997330000000  0.4433380000000  0.5196210000000 1.0
C      1  0.5407940000000  0.5748750000000  0.4540520000000 1.0
C      1  0.5986900000000  0.4715610000000  0.5191500000000 1.0
C      1  0.4741730000000  0.6032550000000  0.5203810000000 1.0
C      1  0.5426430000000  0.4835120000000  0.4789340000000 1.0
C      1  0.5137420000000  0.4721080000000  0.4004390000000 1.0
C      1  0.4253890000000  0.5048370000000  0.4198820000000 1.0
C      1  0.6021630000000  0.4486880000000  0.4688400000000 1.0
C      1  0.4593960000000  0.5745440000000  0.4531310000000 1.0
C      1  0.4711300000000  0.4434860000000  0.5157580000000 1.0
C      1  0.5812350000000  0.5037090000000  0.4674950000000 1.0
C      1  0.4910450000000  0.5224750000000  0.3891630000000 1.0
C      1  0.5615880000000  0.5194490000000  0.5543560000000 1.0
C      1  0.5949870000000  0.5434370000000  0.5301750000000 1.0
C      1  0.5758680000000  0.4555690000000  0.4560300000000 1.0
C      1  0.5903630000000  0.5234320000000  0.5496590000000 1.0
C      1  0.5120580000000  0.5595400000000  0.4211060000000 1.0
C      1  0.5018180000000  0.5849050000000  0.4326070000000 1.0
C      1  0.5285000000000  0.6023720000000  0.5045500000000 1.0
C      1  0.4842830000000  0.5883480000000  0.5459480000000 1.0
C      1  0.5284400000000  0.4820350000000  0.5738620000000 1.0
C      1  0.4031010000000  0.4850840000000  0.5269250000000 1.0
C      1  0.4564100000000  0.5766780000000  0.5577550000000 1.0
C      1  0.4038720000000  0.5229890000000  0.4980940000000 1.0
C      1  0.5571180000000  0.5027780000000  0.4247760000000 1.0
C      1  0.6176660000000  0.4896830000000  0.5287410000000 1.0
C      1  0.4514890000000  0.5120460000000  0.4112910000000 1.0
C      1  0.5425290000000  0.4380620000000  0.5649380000000 1.0
C      1  0.3926050000000  0.4778760000000  0.4805870000000 1.0
C      1  0.5701630000000  0.5505270000000  0.4866100000000 1.0
C      1  0.5180720000000  0.5933360000000  0.4554150000000 1.0
C      1  0.5288110000000  0.4875090000000  0.4540170000000 1.0
C      1  0.4581480000000  0.5610540000000  0.4980040000000 1.0
C      1  0.5260420000000  0.4654340000000  0.4934330000000 1.0
C      1  0.4851430000000  0.4489240000000  0.5486660000000 1.0
C      1  0.5744390000000  0.4459870000000  0.5669070000000 1.0
C      1  0.4923240000000  0.5413310000000  0.4113180000000 1.0
C      1  0.4725730000000  0.5002980000000  0.3937860000000 1.0
C      1  0.4292580000000  0.4296260000000  0.5263670000000 1.0
C      1  0.4546440000000  0.4554120000000  0.5656760000000 1.0
C      1  0.4157550000000  0.5164570000000  0.4453430000000 1.0
C      1  0.5090020000000  0.5079680000000  0.4572550000000 1.0
C      1  0.4994170000000  0.4511840000000  0.4564040000000 1.0
C      1  0.4827690000000  0.5996560000000  0.4924110000000 1.0
C      1  0.4537480000000  0.4825790000000  0.5794150000000 1.0
C      1  0.4291270000000  0.4772620000000  0.5346080000000 1.0
C      1  0.5460010000000  0.5634170000000  0.4788730000000 1.0
C      1  0.3966580000000  0.4883810000000  0.4548460000000 1.0
C      1  0.5744950000000  0.5316230000000  0.4631310000000 1.0
C      1  0.4691980000000  0.5312840000000  0.4296190000000 1.0
C      1  0.5660540000000  0.4100280000000  0.5354830000000 1.0
C      1  0.5070620000000  0.5328050000000  0.4986460000000 1.0
C      1  0.4963960000000  0.5470990000000  0.5694340000000 1.0
C      1  0.3803350000000  0.5669370000000  0.4972790000000 1.0
C      1  0.3961040000000  0.4506310000000  0.4893090000000 1.0
C      1  0.4401020000000  0.4134700000000  0.4703750000000 1.0
C      1  0.5022240000000  0.4889280000000  0.5265660000000 1.0
C      1  0.4432440000000  0.4398150000000  0.4613170000000 1.0
C      1  0.4338720000000  0.4511750000000  0.5457720000000 1.0
C      1  0.5388550000000  0.5541070000000  0.4327720000000 1.0
C      1  0.3991620000000  0.5503280000000  0.5080490000000 1.0
C      1  0.5564140000000  0.4897160000000  0.5627580000000 1.0
C      1  0.4792720000000  0.4925030000000  0.5420110000000 1.0
C      1  0.4339900000000  0.5808300000000  0.5377750000000 1.0
C      1  0.4998960000000  0.4039020000000  0.4625320000000 1.0
C      1  0.5287240000000  0.4982270000000  0.5303470000000 1.0
C      1  0.5736910000000  0.5559960000000  0.5161510000000 1.0
C      1  0.5398680000000  0.5303240000000  0.5901190000000 1.0
C      1  0.4931550000000  0.5077210000000  0.5895400000000 1.0
C      1  0.5992140000000  0.4322040000000  0.4928950000000 1.0
C      1  0.4740220000000  0.5886400000000  0.4337030000000 1.0
C      1  0.5338420000000  0.5245440000000  0.5419640000000 1.0
C      1  0.5669790000000  0.4919550000000  0.4893560000000 1.0
C      1  0.4456760000000  0.5206450000000  0.5191970000000 1.0
C      1  0.5144290000000  0.5832940000000  0.5504180000000 1.0
C      1  0.4832970000000  0.4744120000000  0.4011910000000 1.0
C      1  0.5083870000000  0.5384940000000  0.5451820000000 1.0
C      1  0.5727670000000  0.4820640000000  0.5147970000000 1.0
C      1  0.4654050000000  0.5807260000000  0.4799190000000 1.0
C      1  0.5388890000000  0.5592980000000  0.5682340000000 1.0
C      1  0.5360690000000  0.4926800000000  0.4055700000000 1.0
C      1  0.5889350000000  0.4674620000000  0.5828940000000 1.0
C      1  0.6123040000000  0.4821680000000  0.5742760000000 1.0
C      1  0.4166930000000  0.5583060000000  0.5304010000000 1.0
C      1  0.4202720000000  0.5182640000000  0.5634970000000 1.0
C      1  0.5224590000000  0.4494680000000  0.4168200000000 1.0
C      1  0.5071790000000  0.4021640000000  0.4346680000000 1.0
C      1  0.5205540000000  0.5060820000000  0.5882710000000 1.0
C      1  0.4658050000000  0.5416800000000  0.5162380000000 1.0
C      1  0.5331960000000  0.5883140000000  0.5284710000000 1.0
END
