TITL C-3201379-3821-2084 -1.46495235999129e-07 125000 -193.692955797983 0 0 32 (Oh) n - 1
REM
REM in /home/nfs/bkarasulu/CARBON/AIRSS/Generating-Clusters/LCBOP/Higher-Symm/SD-CG/FIRE-CG
REM
REM
REM
REM
REM
REM ./C.cell (b20cbc046b6831c77cfcea5457e17084)
REM AIRSS Version 0.9.1 bugfix July 2018 build 013d7b7c2542+ Fri, 06 Jul 2018 19:26:36 +0100
REM compiler GCC version 9.2.1 20190827 (Red Hat 9.2.1-1)
REM options -cpp -mtune=generic -march=x86-64 -g -O0 -fpre-include=/usr/include/finclude/math-vector-fortran.h
REM seed 254386848 393658950 1594017616 -113947870 -1051943232 -1256940870 -1359442460 -2052360206 1887992668 -785616305 -1437881693 -603976316 202497602 1621715377 -1390829288 -573627631 -716751879 -1816249634 818896392 402989560 -115451642 1003498333 73890804 -777487362 1774495956 -1445355175 -1409899788 621978932 1263329608 -231093459 -2053855145 -352815702 1432112671
REM
CELL 1.54180   50.00000   50.00000   50.00000   90.00000   90.00000   90.00000
LATT -1
SFAC C  
C      1  0.5462090000000  0.5135740000000  0.5490540000000 1.0
C      1  0.5462090000000  0.5477690000000  0.5148600000000 1.0
C      1  0.5120150000000  0.5477690000000  0.5490540000000 1.0
C      1  0.4512200000000  0.5135740000000  0.4540650000000 1.0
C      1  0.5462090000000  0.4869740000000  0.4540650000000 1.0
C      1  0.4512200000000  0.4869740000000  0.5490540000000 1.0
C      1  0.4512200000000  0.5477690000000  0.4882590000000 1.0
C      1  0.5462090000000  0.4527800000000  0.4882590000000 1.0
C      1  0.4512200000000  0.4527800000000  0.5148600000000 1.0
C      1  0.4854140000000  0.5477690000000  0.4540650000000 1.0
C      1  0.5120150000000  0.4527800000000  0.4540650000000 1.0
C      1  0.4854140000000  0.4527800000000  0.5490540000000 1.0
C      1  0.5462090000000  0.4869740000000  0.5490540000000 1.0
C      1  0.5462090000000  0.4527800000000  0.5148600000000 1.0
C      1  0.5120150000000  0.4527800000000  0.5490540000000 1.0
C      1  0.4512200000000  0.4869740000000  0.4540650000000 1.0
C      1  0.5462090000000  0.5135740000000  0.4540650000000 1.0
C      1  0.4512200000000  0.5135740000000  0.5490540000000 1.0
C      1  0.4512200000000  0.4527800000000  0.4882590000000 1.0
C      1  0.5462090000000  0.5477690000000  0.4882590000000 1.0
C      1  0.4512200000000  0.5477690000000  0.5148600000000 1.0
C      1  0.4854140000000  0.4527800000000  0.4540650000000 1.0
C      1  0.5120150000000  0.5477690000000  0.4540650000000 1.0
C      1  0.4854140000000  0.5477690000000  0.5490540000000 1.0
C      1  0.4612780000000  0.4628370000000  0.5389960000000 1.0
C      1  0.5361520000000  0.4628370000000  0.4641220000000 1.0
C      1  0.4612780000000  0.5377110000000  0.4641220000000 1.0
C      1  0.4612780000000  0.5377110000000  0.5389960000000 1.0
C      1  0.5361520000000  0.5377110000000  0.4641220000000 1.0
C      1  0.5361520000000  0.4628370000000  0.5389960000000 1.0
C      1  0.5361520000000  0.5377110000000  0.5389960000000 1.0
C      1  0.4612780000000  0.4628370000000  0.4641220000000 1.0
END
