TITL C-3201373-1215-2026 12758.572624172 125000 -1008.62035371021 0 0 164 (C1) n - 1
REM
REM in /home/nfs/bkarasulu/CARBON/AIRSS/Generating-Clusters/LCBOP/Higher-Symm/SD-CG/FIRE-CG
REM
REM
REM
REM
REM
REM ./C.cell (b20cbc046b6831c77cfcea5457e17084)
REM AIRSS Version 0.9.1 bugfix July 2018 build 013d7b7c2542+ Fri, 06 Jul 2018 19:26:36 +0100
REM compiler GCC version 9.2.1 20190827 (Red Hat 9.2.1-1)
REM options -cpp -mtune=generic -march=x86-64 -g -O0 -fpre-include=/usr/include/finclude/math-vector-fortran.h
REM seed -1744085775 -1449110611 -1987876473 -914618325 403318284 1488703761 -217249845 -1554083868 -339375912 -397582289 716028855 1110359259 -1364269790 595482934 1187336071 1504163120 -1560654167 -1965420524 1444528416 763229190 -347525904 1673430427 -1226919931 -571169499 -1631215635 976904729 2028724915 1225765477 -949025812 -1680439320 1408593357 1912532948 -1860763398
REM
CELL 1.54180   50.00000   50.00000   50.00000   90.00000   90.00000   90.00000
LATT -1
SFAC C  
C      1  0.5379770000000  0.3874010000000  0.4867220000000 1.0
C      1  0.3773010000000  0.4950310000000  0.5417770000000 1.0
C      1  0.4775650000000  0.5298340000000  0.3755360000000 1.0
C      1  0.5377100000000  0.6128480000000  0.5160920000000 1.0
C      1  0.4634110000000  0.3854040000000  0.5183560000000 1.0
C      1  0.4641750000000  0.6168250000000  0.4837610000000 1.0
C      1  0.3792980000000  0.5090100000000  0.4636840000000 1.0
C      1  0.6218640000000  0.4933190000000  0.4641680000000 1.0
C      1  0.6228360000000  0.5035710000000  0.5418830000000 1.0
C      1  0.4817410000000  0.4606530000000  0.6170270000000 1.0
C      1  0.5166370000000  0.5313830000000  0.6177590000000 1.0
C      1  0.5192040000000  0.4644470000000  0.3823030000000 1.0
C      1  0.4632880000000  0.3853910000000  0.4891200000000 1.0
C      1  0.6172230000000  0.4756520000000  0.5356160000000 1.0
C      1  0.5060010000000  0.5347440000000  0.3727880000000 1.0
C      1  0.4631740000000  0.6170990000000  0.5129050000000 1.0
C      1  0.5376800000000  0.3854420000000  0.5157860000000 1.0
C      1  0.5388740000000  0.6184010000000  0.4875590000000 1.0
C      1  0.6189680000000  0.5219110000000  0.4694630000000 1.0
C      1  0.3817300000000  0.4807430000000  0.4697810000000 1.0
C      1  0.3817340000000  0.5231680000000  0.5359980000000 1.0
C      1  0.5105560000000  0.4547400000000  0.6194030000000 1.0
C      1  0.4879010000000  0.5348170000000  0.6142610000000 1.0
C      1  0.4908180000000  0.4585550000000  0.3826430000000 1.0
C      1  0.5571640000000  0.4020630000000  0.5279980000000 1.0
C      1  0.4011000000000  0.5352610000000  0.5531510000000 1.0
C      1  0.5150260000000  0.5569300000000  0.3882100000000 1.0
C      1  0.5617980000000  0.6069890000000  0.4752010000000 1.0
C      1  0.4398860000000  0.3986110000000  0.4788740000000 1.0
C      1  0.4426080000000  0.5998200000000  0.5230280000000 1.0
C      1  0.3997870000000  0.4669840000000  0.4522290000000 1.0
C      1  0.6016640000000  0.5357690000000  0.4503630000000 1.0
C      1  0.5977520000000  0.4633310000000  0.5531960000000 1.0
C      1  0.5170760000000  0.4320150000000  0.6022780000000 1.0
C      1  0.4803330000000  0.5570410000000  0.5978910000000 1.0
C      1  0.4835500000000  0.4383090000000  0.4012060000000 1.0
C      1  0.4428750000000  0.4023400000000  0.5296370000000 1.0
C      1  0.6107760000000  0.5115860000000  0.5663120000000 1.0
C      1  0.4643030000000  0.5488200000000  0.3920570000000 1.0
C      1  0.4442320000000  0.5998780000000  0.4719970000000 1.0
C      1  0.5584230000000  0.4053810000000  0.4765310000000 1.0
C      1  0.5588030000000  0.5950710000000  0.5249120000000 1.0
C      1  0.6064210000000  0.4848490000000  0.4419550000000 1.0
C      1  0.3922770000000  0.5163130000000  0.4395370000000 1.0
C      1  0.3925000000000  0.4859370000000  0.5642220000000 1.0
C      1  0.4667650000000  0.4398730000000  0.6041870000000 1.0
C      1  0.5312820000000  0.5507070000000  0.6027480000000 1.0
C      1  0.5339100000000  0.4508260000000  0.4025420000000 1.0
C      1  0.4431570000000  0.5505650000000  0.5220430000000 1.0
C      1  0.5535370000000  0.5328660000000  0.4267650000000 1.0
C      1  0.5156880000000  0.4357840000000  0.5519070000000 1.0
C      1  0.4446610000000  0.4468730000000  0.4769240000000 1.0
C      1  0.5547950000000  0.5608020000000  0.4668480000000 1.0
C      1  0.5520840000000  0.4505330000000  0.5270270000000 1.0
C      1  0.5489090000000  0.4670530000000  0.5722480000000 1.0
C      1  0.4502570000000  0.5289840000000  0.5596570000000 1.0
C      1  0.4468170000000  0.4667080000000  0.4340150000000 1.0
C      1  0.5171850000000  0.5594340000000  0.4373710000000 1.0
C      1  0.4813680000000  0.4379320000000  0.4518730000000 1.0
C      1  0.4827910000000  0.5620520000000  0.5468800000000 1.0
C      1  0.5693840000000  0.5439680000000  0.5200880000000 1.0
C      1  0.4402120000000  0.5209600000000  0.4374060000000 1.0
C      1  0.4628120000000  0.4422160000000  0.5551560000000 1.0
C      1  0.5750820000000  0.4545700000000  0.4797420000000 1.0
C      1  0.4329050000000  0.5511210000000  0.4705880000000 1.0
C      1  0.4241740000000  0.4504540000000  0.5300450000000 1.0
C      1  0.4409390000000  0.4788310000000  0.5666340000000 1.0
C      1  0.5638560000000  0.5206170000000  0.5640950000000 1.0
C      1  0.5587990000000  0.4874340000000  0.4511330000000 1.0
C      1  0.4633720000000  0.5613190000000  0.4395500000000 1.0
C      1  0.5339040000000  0.4486440000000  0.4523880000000 1.0
C      1  0.5373480000000  0.5560690000000  0.5545270000000 1.0
C      1  0.5262080000000  0.4793470000000  0.6143330000000 1.0
C      1  0.4869450000000  0.6238860000000  0.5269830000000 1.0
C      1  0.6272390000000  0.5298040000000  0.4954340000000 1.0
C      1  0.5227370000000  0.5135720000000  0.3649290000000 1.0
C      1  0.4728890000000  0.4778260000000  0.3728980000000 1.0
C      1  0.4728150000000  0.5110940000000  0.6152720000000 1.0
C      1  0.4880570000000  0.3927490000000  0.4763990000000 1.0
C      1  0.5152550000000  0.6253480000000  0.4738680000000 1.0
C      1  0.5142350000000  0.3768450000000  0.5289160000000 1.0
C      1  0.6258580000000  0.4671790000000  0.5101390000000 1.0
C      1  0.3746160000000  0.5326770000000  0.5105360000000 1.0
C      1  0.3714840000000  0.4722040000000  0.4946330000000 1.0
C      1  0.4796620000000  0.4862700000000  0.6042100000000 1.0
C      1  0.5137270000000  0.6205870000000  0.5290610000000 1.0
C      1  0.3732150000000  0.5269980000000  0.4843860000000 1.0
C      1  0.4678240000000  0.5040060000000  0.3705250000000 1.0
C      1  0.5279600000000  0.4875750000000  0.3689780000000 1.0
C      1  0.5265770000000  0.5055940000000  0.6255060000000 1.0
C      1  0.5134130000000  0.3802560000000  0.4741340000000 1.0
C      1  0.4885010000000  0.6244430000000  0.4717270000000 1.0
C      1  0.4874240000000  0.3774280000000  0.5307780000000 1.0
C      1  0.3685350000000  0.4783270000000  0.5207100000000 1.0
C      1  0.6298830000000  0.5215350000000  0.5210520000000 1.0
C      1  0.6292340000000  0.4754670000000  0.4847580000000 1.0
C      1  0.5732680000000  0.5741000000000  0.5097200000000 1.0
C      1  0.5842310000000  0.5039650000000  0.5732450000000 1.0
C      1  0.5233400000000  0.5626440000000  0.5778990000000 1.0
C      1  0.5710180000000  0.4279720000000  0.4898950000000 1.0
C      1  0.4327720000000  0.5758400000000  0.4829490000000 1.0
C      1  0.4293320000000  0.4250050000000  0.5174990000000 1.0
C      1  0.5811010000000  0.4965670000000  0.4370320000000 1.0
C      1  0.4175280000000  0.5058330000000  0.4314960000000 1.0
C      1  0.4189150000000  0.4949060000000  0.5708980000000 1.0
C      1  0.5239580000000  0.4405230000000  0.4271960000000 1.0
C      1  0.4754170000000  0.5623770000000  0.4146270000000 1.0
C      1  0.4752950000000  0.4313100000000  0.5780700000000 1.0
C      1  0.4345040000000  0.5748360000000  0.5109650000000 1.0
C      1  0.4234570000000  0.5222960000000  0.5655590000000 1.0
C      1  0.4946310000000  0.5665420000000  0.5747990000000 1.0
C      1  0.4327570000000  0.4245490000000  0.4892360000000 1.0
C      1  0.5697240000000  0.5801110000000  0.4808990000000 1.0
C      1  0.5647780000000  0.4273990000000  0.5174790000000 1.0
C      1  0.4207970000000  0.4776930000000  0.4354650000000 1.0
C      1  0.5804660000000  0.5245530000000  0.4336700000000 1.0
C      1  0.5775550000000  0.4757130000000  0.5702110000000 1.0
C      1  0.4959570000000  0.4337050000000  0.4263600000000 1.0
C      1  0.5038400000000  0.5647320000000  0.4132710000000 1.0
C      1  0.5038750000000  0.4277060000000  0.5766590000000 1.0
C      1  0.4771360000000  0.4876060000000  0.4441740000000 1.0
C      1  0.4876940000000  0.4665800000000  0.4636910000000 1.0
C      1  0.4654580000000  0.4665470000000  0.4865020000000 1.0
C      1  0.4714130000000  0.5134360000000  0.5430720000000 1.0
C      1  0.5342290000000  0.4944770000000  0.5331900000000 1.0
C      1  0.5251280000000  0.5245390000000  0.4695650000000 1.0
C      1  0.4953930000000  0.5337320000000  0.5399370000000 1.0
C      1  0.5005260000000  0.4437040000000  0.5281660000000 1.0
C      1  0.5055450000000  0.5411470000000  0.4569520000000 1.0
C      1  0.4549830000000  0.5166680000000  0.5103010000000 1.0
C      1  0.5451310000000  0.4766480000000  0.5127470000000 1.0
C      1  0.5400770000000  0.5432760000000  0.4838730000000 1.0
C      1  0.5383750000000  0.4998870000000  0.4682380000000 1.0
C      1  0.5158210000000  0.4619210000000  0.4709920000000 1.0
C      1  0.5287390000000  0.4803530000000  0.4876590000000 1.0
C      1  0.5406310000000  0.5071000000000  0.5556180000000 1.0
C      1  0.4762050000000  0.4872510000000  0.5556000000000 1.0
C      1  0.4608010000000  0.5097550000000  0.4553550000000 1.0
C      1  0.5222870000000  0.5420920000000  0.5330430000000 1.0
C      1  0.4787700000000  0.4635990000000  0.5359680000000 1.0
C      1  0.4819060000000  0.5496740000000  0.4711990000000 1.0
C      1  0.5401900000000  0.5410990000000  0.5111400000000 1.0
C      1  0.4695280000000  0.4798750000000  0.5093890000000 1.0
C      1  0.4619000000000  0.5274890000000  0.4807550000000 1.0
C      1  0.5289640000000  0.5134460000000  0.4219400000000 1.0
C      1  0.4953420000000  0.4862870000000  0.5789210000000 1.0
C      1  0.4876880000000  0.5686090000000  0.4935770000000 1.0
C      1  0.4987430000000  0.4319930000000  0.5021670000000 1.0
C      1  0.4888220000000  0.5751030000000  0.5199970000000 1.0
C      1  0.4904090000000  0.4212170000000  0.4763500000000 1.0
C      1  0.5729960000000  0.4837170000000  0.5011890000000 1.0
C      1  0.5799020000000  0.5118290000000  0.5082030000000 1.0
C      1  0.4204230000000  0.4753500000000  0.5161240000000 1.0
C      1  0.4292540000000  0.5007130000000  0.5112980000000 1.0
C      1  0.5056650000000  0.5010100000000  0.4269840000000 1.0
C      1  0.5256250000000  0.4802640000000  0.5845490000000 1.0
C      1  0.4539930000000  0.5545000000000  0.5476520000000 1.0
C      1  0.5456780000000  0.5578240000000  0.4396080000000 1.0
C      1  0.5410210000000  0.4479320000000  0.5527390000000 1.0
C      1  0.4518240000000  0.4433020000000  0.4486640000000 1.0
C      1  0.4389300000000  0.5487640000000  0.4439370000000 1.0
C      1  0.4372460000000  0.4536010000000  0.5551180000000 1.0
C      1  0.5599660000000  0.4596050000000  0.4563090000000 1.0
C      1  0.5649120000000  0.5457590000000  0.5507570000000 1.0
END
