TITL C-3201372-1405-1294 -5.61911336905002e-07 125000 -373.279788515686 0 0 65 (C1) n - 1
REM
REM in /home/nfs/bkarasulu/CARBON/AIRSS/Generating-Clusters/LCBOP/Higher-Symm/SD-CG/FIRE-CG
REM
REM
REM
REM
REM
REM ./C.cell (b20cbc046b6831c77cfcea5457e17084)
REM AIRSS Version 0.9.1 bugfix July 2018 build 013d7b7c2542+ Fri, 06 Jul 2018 19:26:36 +0100
REM compiler GCC version 9.2.1 20190827 (Red Hat 9.2.1-1)
REM options -cpp -mtune=generic -march=x86-64 -g -O0 -fpre-include=/usr/include/finclude/math-vector-fortran.h
REM seed 253671157 -1438180319 1309473938 1127552652 -700480606 -1560453524 -2010396011 -1123331754 859544682 1651346492 283296937 1756761362 -1587321790 346019189 1896345977 1735051167 -533992402 -2036112174 -1983766694 49294797 -1452468615 -1400880981 -386981641 1134078086 2088309340 877527792 255663621 542111424 1498165873 954980628 -31140182 1294292949 -1602125346
REM
CELL 1.54180   50.00000   50.00000   50.00000   90.00000   90.00000   90.00000
LATT -1
SFAC C  
C      1  0.5680230000000  0.4733370000000  0.5121820000000 1.0
C      1  0.5692400000000  0.5276700000000  0.4874400000000 1.0
C      1  0.5669810000000  0.4745960000000  0.4839400000000 1.0
C      1  0.5683040000000  0.5263130000000  0.5157520000000 1.0
C      1  0.5484290000000  0.5574540000000  0.4606640000000 1.0
C      1  0.5469570000000  0.4444530000000  0.5395150000000 1.0
C      1  0.5464630000000  0.5526200000000  0.5450100000000 1.0
C      1  0.5438280000000  0.4493740000000  0.4547780000000 1.0
C      1  0.4021650000000  0.4649390000000  0.4890080000000 1.0
C      1  0.4107160000000  0.5399660000000  0.5104640000000 1.0
C      1  0.3970810000000  0.4626670000000  0.5135190000000 1.0
C      1  0.4086150000000  0.5424900000000  0.4857900000000 1.0
C      1  0.4798400000000  0.5168160000000  0.5951780000000 1.0
C      1  0.4816960000000  0.4817510000000  0.4021350000000 1.0
C      1  0.4810700000000  0.5084030000000  0.4025240000000 1.0
C      1  0.4799420000000  0.4901630000000  0.5945310000000 1.0
C      1  0.4811760000000  0.4596820000000  0.4170730000000 1.0
C      1  0.4791800000000  0.5401400000000  0.5822370000000 1.0
C      1  0.4794720000000  0.4673120000000  0.5807920000000 1.0
C      1  0.4798840000000  0.5299690000000  0.4181460000000 1.0
C      1  0.5541210000000  0.5367760000000  0.5684830000000 1.0
C      1  0.5518760000000  0.4651080000000  0.4313030000000 1.0
C      1  0.5559020000000  0.5441130000000  0.4355680000000 1.0
C      1  0.5552160000000  0.4577110000000  0.5643400000000 1.0
C      1  0.5259490000000  0.5357960000000  0.5308020000000 1.0
C      1  0.5241350000000  0.4671510000000  0.4692030000000 1.0
C      1  0.5277010000000  0.5393460000000  0.4722420000000 1.0
C      1  0.5264080000000  0.4628940000000  0.5279580000000 1.0
C      1  0.5435410000000  0.4858170000000  0.5232270000000 1.0
C      1  0.5444270000000  0.5160680000000  0.4764950000000 1.0
C      1  0.5424980000000  0.4888260000000  0.4756040000000 1.0
C      1  0.5431920000000  0.5131860000000  0.5243030000000 1.0
C      1  0.4297630000000  0.5197540000000  0.5161860000000 1.0
C      1  0.4273190000000  0.4779200000000  0.4851190000000 1.0
C      1  0.4341520000000  0.5122190000000  0.4801080000000 1.0
C      1  0.4312890000000  0.4832560000000  0.5205690000000 1.0
C      1  0.4791910000000  0.5391440000000  0.4431490000000 1.0
C      1  0.4787970000000  0.4552840000000  0.5569460000000 1.0
C      1  0.4783500000000  0.5521330000000  0.5583410000000 1.0
C      1  0.4795680000000  0.4496440000000  0.4417050000000 1.0
C      1  0.5556670000000  0.4913260000000  0.4238760000000 1.0
C      1  0.5570490000000  0.5104650000000  0.5759200000000 1.0
C      1  0.5575260000000  0.4831700000000  0.5744990000000 1.0
C      1  0.5571520000000  0.5186000000000  0.4252980000000 1.0
C      1  0.4178970000000  0.4872260000000  0.4467140000000 1.0
C      1  0.4165440000000  0.5099800000000  0.5524310000000 1.0
C      1  0.4207330000000  0.4860010000000  0.5477300000000 1.0
C      1  0.4249780000000  0.5107200000000  0.4524400000000 1.0
C      1  0.5643680000000  0.4465640000000  0.4764480000000 1.0
C      1  0.5668860000000  0.5545500000000  0.5232500000000 1.0
C      1  0.5664050000000  0.4445010000000  0.5168750000000 1.0
C      1  0.5682790000000  0.5567060000000  0.4829400000000 1.0
C      1  0.4609370000000  0.4803670000000  0.5202720000000 1.0
C      1  0.4644070000000  0.5128590000000  0.4813140000000 1.0
C      1  0.4505910000000  0.4613490000000  0.4779220000000 1.0
C      1  0.4584230000000  0.5262110000000  0.5230780000000 1.0
C      1  0.4780400000000  0.5447720000000  0.5312530000000 1.0
C      1  0.4767650000000  0.4551670000000  0.4692200000000 1.0
C      1  0.4808720000000  0.5329320000000  0.4703790000000 1.0
C      1  0.4789080000000  0.4611760000000  0.5295050000000 1.0
C      1  0.5024770000000  0.4583700000000  0.5136200000000 1.0
C      1  0.5032600000000  0.5415670000000  0.4862640000000 1.0
C      1  0.5010750000000  0.4594030000000  0.4843710000000 1.0
C      1  0.5027710000000  0.5434310000000  0.5158330000000 1.0
C      1  0.4710580000000  0.5042280000000  0.5081470000000 1.0
END
