TITL C-3201373-1215-1865 5.38315178858198e-07 125000 -435.407854142562 0 0 69 (C3h) n - 1
REM
REM in /home/nfs/bkarasulu/CARBON/AIRSS/Generating-Clusters/LCBOP/Higher-Symm/SD-CG/FIRE-CG
REM
REM
REM
REM
REM
REM ./C.cell (b20cbc046b6831c77cfcea5457e17084)
REM AIRSS Version 0.9.1 bugfix July 2018 build 013d7b7c2542+ Fri, 06 Jul 2018 19:26:36 +0100
REM compiler GCC version 9.2.1 20190827 (Red Hat 9.2.1-1)
REM options -cpp -mtune=generic -march=x86-64 -g -O0 -fpre-include=/usr/include/finclude/math-vector-fortran.h
REM seed -1487896281 1211962011 1824713814 1284706068 -2143380505 2007614248 50528223 968648630 788615418 -2003587463 1517870105 426698923 278776496 1678482309 96956341 -555547967 1720898408 -2098947025 202533146 1454771316 1879888989 -1967521024 1540340475 -181671155 1084622841 824109470 415592140 -204685133 -1328061022 195215792 -810191010 -956600273 -42346652
REM
CELL 1.54180   50.00000   50.00000   50.00000   90.00000   90.00000   90.00000
LATT -1
SFAC C  
C      1  0.4508550000000  0.5422480000000  0.5099170000000 1.0
C      1  0.5331610000000  0.5422480000000  0.5376020000000 1.0
C      1  0.5159840000000  0.5422480000000  0.4524800000000 1.0
C      1  0.4508550000000  0.4585500000000  0.5099170000000 1.0
C      1  0.5331610000000  0.4585500000000  0.5376020000000 1.0
C      1  0.5159840000000  0.4585500000000  0.4524810000000 1.0
C      1  0.4275920000000  0.5137850000000  0.4410280000000 1.0
C      1  0.4851320000000  0.5137860000000  0.5921930000000 1.0
C      1  0.5872760000000  0.5137850000000  0.4667790000000 1.0
C      1  0.4275920000000  0.4870120000000  0.4410280000000 1.0
C      1  0.4851320000000  0.4870130000000  0.5921930000000 1.0
C      1  0.5872760000000  0.4870120000000  0.4667790000000 1.0
C      1  0.5635440000000  0.5745950000000  0.5173630000000 1.0
C      1  0.4832650000000  0.5745950000000  0.4362870000000 1.0
C      1  0.4531910000000  0.5745950000000  0.5463490000000 1.0
C      1  0.5635440000000  0.4262030000000  0.5173630000000 1.0
C      1  0.4832650000000  0.4262030000000  0.4362880000000 1.0
C      1  0.4531910000000  0.4262030000000  0.5463500000000 1.0
C      1  0.5091850000000  0.4754200000000  0.4738660000000 1.0
C      1  0.4727750000000  0.4754200000000  0.5051130000000 1.0
C      1  0.5180400000000  0.4754200000000  0.5210210000000 1.0
C      1  0.5091850000000  0.5253780000000  0.4738660000000 1.0
C      1  0.4727750000000  0.5253780000000  0.5051130000000 1.0
C      1  0.5180400000000  0.5253780000000  0.5210210000000 1.0
C      1  0.4765790000000  0.5335800000000  0.5742770000000 1.0
C      1  0.5760360000000  0.5335790000000  0.4831450000000 1.0
C      1  0.4473850000000  0.5335790000000  0.4425780000000 1.0
C      1  0.4765790000000  0.4672190000000  0.5742770000000 1.0
C      1  0.5760360000000  0.4672190000000  0.4831450000000 1.0
C      1  0.4473850000000  0.4672190000000  0.4425780000000 1.0
C      1  0.4923580000000  0.4438870000000  0.5679750000000 1.0
C      1  0.5626890000000  0.4438870000000  0.4726310000000 1.0
C      1  0.4449530000000  0.4438870000000  0.4593950000000 1.0
C      1  0.4923580000000  0.5569110000000  0.5679750000000 1.0
C      1  0.5626890000000  0.5569110000000  0.4726300000000 1.0
C      1  0.4449530000000  0.5569110000000  0.4593940000000 1.0
C      1  0.4763030000000  0.4217520000000  0.5601030000000 1.0
C      1  0.5638990000000  0.4217520000000  0.4904710000000 1.0
C      1  0.4597980000000  0.4217520000000  0.4494270000000 1.0
C      1  0.4763030000000  0.5790460000000  0.5601020000000 1.0
C      1  0.5638990000000  0.5790460000000  0.4904710000000 1.0
C      1  0.4597980000000  0.5790460000000  0.4494260000000 1.0
C      1  0.5416170000000  0.4468190000000  0.4539760000000 1.0
C      1  0.4393340000000  0.4468190000000  0.4869710000000 1.0
C      1  0.5190500000000  0.4468190000000  0.5590530000000 1.0
C      1  0.5416170000000  0.5539790000000  0.4539760000000 1.0
C      1  0.4393340000000  0.5539790000000  0.4869710000000 1.0
C      1  0.5190500000000  0.5539790000000  0.5590530000000 1.0
C      1  0.4534820000000  0.4732720000000  0.5571240000000 1.0
C      1  0.5727300000000  0.4732720000000  0.5117240000000 1.0
C      1  0.4737880000000  0.4732720000000  0.4311520000000 1.0
C      1  0.4534820000000  0.5275270000000  0.5571240000000 1.0
C      1  0.5727300000000  0.5275260000000  0.5117240000000 1.0
C      1  0.4737880000000  0.5275260000000  0.4311520000000 1.0
C      1  0.4913370000000  0.5150020000000  0.5252020000000 1.0
C      1  0.5261570000000  0.5150020000000  0.4949010000000 1.0
C      1  0.4825060000000  0.5150020000000  0.4798970000000 1.0
C      1  0.4913370000000  0.4857970000000  0.5252020000000 1.0
C      1  0.5261570000000  0.4857960000000  0.4949010000000 1.0
C      1  0.4825060000000  0.4857960000000  0.4798970000000 1.0
C      1  0.4467880000000  0.4525850000000  0.5375620000000 1.0
C      1  0.5591350000000  0.4525850000000  0.5273020000000 1.0
C      1  0.4940770000000  0.4525840000000  0.4351360000000 1.0
C      1  0.4467880000000  0.5482140000000  0.5375620000000 1.0
C      1  0.5591350000000  0.5482140000000  0.5273020000000 1.0
C      1  0.4940770000000  0.5482130000000  0.4351360000000 1.0
C      1  0.4449140000000  0.5003990000000  0.5559830000000 1.0
C      1  0.5760260000000  0.5003990000000  0.5197140000000 1.0
C      1  0.4790600000000  0.5003990000000  0.4243030000000 1.0
END
