TITL C-3201374-830-653 -7.60890845385534e-08 125000 -16.3255200186644 0 0 4 (D3h) n - 1
REM
REM in /home/nfs/bkarasulu/CARBON/AIRSS/Generating-Clusters/LCBOP/Higher-Symm/SD-CG/FIRE-CG
REM
REM
REM
REM
REM
REM ./C.cell (b20cbc046b6831c77cfcea5457e17084)
REM AIRSS Version 0.9.1 bugfix July 2018 build 013d7b7c2542+ Fri, 06 Jul 2018 19:26:36 +0100
REM compiler GCC version 9.2.1 20190827 (Red Hat 9.2.1-1)
REM options -cpp -mtune=generic -march=x86-64 -g -O0 -fpre-include=/usr/include/finclude/math-vector-fortran.h
REM seed -1023083016 -657759884 438085384 88542232 1275765809 916410786 -1394497001 192145980 -205860089 -631117708 -1076899450 586480757 -133019950 -1379712204 -1634798107 2001365227 1033881114 -509465114 -1104207001 -1045865173 -1307130776 1952421452 -1893966727 2110664570 -1805147681 1031609072 1302142039 -1442814227 -504729457 -1149861106 1916882552 286882091 1701615708
REM
CELL 1.54180   50.00000   50.00000   50.00000   90.00000   90.00000   90.00000
LATT -1
SFAC C  
C      1  0.5204790000000  0.4943850000000  0.4827110000000 1.0
C      1  0.4736650000000  0.4943850000000  0.4906290000000 1.0
C      1  0.5039290000000  0.4943850000000  0.5272110000000 1.0
C      1  0.4993580000000  0.4943850000000  0.5001840000000 1.0
END
