TITL C-3201378-2706-2191 -1.21331214296168e-07 125000 -212.604529327148 0 0 35 (C1) n - 1
REM
REM in /home/nfs/bkarasulu/CARBON/AIRSS/Generating-Clusters/LCBOP/Higher-Symm/SD-CG/FIRE-CG
REM
REM
REM
REM
REM
REM ./C.cell (b20cbc046b6831c77cfcea5457e17084)
REM AIRSS Version 0.9.1 bugfix July 2018 build 013d7b7c2542+ Fri, 06 Jul 2018 19:26:36 +0100
REM compiler GCC version 9.2.1 20190827 (Red Hat 9.2.1-1)
REM options -cpp -mtune=generic -march=x86-64 -g -O0 -fpre-include=/usr/include/finclude/math-vector-fortran.h
REM seed -55381679 -290929682 -1149752113 -1758482561 97897829 -2107479943 -1564714387 675503905 -819790067 947167224 -1477856501 -1750659179 -1248404723 1164688772 -308500932 -1165055512 -1039574647 761137330 -2043665549 -902784275 680456645 -503117515 212497006 827815520 -92533509 1178665339 -638081818 383604945 919863391 -804111861 504121936 449267181 -565704799
REM
CELL 1.54180   50.00000   50.00000   50.00000   90.00000   90.00000   90.00000
LATT -1
SFAC C  
C      1  0.4739750000000  0.4870680000000  0.4857660000000 1.0
C      1  0.5374480000000  0.4405790000000  0.4727460000000 1.0
C      1  0.5216970000000  0.5064660000000  0.4795780000000 1.0
C      1  0.4670870000000  0.5544760000000  0.4650420000000 1.0
C      1  0.4401960000000  0.4630140000000  0.5288880000000 1.0
C      1  0.5074140000000  0.4769750000000  0.5175110000000 1.0
C      1  0.5532480000000  0.5332460000000  0.5272150000000 1.0
C      1  0.4877840000000  0.5248020000000  0.5111810000000 1.0
C      1  0.4948780000000  0.4577860000000  0.4569450000000 1.0
C      1  0.5636460000000  0.4822680000000  0.4740230000000 1.0
C      1  0.5126920000000  0.5488480000000  0.4595800000000 1.0
C      1  0.4404000000000  0.5150490000000  0.4746930000000 1.0
C      1  0.4811420000000  0.4362210000000  0.5177430000000 1.0
C      1  0.5500260000000  0.4878610000000  0.5344410000000 1.0
C      1  0.5133610000000  0.5599790000000  0.5254060000000 1.0
C      1  0.4578540000000  0.5062400000000  0.5423360000000 1.0
C      1  0.4805010000000  0.4821150000000  0.4581060000000 1.0
C      1  0.5590520000000  0.4561980000000  0.4694070000000 1.0
C      1  0.5108500000000  0.5204880000000  0.4565120000000 1.0
C      1  0.4604480000000  0.5274990000000  0.4576160000000 1.0
C      1  0.4563310000000  0.4415840000000  0.5265930000000 1.0
C      1  0.5219900000000  0.4882850000000  0.5397700000000 1.0
C      1  0.5278490000000  0.5390490000000  0.5392900000000 1.0
C      1  0.4831960000000  0.5182850000000  0.5392350000000 1.0
C      1  0.4956420000000  0.5517150000000  0.5045920000000 1.0
C      1  0.4437760000000  0.4904330000000  0.5227530000000 1.0
C      1  0.5022960000000  0.4508110000000  0.5061070000000 1.0
C      1  0.5574690000000  0.5078770000000  0.5151640000000 1.0
C      1  0.4925750000000  0.5594420000000  0.4771720000000 1.0
C      1  0.4484820000000  0.4963990000000  0.4949270000000 1.0
C      1  0.5104440000000  0.4462560000000  0.4784140000000 1.0
C      1  0.5491310000000  0.5020200000000  0.4880140000000 1.0
C      1  0.4838130000000  0.5099760000000  0.4489010000000 1.0
C      1  0.5112070000000  0.5150570000000  0.5479770000000 1.0
C      1  0.4987450000000  0.4992030000000  0.4985870000000 1.0
END
