TITL C-3201377-4638-465 -5.55217207330633e-07 125000 -749.517018507309 0 0 123 (C1) n - 1
REM
REM in /home/nfs/bkarasulu/CARBON/AIRSS/Generating-Clusters/LCBOP/Higher-Symm/SD-CG/FIRE-CG
REM
REM
REM
REM
REM
REM ./C.cell (b20cbc046b6831c77cfcea5457e17084)
REM AIRSS Version 0.9.1 bugfix July 2018 build 013d7b7c2542+ Fri, 06 Jul 2018 19:26:36 +0100
REM compiler GCC version 9.2.1 20190827 (Red Hat 9.2.1-1)
REM options -cpp -mtune=generic -march=x86-64 -g -O0 -fpre-include=/usr/include/finclude/math-vector-fortran.h
REM seed 1971033417 -1183405962 1608474719 -693106684 312769829 -371023916 -549873894 -1330516515 -1972459224 -1537489895 1716678906 -1849381951 -1590474403 639854136 338054447 326292069 1834712550 -1926473561 -1219405356 1466938830 596141074 -451954359 1097351145 -139151353 -856374519 639471335 1493303732 -1841260999 272994554 981526055 1387271065 -82185839 -1102992392
REM
CELL 1.54180   50.00000   50.00000   50.00000   90.00000   90.00000   90.00000
LATT -1
SFAC C  
C      1  0.4912650000000  0.4050110000000  0.4727450000000 1.0
C      1  0.5027930000000  0.4089150000000  0.5306670000000 1.0
C      1  0.4371540000000  0.4873850000000  0.4511800000000 1.0
C      1  0.4381510000000  0.4832200000000  0.5478230000000 1.0
C      1  0.5774530000000  0.4375310000000  0.4762450000000 1.0
C      1  0.5654470000000  0.4254090000000  0.5268280000000 1.0
C      1  0.4762370000000  0.5832680000000  0.5353990000000 1.0
C      1  0.4847140000000  0.5951440000000  0.4810970000000 1.0
C      1  0.5496800000000  0.5151530000000  0.5660480000000 1.0
C      1  0.5476810000000  0.5152480000000  0.4391210000000 1.0
C      1  0.5909210000000  0.4161410000000  0.5170900000000 1.0
C      1  0.5968560000000  0.4232600000000  0.4912650000000 1.0
C      1  0.5914980000000  0.5336080000000  0.4911620000000 1.0
C      1  0.5992600000000  0.5457160000000  0.5156110000000 1.0
C      1  0.4646910000000  0.4951070000000  0.3871300000000 1.0
C      1  0.4615760000000  0.4959010000000  0.6082270000000 1.0
C      1  0.4772340000000  0.5175130000000  0.5971330000000 1.0
C      1  0.4783600000000  0.5183160000000  0.3990130000000 1.0
C      1  0.4414120000000  0.5568330000000  0.5551150000000 1.0
C      1  0.4527650000000  0.5680550000000  0.4505600000000 1.0
C      1  0.4670000000000  0.5259350000000  0.5728450000000 1.0
C      1  0.4626230000000  0.5339920000000  0.4168050000000 1.0
C      1  0.4562390000000  0.5872750000000  0.4723970000000 1.0
C      1  0.4482570000000  0.5770020000000  0.5374920000000 1.0
C      1  0.4984600000000  0.6100310000000  0.5036880000000 1.0
C      1  0.4815240000000  0.6096060000000  0.5269130000000 1.0
C      1  0.4893030000000  0.4830110000000  0.4662310000000 1.0
C      1  0.4685430000000  0.4727890000000  0.5120270000000 1.0
C      1  0.4093480000000  0.5270580000000  0.4696690000000 1.0
C      1  0.4089530000000  0.5247850000000  0.5253130000000 1.0
C      1  0.4838050000000  0.4837210000000  0.4395070000000 1.0
C      1  0.4944410000000  0.4758210000000  0.5606820000000 1.0
C      1  0.5251160000000  0.5561950000000  0.4236880000000 1.0
C      1  0.5208960000000  0.5557320000000  0.5683250000000 1.0
C      1  0.5258220000000  0.6079380000000  0.5165200000000 1.0
C      1  0.5395780000000  0.5958280000000  0.5385200000000 1.0
C      1  0.5569720000000  0.4923230000000  0.5877260000000 1.0
C      1  0.5570410000000  0.4920970000000  0.4202500000000 1.0
C      1  0.5972030000000  0.5045150000000  0.4891170000000 1.0
C      1  0.5856360000000  0.4927070000000  0.5125310000000 1.0
C      1  0.5596820000000  0.5036330000000  0.5156560000000 1.0
C      1  0.5425640000000  0.5077800000000  0.4925270000000 1.0
C      1  0.5337240000000  0.5756390000000  0.4423310000000 1.0
C      1  0.5396440000000  0.5651640000000  0.5451750000000 1.0
C      1  0.4639160000000  0.4359530000000  0.4361420000000 1.0
C      1  0.4674250000000  0.4285410000000  0.5745500000000 1.0
C      1  0.4061440000000  0.4631100000000  0.5130640000000 1.0
C      1  0.4101560000000  0.4632840000000  0.4841930000000 1.0
C      1  0.5274300000000  0.4475030000000  0.4196060000000 1.0
C      1  0.5283900000000  0.4465730000000  0.5951140000000 1.0
C      1  0.4627040000000  0.4239090000000  0.5476310000000 1.0
C      1  0.4546370000000  0.4395870000000  0.4655600000000 1.0
C      1  0.5971120000000  0.4853060000000  0.4679990000000 1.0
C      1  0.5885250000000  0.4686360000000  0.5270090000000 1.0
C      1  0.5678990000000  0.5449970000000  0.4783110000000 1.0
C      1  0.5878470000000  0.5469660000000  0.5399020000000 1.0
C      1  0.5492220000000  0.4663170000000  0.4194680000000 1.0
C      1  0.5498170000000  0.4668980000000  0.5962320000000 1.0
C      1  0.5213960000000  0.4022200000000  0.5107060000000 1.0
C      1  0.5088590000000  0.3897270000000  0.4888880000000 1.0
C      1  0.5238240000000  0.5282320000000  0.5783370000000 1.0
C      1  0.5249850000000  0.5279210000000  0.4226180000000 1.0
C      1  0.4746240000000  0.4475820000000  0.5955990000000 1.0
C      1  0.4743890000000  0.4481720000000  0.4102440000000 1.0
C      1  0.4261100000000  0.4622470000000  0.5327990000000 1.0
C      1  0.4345050000000  0.4626290000000  0.4687190000000 1.0
C      1  0.5023660000000  0.4851430000000  0.4182420000000 1.0
C      1  0.5040610000000  0.4838660000000  0.5882570000000 1.0
C      1  0.5436890000000  0.4990830000000  0.4651200000000 1.0
C      1  0.5480900000000  0.4974500000000  0.5409960000000 1.0
C      1  0.4631960000000  0.5002830000000  0.5054560000000 1.0
C      1  0.4741430000000  0.5034420000000  0.4789120000000 1.0
C      1  0.4705880000000  0.4215390000000  0.4868260000000 1.0
C      1  0.4759450000000  0.4184720000000  0.5220800000000 1.0
C      1  0.4536540000000  0.5370410000000  0.4454910000000 1.0
C      1  0.4511240000000  0.5295360000000  0.5489460000000 1.0
C      1  0.5053460000000  0.5119290000000  0.4090100000000 1.0
C      1  0.5052680000000  0.5117470000000  0.5932880000000 1.0
C      1  0.3914190000000  0.5083820000000  0.4818930000000 1.0
C      1  0.3898570000000  0.5084610000000  0.5110580000000 1.0
C      1  0.5658320000000  0.4528040000000  0.5357500000000 1.0
C      1  0.5783310000000  0.4638980000000  0.4648660000000 1.0
C      1  0.5036050000000  0.4135190000000  0.4487460000000 1.0
C      1  0.5131470000000  0.4119550000000  0.5568890000000 1.0
C      1  0.4278870000000  0.5109680000000  0.5440770000000 1.0
C      1  0.4303680000000  0.5166110000000  0.4532830000000 1.0
C      1  0.5444850000000  0.4183330000000  0.5081330000000 1.0
C      1  0.5492850000000  0.4312430000000  0.4832550000000 1.0
C      1  0.5224120000000  0.4354490000000  0.5687120000000 1.0
C      1  0.5224880000000  0.4338590000000  0.4440450000000 1.0
C      1  0.4659280000000  0.5240690000000  0.5220630000000 1.0
C      1  0.4741400000000  0.5286250000000  0.4663620000000 1.0
C      1  0.5300400000000  0.4499980000000  0.4684390000000 1.0
C      1  0.5179840000000  0.4591500000000  0.5520770000000 1.0
C      1  0.4303190000000  0.5758550000000  0.5160000000000 1.0
C      1  0.4346240000000  0.5846890000000  0.4902470000000 1.0
C      1  0.5030780000000  0.4574060000000  0.4083510000000 1.0
C      1  0.5023380000000  0.4576730000000  0.6025610000000 1.0
C      1  0.4578770000000  0.4725980000000  0.4040290000000 1.0
C      1  0.4587150000000  0.4723040000000  0.5921460000000 1.0
C      1  0.5476770000000  0.5984580000000  0.4347690000000 1.0
C      1  0.5611440000000  0.6199020000000  0.4286110000000 1.0
C      1  0.4815230000000  0.5440290000000  0.5100070000000 1.0
C      1  0.4858860000000  0.5477270000000  0.4823550000000 1.0
C      1  0.5655500000000  0.5369640000000  0.4504010000000 1.0
C      1  0.5632650000000  0.5441370000000  0.5518020000000 1.0
C      1  0.4963390000000  0.4665610000000  0.5079190000000 1.0
C      1  0.5048650000000  0.4630050000000  0.4806480000000 1.0
C      1  0.4629350000000  0.4777240000000  0.5626120000000 1.0
C      1  0.4562140000000  0.4831630000000  0.4310230000000 1.0
C      1  0.4954060000000  0.5628060000000  0.5252740000000 1.0
C      1  0.4993630000000  0.5710730000000  0.4747210000000 1.0
C      1  0.4149080000000  0.5507200000000  0.5122480000000 1.0
C      1  0.4131720000000  0.5510650000000  0.4838220000000 1.0
C      1  0.5083940000000  0.4898220000000  0.5187660000000 1.0
C      1  0.5173600000000  0.5103750000000  0.5042270000000 1.0
C      1  0.5267470000000  0.5704300000000  0.4694100000000 1.0
C      1  0.5266550000000  0.5570520000000  0.5182760000000 1.0
C      1  0.5502100000000  0.4716510000000  0.4610810000000 1.0
C      1  0.5430070000000  0.4691690000000  0.5430350000000 1.0
C      1  0.3855340000000  0.4819520000000  0.5207470000000 1.0
C      1  0.3909900000000  0.4815280000000  0.4718930000000 1.0
C      1  0.5428110000000  0.5577820000000  0.4905310000000 1.0
END
