TITL C-3201377-4638-381 -5.80557703145293e-07 125000 -215.901810176786 0 0 35 (C5v) n - 1
REM
REM in /home/nfs/bkarasulu/CARBON/AIRSS/Generating-Clusters/LCBOP/Higher-Symm/SD-CG/FIRE-CG
REM
REM
REM
REM
REM
REM ./C.cell (b20cbc046b6831c77cfcea5457e17084)
REM AIRSS Version 0.9.1 bugfix July 2018 build 013d7b7c2542+ Fri, 06 Jul 2018 19:26:36 +0100
REM compiler GCC version 9.2.1 20190827 (Red Hat 9.2.1-1)
REM options -cpp -mtune=generic -march=x86-64 -g -O0 -fpre-include=/usr/include/finclude/math-vector-fortran.h
REM seed 2144529585 -79191165 537752701 5941252 1670346897 -1368780490 -944448847 -761369411 -24571255 -307269578 -58096917 -17325453 -421456679 -1638830354 965529138 613331915 -1293906468 993271053 1344387486 -1995662192 -1028237206 1724815844 744918015 -897114793 -67599433 259478883 -548531026 -1231840293 -436832227 -1512763390 1027863736 248098903 684573662
REM
CELL 1.54180   50.00000   50.00000   50.00000   90.00000   90.00000   90.00000
LATT -1
SFAC C  
C      1  0.4877720000000  0.4580880000000  0.4997810000000 1.0
C      1  0.4877710000000  0.4868400000000  0.5397930000000 1.0
C      1  0.4877700000000  0.5337780000000  0.5248130000000 1.0
C      1  0.4877700000000  0.5340360000000  0.4755420000000 1.0
C      1  0.4877710000000  0.4872570000000  0.4600710000000 1.0
C      1  0.5381870000000  0.5223010000000  0.5698760000000 1.0
C      1  0.5381870000000  0.5733480000000  0.5003840000000 1.0
C      1  0.5381880000000  0.5230310000000  0.4303620000000 1.0
C      1  0.5381900000000  0.4408880000000  0.4565780000000 1.0
C      1  0.5381900000000  0.4404370000000  0.5428020000000 1.0
C      1  0.5004380000000  0.5419780000000  0.5002200000000 1.0
C      1  0.5004390000000  0.5131810000000  0.4601440000000 1.0
C      1  0.5004400000000  0.4661680000000  0.4751480000000 1.0
C      1  0.5004400000000  0.4659100000000  0.5244970000000 1.0
C      1  0.5004380000000  0.5127630000000  0.5399920000000 1.0
C      1  0.5283790000000  0.4613580000000  0.4716140000000 1.0
C      1  0.5283790000000  0.4610630000000  0.5279800000000 1.0
C      1  0.5283770000000  0.5145790000000  0.5456780000000 1.0
C      1  0.5283760000000  0.5479480000000  0.5002510000000 1.0
C      1  0.5283780000000  0.5150560000000  0.4544770000000 1.0
C      1  0.4596650000000  0.4540720000000  0.4997590000000 1.0
C      1  0.4596640000000  0.4855780000000  0.5436050000000 1.0
C      1  0.4596620000000  0.5370140000000  0.5271900000000 1.0
C      1  0.4596630000000  0.5372960000000  0.4731990000000 1.0
C      1  0.4596640000000  0.4860350000000  0.4562460000000 1.0
C      1  0.5448760000000  0.5077910000000  0.4764470000000 1.0
C      1  0.5448770000000  0.4800080000000  0.4853140000000 1.0
C      1  0.5448770000000  0.4798550000000  0.5144770000000 1.0
C      1  0.5448760000000  0.5075440000000  0.5236340000000 1.0
C      1  0.5448760000000  0.5248090000000  0.5001300000000 1.0
C      1  0.4406830000000  0.5200500000000  0.5147290000000 1.0
C      1  0.4406830000000  0.5202030000000  0.4854810000000 1.0
C      1  0.4406840000000  0.4924340000000  0.4762970000000 1.0
C      1  0.4406840000000  0.4751180000000  0.4998690000000 1.0
C      1  0.4406840000000  0.4921860000000  0.5236220000000 1.0
END
