TITL C-3201374-830-322 -1257083.90654191 125000 -381.070798455936 0 0 72 (Td) n - 1
REM
REM in /home/nfs/bkarasulu/CARBON/AIRSS/Generating-Clusters/LCBOP/Higher-Symm/SD-CG/FIRE-CG
REM
REM
REM
REM
REM
REM ./C.cell (b20cbc046b6831c77cfcea5457e17084)
REM AIRSS Version 0.9.1 bugfix July 2018 build 013d7b7c2542+ Fri, 06 Jul 2018 19:26:36 +0100
REM compiler GCC version 9.2.1 20190827 (Red Hat 9.2.1-1)
REM options -cpp -mtune=generic -march=x86-64 -g -O0 -fpre-include=/usr/include/finclude/math-vector-fortran.h
REM seed 1553865394 -1848348520 -434976775 -851011330 -861013847 -1500577097 19830885 -1158057205 104162373 -1357405589 -511631485 -1323776212 836318489 931502451 -390989254 -1672253136 1564361585 -230405680 1238980620 1009280354 878336287 1467626033 -1254061950 1782636272 1258332996 114777175 76321846 1361944573 -744046898 -208363809 686058146 -170943115 -1772727862
REM
CELL 1.54180   50.00000   50.00000   50.00000   90.00000   90.00000   90.00000
LATT -1
SFAC C  
C      1  0.4993780000000  0.4586740000000  0.5218420000000 1.0
C      1  0.5218270000000  0.4993970000000  0.4586660000000 1.0
C      1  0.4586720000000  0.5218430000000  0.4993800000000 1.0
C      1  0.5006250000000  0.5413340000000  0.5218380000000 1.0
C      1  0.5006160000000  0.4586610000000  0.4781620000000 1.0
C      1  0.4993740000000  0.5413420000000  0.4781610000000 1.0
C      1  0.4781610000000  0.5006360000000  0.4586570000000 1.0
C      1  0.4781570000000  0.4993830000000  0.5413290000000 1.0
C      1  0.5218420000000  0.5006300000000  0.5413370000000 1.0
C      1  0.5413250000000  0.4781490000000  0.4993830000000 1.0
C      1  0.5413410000000  0.5218430000000  0.5006300000000 1.0
C      1  0.4586590000000  0.4781600000000  0.5006230000000 1.0
C      1  0.4586610000000  0.4993720000000  0.5218390000000 1.0
C      1  0.4993730000000  0.5218440000000  0.4586650000000 1.0
C      1  0.5218350000000  0.4586590000000  0.4993820000000 1.0
C      1  0.5413380000000  0.5006400000000  0.5218420000000 1.0
C      1  0.4586730000000  0.5006190000000  0.4781580000000 1.0
C      1  0.5413220000000  0.4994020000000  0.4781720000000 1.0
C      1  0.5006220000000  0.4781510000000  0.4586630000000 1.0
C      1  0.4993900000000  0.4781670000000  0.5413320000000 1.0
C      1  0.5006290000000  0.5218400000000  0.5413390000000 1.0
C      1  0.4781680000000  0.5413480000000  0.4993720000000 1.0
C      1  0.5218420000000  0.5413340000000  0.5006210000000 1.0
C      1  0.4781530000000  0.4586720000000  0.5006220000000 1.0
C      1  0.4306930000000  0.4980680000000  0.5311100000000 1.0
C      1  0.5311300000000  0.4306880000000  0.4981030000000 1.0
C      1  0.4980960000000  0.5311420000000  0.4306910000000 1.0
C      1  0.5693110000000  0.5019340000000  0.5311120000000 1.0
C      1  0.5692980000000  0.4980770000000  0.4688950000000 1.0
C      1  0.4306970000000  0.5019330000000  0.4689100000000 1.0
C      1  0.4688820000000  0.5693060000000  0.4980760000000 1.0
C      1  0.4688960000000  0.4306880000000  0.5019290000000 1.0
C      1  0.5311230000000  0.5693080000000  0.5019120000000 1.0
C      1  0.5018780000000  0.4688460000000  0.4306990000000 1.0
C      1  0.5019100000000  0.5311320000000  0.5693050000000 1.0
C      1  0.4981070000000  0.4688650000000  0.5693080000000 1.0
C      1  0.4980690000000  0.4306910000000  0.5311050000000 1.0
C      1  0.4306950000000  0.5310870000000  0.4980660000000 1.0
C      1  0.5311510000000  0.4981220000000  0.4307040000000 1.0
C      1  0.5019140000000  0.5693080000000  0.5311190000000 1.0
C      1  0.4980820000000  0.5693050000000  0.4688820000000 1.0
C      1  0.5018970000000  0.4306870000000  0.4688680000000 1.0
C      1  0.5693010000000  0.4688940000000  0.4980770000000 1.0
C      1  0.4306930000000  0.4688880000000  0.5019260000000 1.0
C      1  0.5693090000000  0.5311150000000  0.5019290000000 1.0
C      1  0.4688640000000  0.5019110000000  0.4306860000000 1.0
C      1  0.5311350000000  0.5019090000000  0.5693030000000 1.0
C      1  0.4688620000000  0.4981040000000  0.5693070000000 1.0
C      1  0.5249910000000  0.5692950000000  0.4529560000000 1.0
C      1  0.4529690000000  0.5249550000000  0.5693040000000 1.0
C      1  0.5693110000000  0.4529830000000  0.5249360000000 1.0
C      1  0.4750540000000  0.4306900000000  0.4529700000000 1.0
C      1  0.4750330000000  0.5692990000000  0.5470370000000 1.0
C      1  0.5249500000000  0.4306980000000  0.5470270000000 1.0
C      1  0.5470420000000  0.4750210000000  0.5692950000000 1.0
C      1  0.5470390000000  0.5249450000000  0.4306980000000 1.0
C      1  0.4529570000000  0.4750300000000  0.4307110000000 1.0
C      1  0.4306800000000  0.5470130000000  0.5249440000000 1.0
C      1  0.4307000000000  0.4529630000000  0.4750330000000 1.0
C      1  0.5692980000000  0.5470370000000  0.4750210000000 1.0
C      1  0.5693110000000  0.5249320000000  0.4529760000000 1.0
C      1  0.5249560000000  0.4529710000000  0.5693030000000 1.0
C      1  0.4529500000000  0.5692880000000  0.5249740000000 1.0
C      1  0.4306850000000  0.4750540000000  0.4529820000000 1.0
C      1  0.5692960000000  0.4750220000000  0.5470380000000 1.0
C      1  0.4306980000000  0.5249600000000  0.5470360000000 1.0
C      1  0.4750250000000  0.5470370000000  0.5692970000000 1.0
C      1  0.5249870000000  0.5470400000000  0.4307080000000 1.0
C      1  0.4750460000000  0.4529690000000  0.4306950000000 1.0
C      1  0.5470320000000  0.4306950000000  0.5249420000000 1.0
C      1  0.4529730000000  0.4306940000000  0.4750460000000 1.0
C      1  0.5470400000000  0.5693010000000  0.4750310000000 1.0
END
