TITL C-3201375-1262-1692 8.18909167535325e-08 125000 -526.398284225563 0 0 89 (C1) n - 1
REM
REM in /home/nfs/bkarasulu/CARBON/AIRSS/Generating-Clusters/LCBOP/Higher-Symm/SD-CG/FIRE-CG
REM
REM
REM
REM
REM
REM ./C.cell (b20cbc046b6831c77cfcea5457e17084)
REM AIRSS Version 0.9.1 bugfix July 2018 build 013d7b7c2542+ Fri, 06 Jul 2018 19:26:36 +0100
REM compiler GCC version 9.2.1 20190827 (Red Hat 9.2.1-1)
REM options -cpp -mtune=generic -march=x86-64 -g -O0 -fpre-include=/usr/include/finclude/math-vector-fortran.h
REM seed 204800618 -1269662319 -76155084 -497003509 -933754118 1243170754 -1611639025 -1405115647 -1085592853 -1586393929 1630587150 719777025 1591408555 -339332442 1096117875 -1404973580 856777892 -1562895455 -1961301321 1616810008 -1708679672 -423229695 1616652346 437119873 713743018 -223139859 -72989121 -913121780 1523888144 -2108926620 806993657 748567787 273991300
REM
CELL 1.54180   50.00000   50.00000   50.00000   90.00000   90.00000   90.00000
LATT -1
SFAC C  
C      1  0.5480020000000  0.4665510000000  0.5609060000000 1.0
C      1  0.5454100000000  0.4656800000000  0.4390130000000 1.0
C      1  0.5553960000000  0.5698180000000  0.5026430000000 1.0
C      1  0.4687690000000  0.5445430000000  0.5515840000000 1.0
C      1  0.4705200000000  0.4298110000000  0.5118140000000 1.0
C      1  0.4706500000000  0.5230850000000  0.4460550000000 1.0
C      1  0.4205930000000  0.4874260000000  0.5352150000000 1.0
C      1  0.4268000000000  0.4610700000000  0.4652750000000 1.0
C      1  0.4261680000000  0.5401860000000  0.4894070000000 1.0
C      1  0.5262420000000  0.4770410000000  0.5804920000000 1.0
C      1  0.5221680000000  0.4392080000000  0.4373420000000 1.0
C      1  0.5370730000000  0.5904690000000  0.4953070000000 1.0
C      1  0.5124850000000  0.5704870000000  0.4421460000000 1.0
C      1  0.5317560000000  0.5046000000000  0.5898990000000 1.0
C      1  0.5191010000000  0.4151910000000  0.4567560000000 1.0
C      1  0.5167810000000  0.5301410000000  0.5269220000000 1.0
C      1  0.5060160000000  0.4725830000000  0.5177520000000 1.0
C      1  0.5175440000000  0.4945600000000  0.4739360000000 1.0
C      1  0.5055050000000  0.4090020000000  0.4834460000000 1.0
C      1  0.4977610000000  0.5536700000000  0.4233950000000 1.0
C      1  0.4981890000000  0.5653840000000  0.5848940000000 1.0
C      1  0.5437370000000  0.5393960000000  0.4169910000000 1.0
C      1  0.5324830000000  0.5315310000000  0.5853100000000 1.0
C      1  0.5329670000000  0.4451800000000  0.4912360000000 1.0
C      1  0.4914040000000  0.5302660000000  0.5413040000000 1.0
C      1  0.4890920000000  0.4515650000000  0.5068090000000 1.0
C      1  0.4981440000000  0.5162170000000  0.4586500000000 1.0
C      1  0.4708310000000  0.5703000000000  0.4642780000000 1.0
C      1  0.4504280000000  0.4889400000000  0.5718070000000 1.0
C      1  0.4586010000000  0.4225970000000  0.4685530000000 1.0
C      1  0.4368430000000  0.4393670000000  0.4815430000000 1.0
C      1  0.4253200000000  0.5262360000000  0.4661740000000 1.0
C      1  0.4341730000000  0.5083570000000  0.5522750000000 1.0
C      1  0.5404810000000  0.4938850000000  0.4288190000000 1.0
C      1  0.5533740000000  0.5613020000000  0.5310770000000 1.0
C      1  0.5453930000000  0.4484510000000  0.5372660000000 1.0
C      1  0.4788470000000  0.4945210000000  0.5753360000000 1.0
C      1  0.4778000000000  0.4389100000000  0.4542710000000 1.0
C      1  0.5015000000000  0.5677040000000  0.4696060000000 1.0
C      1  0.5644880000000  0.5539000000000  0.4797710000000 1.0
C      1  0.5684540000000  0.4873580000000  0.5567380000000 1.0
C      1  0.5653590000000  0.4641390000000  0.4609550000000 1.0
C      1  0.5233670000000  0.5566080000000  0.5743180000000 1.0
C      1  0.5209890000000  0.4215820000000  0.5047200000000 1.0
C      1  0.5154570000000  0.5334960000000  0.4116660000000 1.0
C      1  0.5686240000000  0.4713760000000  0.4895650000000 1.0
C      1  0.5556590000000  0.5311670000000  0.4636830000000 1.0
C      1  0.5592700000000  0.5116190000000  0.5449690000000 1.0
C      1  0.5547540000000  0.4545550000000  0.5083830000000 1.0
C      1  0.5541640000000  0.5206900000000  0.4368740000000 1.0
C      1  0.5683000000000  0.5381980000000  0.5401920000000 1.0
C      1  0.4449900000000  0.5345170000000  0.5399160000000 1.0
C      1  0.4441150000000  0.4436050000000  0.5104900000000 1.0
C      1  0.4444350000000  0.5116270000000  0.4513190000000 1.0
C      1  0.4821760000000  0.4492360000000  0.5656780000000 1.0
C      1  0.4815750000000  0.4659290000000  0.4161380000000 1.0
C      1  0.4889130000000  0.5845740000000  0.5108170000000 1.0
C      1  0.4973420000000  0.4854020000000  0.4038730000000 1.0
C      1  0.5051740000000  0.5809250000000  0.5349070000000 1.0
C      1  0.4999040000000  0.4307830000000  0.5520410000000 1.0
C      1  0.4937800000000  0.4450350000000  0.4310120000000 1.0
C      1  0.5097150000000  0.5873670000000  0.4897840000000 1.0
C      1  0.4970350000000  0.4710060000000  0.5803820000000 1.0
C      1  0.5165210000000  0.5036200000000  0.4127490000000 1.0
C      1  0.5291430000000  0.5686810000000  0.5476650000000 1.0
C      1  0.5226320000000  0.4284860000000  0.5340760000000 1.0
C      1  0.4627060000000  0.5741430000000  0.4960270000000 1.0
C      1  0.4534270000000  0.4603600000000  0.5594980000000 1.0
C      1  0.4559510000000  0.4731570000000  0.4264290000000 1.0
C      1  0.4655520000000  0.4896670000000  0.5246610000000 1.0
C      1  0.4671840000000  0.4805910000000  0.4756180000000 1.0
C      1  0.4729770000000  0.5294390000000  0.4961990000000 1.0
C      1  0.4994720000000  0.5392170000000  0.4813640000000 1.0
C      1  0.4860140000000  0.5008840000000  0.5466580000000 1.0
C      1  0.4878390000000  0.4579370000000  0.4759060000000 1.0
C      1  0.4762230000000  0.4105810000000  0.4894620000000 1.0
C      1  0.4709700000000  0.5516190000000  0.4386360000000 1.0
C      1  0.4738020000000  0.5606370000000  0.5740310000000 1.0
C      1  0.5320050000000  0.5085520000000  0.5382470000000 1.0
C      1  0.5636250000000  0.4984960000000  0.4949400000000 1.0
C      1  0.5407560000000  0.5134540000000  0.4832800000000 1.0
C      1  0.4437400000000  0.4673960000000  0.5298230000000 1.0
C      1  0.4458610000000  0.4816740000000  0.4538190000000 1.0
C      1  0.4500050000000  0.5467990000000  0.5056220000000 1.0
C      1  0.5182540000000  0.4641380000000  0.4725540000000 1.0
C      1  0.5226480000000  0.5333080000000  0.4994830000000 1.0
C      1  0.5127030000000  0.4873850000000  0.5407460000000 1.0
C      1  0.4725680000000  0.4997930000000  0.4976420000000 1.0
C      1  0.5020630000000  0.4945010000000  0.4993490000000 1.0
END
