TITL C-3201375-1262-1749 0.40646692671829 125000 -304.425367030539 0 0 52 (C1) n - 1
REM
REM in /home/nfs/bkarasulu/CARBON/AIRSS/Generating-Clusters/LCBOP/Higher-Symm/SD-CG/FIRE-CG
REM
REM
REM
REM
REM
REM ./C.cell (b20cbc046b6831c77cfcea5457e17084)
REM AIRSS Version 0.9.1 bugfix July 2018 build 013d7b7c2542+ Fri, 06 Jul 2018 19:26:36 +0100
REM compiler GCC version 9.2.1 20190827 (Red Hat 9.2.1-1)
REM options -cpp -mtune=generic -march=x86-64 -g -O0 -fpre-include=/usr/include/finclude/math-vector-fortran.h
REM seed 2014727355 2020881321 -55142144 -561078273 53099428 -127761078 674652670 387292479 -564923397 -629176416 132733921 412112728 2088022316 -100797076 1363757717 -30311442 1728847271 1158385689 -1543520002 877631058 45577331 604536587 -1953763913 -2050910644 581555706 -2082732545 -1462012863 -762521062 113539067 -1705843509 -49886262 -2131068957 -1937282975
REM
CELL 1.54180   50.00000   50.00000   50.00000   90.00000   90.00000   90.00000
LATT -1
SFAC C  
C      1  0.5013480000000  0.5164130000000  0.5612020000000 1.0
C      1  0.4341760000000  0.5175760000000  0.4719720000000 1.0
C      1  0.5301040000000  0.4465270000000  0.4878010000000 1.0
C      1  0.4572980000000  0.5310340000000  0.4616600000000 1.0
C      1  0.5682730000000  0.5286750000000  0.5458020000000 1.0
C      1  0.4651190000000  0.5378110000000  0.5078810000000 1.0
C      1  0.4918670000000  0.5655300000000  0.4801350000000 1.0
C      1  0.5102150000000  0.4058750000000  0.4739700000000 1.0
C      1  0.5188460000000  0.5025890000000  0.5781380000000 1.0
C      1  0.4964400000000  0.5794260000000  0.5047390000000 1.0
C      1  0.5660360000000  0.5512330000000  0.5027040000000 1.0
C      1  0.4573910000000  0.5052760000000  0.5792240000000 1.0
C      1  0.4773180000000  0.4986530000000  0.4262940000000 1.0
C      1  0.5547300000000  0.5442630000000  0.5279270000000 1.0
C      1  0.4914600000000  0.4492000000000  0.4388660000000 1.0
C      1  0.4826440000000  0.4523150000000  0.5031530000000 1.0
C      1  0.4664420000000  0.4963400000000  0.5322200000000 1.0
C      1  0.5074290000000  0.4092920000000  0.5029330000000 1.0
C      1  0.5477660000000  0.4677790000000  0.4882810000000 1.0
C      1  0.5663520000000  0.5280900000000  0.4447710000000 1.0
C      1  0.5189040000000  0.4411380000000  0.4406520000000 1.0
C      1  0.5420980000000  0.5656230000000  0.4619920000000 1.0
C      1  0.5104310000000  0.5397510000000  0.5484410000000 1.0
C      1  0.4406320000000  0.5045000000000  0.5997260000000 1.0
C      1  0.4299710000000  0.5080080000000  0.4984670000000 1.0
C      1  0.4752480000000  0.4718920000000  0.5217770000000 1.0
C      1  0.5511910000000  0.4754350000000  0.6094270000000 1.0
C      1  0.5420530000000  0.5909010000000  0.5036660000000 1.0
C      1  0.5552010000000  0.5720700000000  0.4866770000000 1.0
C      1  0.4835070000000  0.4727880000000  0.4265140000000 1.0
C      1  0.5683450000000  0.5056700000000  0.4588480000000 1.0
C      1  0.4750680000000  0.5059390000000  0.5575890000000 1.0
C      1  0.4241390000000  0.5037060000000  0.6199000000000 1.0
C      1  0.4066810000000  0.4969690000000  0.5071530000000 1.0
C      1  0.4751270000000  0.4338280000000  0.4570460000000 1.0
C      1  0.5569160000000  0.5541650000000  0.4407210000000 1.0
C      1  0.5618510000000  0.4869270000000  0.4764770000000 1.0
C      1  0.4689340000000  0.5208330000000  0.4384320000000 1.0
C      1  0.4115090000000  0.4416840000000  0.4851730000000 1.0
C      1  0.5208340000000  0.5792340000000  0.5189810000000 1.0
C      1  0.5277070000000  0.4284620000000  0.4646980000000 1.0
C      1  0.5136870000000  0.5654740000000  0.4621710000000 1.0
C      1  0.4520180000000  0.5140870000000  0.5155800000000 1.0
C      1  0.5617940000000  0.5678830000000  0.4176440000000 1.0
C      1  0.4370550000000  0.4468260000000  0.4844100000000 1.0
C      1  0.4714570000000  0.5461800000000  0.4814020000000 1.0
C      1  0.4647770000000  0.4456610000000  0.4811680000000 1.0
C      1  0.5078370000000  0.4386960000000  0.5052120000000 1.0
C      1  0.4850460000000  0.4069230000000  0.4603230000000 1.0
C      1  0.5350040000000  0.4888500000000  0.5940120000000 1.0
C      1  0.5052140000000  0.3906580000000  0.5224040000000 1.0
C      1  0.5285080000000  0.5553430000000  0.5336450000000 1.0
END
