TITL C-3201377-4638-2199 4.10968437340822e-07 125000 -584.784807573517 0 0 96 (C1) n - 1
REM
REM in /home/nfs/bkarasulu/CARBON/AIRSS/Generating-Clusters/LCBOP/Higher-Symm/SD-CG/FIRE-CG
REM
REM
REM
REM
REM
REM ./C.cell (b20cbc046b6831c77cfcea5457e17084)
REM AIRSS Version 0.9.1 bugfix July 2018 build 013d7b7c2542+ Fri, 06 Jul 2018 19:26:36 +0100
REM compiler GCC version 9.2.1 20190827 (Red Hat 9.2.1-1)
REM options -cpp -mtune=generic -march=x86-64 -g -O0 -fpre-include=/usr/include/finclude/math-vector-fortran.h
REM seed -788102197 -1153918021 -217802619 589598370 -376246939 1303078574 407336398 707189152 -495647347 -840303243 1514810760 -408167723 948881255 -849408323 -107288487 -671202410 -263079403 -1504642692 -1067608206 912353435 2078228522 -303462444 745855494 -1772604459 -444509110 -690776184 -1730669285 -1749048962 -973778409 -49537198 -1839893097 -868763859 515050059
REM
CELL 1.54180   50.00000   50.00000   50.00000   90.00000   90.00000   90.00000
LATT -1
SFAC C  
C      1  0.4749590000000  0.5851650000000  0.4402470000000 1.0
C      1  0.4854560000000  0.4985280000000  0.5822280000000 1.0
C      1  0.5336700000000  0.5269750000000  0.5306850000000 1.0
C      1  0.5127600000000  0.4217200000000  0.5889930000000 1.0
C      1  0.5711460000000  0.5851330000000  0.4397570000000 1.0
C      1  0.4963060000000  0.4826910000000  0.4224440000000 1.0
C      1  0.4216020000000  0.5313890000000  0.5625590000000 1.0
C      1  0.3990970000000  0.5118340000000  0.4999210000000 1.0
C      1  0.5346470000000  0.4294800000000  0.5737760000000 1.0
C      1  0.4678370000000  0.5493650000000  0.5299290000000 1.0
C      1  0.5430610000000  0.4569100000000  0.5680090000000 1.0
C      1  0.5562680000000  0.4323440000000  0.5022730000000 1.0
C      1  0.4740440000000  0.4909870000000  0.4946990000000 1.0
C      1  0.5953520000000  0.5861330000000  0.4811580000000 1.0
C      1  0.4454340000000  0.5167280000000  0.5580490000000 1.0
C      1  0.5510070000000  0.5869850000000  0.5367140000000 1.0
C      1  0.4549550000000  0.5365660000000  0.4758360000000 1.0
C      1  0.4826130000000  0.5374290000000  0.4248980000000 1.0
C      1  0.5295930000000  0.4590630000000  0.4510790000000 1.0
C      1  0.4465830000000  0.4348590000000  0.4871790000000 1.0
C      1  0.4178090000000  0.5643990000000  0.5248090000000 1.0
C      1  0.4864650000000  0.4183240000000  0.5860390000000 1.0
C      1  0.5231270000000  0.4460420000000  0.4253700000000 1.0
C      1  0.4924670000000  0.4495980000000  0.4795880000000 1.0
C      1  0.5198910000000  0.5182280000000  0.5535180000000 1.0
C      1  0.5229840000000  0.6056700000000  0.4367920000000 1.0
C      1  0.5285640000000  0.5085050000000  0.4728330000000 1.0
C      1  0.6106170000000  0.5095950000000  0.4853070000000 1.0
C      1  0.4994350000000  0.4563410000000  0.4133860000000 1.0
C      1  0.4296760000000  0.5705070000000  0.5014820000000 1.0
C      1  0.4370220000000  0.4333110000000  0.4596500000000 1.0
C      1  0.4739780000000  0.4326900000000  0.4939940000000 1.0
C      1  0.4762970000000  0.5633450000000  0.4223530000000 1.0
C      1  0.4461510000000  0.4436100000000  0.5788560000000 1.0
C      1  0.5116710000000  0.5672910000000  0.5158410000000 1.0
C      1  0.5801790000000  0.5473110000000  0.5326430000000 1.0
C      1  0.5194030000000  0.4431790000000  0.4731050000000 1.0
C      1  0.4438150000000  0.4703080000000  0.5818150000000 1.0
C      1  0.5616730000000  0.5246850000000  0.5301090000000 1.0
C      1  0.5745870000000  0.5743580000000  0.5273870000000 1.0
C      1  0.5573780000000  0.4573960000000  0.5428200000000 1.0
C      1  0.5303530000000  0.4791620000000  0.5788810000000 1.0
C      1  0.5380330000000  0.4237100000000  0.4827910000000 1.0
C      1  0.4377840000000  0.5034960000000  0.4392640000000 1.0
C      1  0.4692530000000  0.4797380000000  0.5418970000000 1.0
C      1  0.4857300000000  0.5202160000000  0.4467030000000 1.0
C      1  0.6059340000000  0.5356920000000  0.5263020000000 1.0
C      1  0.4801350000000  0.4159710000000  0.5162690000000 1.0
C      1  0.4966940000000  0.6027900000000  0.4399920000000 1.0
C      1  0.5435340000000  0.4136090000000  0.5514000000000 1.0
C      1  0.5199850000000  0.5407070000000  0.5095670000000 1.0
C      1  0.5293960000000  0.5891240000000  0.5182440000000 1.0
C      1  0.4368710000000  0.4112130000000  0.4439210000000 1.0
C      1  0.4501460000000  0.4612070000000  0.4121420000000 1.0
C      1  0.3939760000000  0.5237350000000  0.5232210000000 1.0
C      1  0.4958190000000  0.3931290000000  0.5126260000000 1.0
C      1  0.4843520000000  0.5315800000000  0.4729930000000 1.0
C      1  0.6027070000000  0.5105910000000  0.5121100000000 1.0
C      1  0.4463300000000  0.5637660000000  0.4798210000000 1.0
C      1  0.5765420000000  0.5011530000000  0.5216020000000 1.0
C      1  0.5123290000000  0.4999850000000  0.5735060000000 1.0
C      1  0.5356350000000  0.4862460000000  0.4586210000000 1.0
C      1  0.5433030000000  0.4021920000000  0.4652750000000 1.0
C      1  0.5421920000000  0.4015710000000  0.4383080000000 1.0
C      1  0.4569130000000  0.5827620000000  0.4617840000000 1.0
C      1  0.5107710000000  0.5277860000000  0.4858340000000 1.0
C      1  0.5687590000000  0.4744920000000  0.5224120000000 1.0
C      1  0.4295340000000  0.4548660000000  0.4993390000000 1.0
C      1  0.5342750000000  0.4206020000000  0.4209020000000 1.0
C      1  0.4020050000000  0.5389810000000  0.6121470000000 1.0
C      1  0.5483350000000  0.5978720000000  0.4347640000000 1.0
C      1  0.4852740000000  0.5687650000000  0.5248270000000 1.0
C      1  0.5489770000000  0.5965530000000  0.5622150000000 1.0
C      1  0.4361280000000  0.4755100000000  0.4324240000000 1.0
C      1  0.4652690000000  0.4254290000000  0.5690360000000 1.0
C      1  0.6010680000000  0.5479510000000  0.4525580000000 1.0
C      1  0.5539210000000  0.4299220000000  0.5306300000000 1.0
C      1  0.4687880000000  0.4989230000000  0.5205770000000 1.0
C      1  0.5903760000000  0.5736200000000  0.4565000000000 1.0
C      1  0.4259930000000  0.4596490000000  0.4538820000000 1.0
C      1  0.5260100000000  0.6117830000000  0.5033140000000 1.0
C      1  0.6087980000000  0.5247310000000  0.4632880000000 1.0
C      1  0.5699500000000  0.4577540000000  0.4987390000000 1.0
C      1  0.4086660000000  0.5417360000000  0.5390850000000 1.0
C      1  0.4682780000000  0.4204150000000  0.5414800000000 1.0
C      1  0.4359630000000  0.5160980000000  0.4654710000000 1.0
C      1  0.4732400000000  0.4479610000000  0.4058580000000 1.0
C      1  0.4876980000000  0.4920880000000  0.4471360000000 1.0
C      1  0.4176690000000  0.5011780000000  0.4821860000000 1.0
C      1  0.4113230000000  0.5356410000000  0.5880410000000 1.0
C      1  0.5894160000000  0.5868820000000  0.5070890000000 1.0
C      1  0.4193180000000  0.4730470000000  0.4794020000000 1.0
C      1  0.4595670000000  0.5231160000000  0.5331810000000 1.0
C      1  0.4839380000000  0.4767900000000  0.4722830000000 1.0
C      1  0.5076940000000  0.3699760000000  0.5111180000000 1.0
C      1  0.4594770000000  0.4915640000000  0.5689090000000 1.0
END
