TITL C-3201372-1405-1519 40416.0736447699 125000 -826.776832202548 0 0 135 (C1) n - 1
REM
REM in /home/nfs/bkarasulu/CARBON/AIRSS/Generating-Clusters/LCBOP/Higher-Symm/SD-CG/FIRE-CG
REM
REM
REM
REM
REM
REM ./C.cell (b20cbc046b6831c77cfcea5457e17084)
REM AIRSS Version 0.9.1 bugfix July 2018 build 013d7b7c2542+ Fri, 06 Jul 2018 19:26:36 +0100
REM compiler GCC version 9.2.1 20190827 (Red Hat 9.2.1-1)
REM options -cpp -mtune=generic -march=x86-64 -g -O0 -fpre-include=/usr/include/finclude/math-vector-fortran.h
REM seed -1840269028 1711317294 1606786361 -169875194 -411835133 2111636407 -252372600 421411253 -769195488 -1360088042 -1049039477 759010337 -1071592885 1438886060 -383534737 1165999412 1986993099 2048587648 -990194653 -853917291 -414018072 -1933555197 -651322188 1155777456 2098303428 10003903 -1122916802 443444851 -1706687361 311940046 75884989 -608289356 -528401667
REM
CELL 1.54180   50.00000   50.00000   50.00000   90.00000   90.00000   90.00000
LATT -1
SFAC C  
C      1  0.5753210000000  0.4866980000000  0.5404080000000 1.0
C      1  0.5140030000000  0.5804370000000  0.5390600000000 1.0
C      1  0.4158410000000  0.5020760000000  0.5337720000000 1.0
C      1  0.4866430000000  0.4275830000000  0.5363110000000 1.0
C      1  0.4206820000000  0.4870100000000  0.4551280000000 1.0
C      1  0.4972520000000  0.5811130000000  0.4626400000000 1.0
C      1  0.5989030000000  0.5126770000000  0.4467150000000 1.0
C      1  0.5133210000000  0.4320870000000  0.4571360000000 1.0
C      1  0.5175390000000  0.5176330000000  0.5921280000000 1.0
C      1  0.4808690000000  0.5112320000000  0.5917240000000 1.0
C      1  0.4943820000000  0.4782700000000  0.5904200000000 1.0
C      1  0.5240350000000  0.4872960000000  0.5909200000000 1.0
C      1  0.4882390000000  0.5166460000000  0.4069850000000 1.0
C      1  0.5234400000000  0.5044800000000  0.4112950000000 1.0
C      1  0.5155220000000  0.4754160000000  0.4098310000000 1.0
C      1  0.4844850000000  0.4805570000000  0.4085800000000 1.0
C      1  0.4576600000000  0.5149670000000  0.5745030000000 1.0
C      1  0.4821280000000  0.4617870000000  0.5726110000000 1.0
C      1  0.5458010000000  0.4684440000000  0.5829060000000 1.0
C      1  0.5234430000000  0.5421640000000  0.5762450000000 1.0
C      1  0.5436150000000  0.5153050000000  0.4292830000000 1.0
C      1  0.5350170000000  0.4544000000000  0.4145490000000 1.0
C      1  0.4598020000000  0.4657260000000  0.4160400000000 1.0
C      1  0.4833190000000  0.5381910000000  0.4261320000000 1.0
C      1  0.4615900000000  0.5565440000000  0.4371100000000 1.0
C      1  0.4383190000000  0.4498960000000  0.4308870000000 1.0
C      1  0.5523600000000  0.4370230000000  0.4306940000000 1.0
C      1  0.5595440000000  0.5415710000000  0.4330230000000 1.0
C      1  0.5481830000000  0.5629590000000  0.5652570000000 1.0
C      1  0.5637070000000  0.4497840000000  0.5668170000000 1.0
C      1  0.4528190000000  0.4425380000000  0.5647020000000 1.0
C      1  0.4392310000000  0.5383400000000  0.5637890000000 1.0
C      1  0.5663790000000  0.4210370000000  0.5273480000000 1.0
C      1  0.5755020000000  0.5629990000000  0.5244540000000 1.0
C      1  0.4329240000000  0.5747650000000  0.5289000000000 1.0
C      1  0.4203330000000  0.4360800000000  0.5272630000000 1.0
C      1  0.4364810000000  0.4245020000000  0.4718180000000 1.0
C      1  0.4256750000000  0.5638280000000  0.4713440000000 1.0
C      1  0.5632250000000  0.5745940000000  0.4689100000000 1.0
C      1  0.5804770000000  0.4324300000000  0.4698170000000 1.0
C      1  0.4431200000000  0.4184890000000  0.5218830000000 1.0
C      1  0.5851140000000  0.4437230000000  0.5213020000000 1.0
C      1  0.5550850000000  0.5837620000000  0.5191430000000 1.0
C      1  0.4151830000000  0.5519040000000  0.5216450000000 1.0
C      1  0.5558530000000  0.4165320000000  0.4759710000000 1.0
C      1  0.4163120000000  0.4456090000000  0.4763070000000 1.0
C      1  0.4496750000000  0.5793230000000  0.4793930000000 1.0
C      1  0.5833300000000  0.5537320000000  0.4741210000000 1.0
C      1  0.5442610000000  0.5015070000000  0.4561150000000 1.0
C      1  0.5012250000000  0.5287710000000  0.4478120000000 1.0
C      1  0.4622280000000  0.5088590000000  0.4569370000000 1.0
C      1  0.4924230000000  0.4760170000000  0.4617890000000 1.0
C      1  0.4598130000000  0.4968090000000  0.5508950000000 1.0
C      1  0.5026140000000  0.5379960000000  0.5525900000000 1.0
C      1  0.5335010000000  0.5090210000000  0.5360080000000 1.0
C      1  0.5015130000000  0.4712100000000  0.5414030000000 1.0
C      1  0.5181400000000  0.5526690000000  0.5308420000000 1.0
C      1  0.4704940000000  0.5142820000000  0.5316820000000 1.0
C      1  0.4809560000000  0.4571700000000  0.5240620000000 1.0
C      1  0.5478110000000  0.4860380000000  0.5341880000000 1.0
C      1  0.4875730000000  0.5234390000000  0.4910560000000 1.0
C      1  0.5398610000000  0.5223590000000  0.4752820000000 1.0
C      1  0.5151080000000  0.4606440000000  0.4607300000000 1.0
C      1  0.4477160000000  0.4862270000000  0.4641620000000 1.0
C      1  0.5523080000000  0.5299110000000  0.4990110000000 1.0
C      1  0.4739070000000  0.5578840000000  0.5172510000000 1.0
C      1  0.4326870000000  0.4813900000000  0.5181640000000 1.0
C      1  0.5364320000000  0.4496740000000  0.5064600000000 1.0
C      1  0.4407400000000  0.5267490000000  0.4936690000000 1.0
C      1  0.5155480000000  0.5642270000000  0.4779220000000 1.0
C      1  0.5533160000000  0.4651790000000  0.4886140000000 1.0
C      1  0.4706560000000  0.4499480000000  0.4961730000000 1.0
C      1  0.5294040000000  0.4141270000000  0.5594640000000 1.0
C      1  0.5875690000000  0.5303430000000  0.5588130000000 1.0
C      1  0.4687220000000  0.5844100000000  0.5610510000000 1.0
C      1  0.4012120000000  0.4653370000000  0.5605300000000 1.0
C      1  0.4710960000000  0.4138440000000  0.4381880000000 1.0
C      1  0.4150180000000  0.5314350000000  0.4364990000000 1.0
C      1  0.5343730000000  0.5927390000000  0.4353800000000 1.0
C      1  0.5950590000000  0.4640670000000  0.4353370000000 1.0
C      1  0.4632820000000  0.5269330000000  0.4780670000000 1.0
C      1  0.4679760000000  0.4676820000000  0.4745210000000 1.0
C      1  0.5396420000000  0.4751980000000  0.4659410000000 1.0
C      1  0.5188060000000  0.5392010000000  0.4670120000000 1.0
C      1  0.5360060000000  0.5325230000000  0.5212840000000 1.0
C      1  0.5291850000000  0.4641790000000  0.5295250000000 1.0
C      1  0.4555120000000  0.4736100000000  0.5337760000000 1.0
C      1  0.4766210000000  0.5401380000000  0.5389490000000 1.0
C      1  0.4814980000000  0.4050920000000  0.4835600000000 1.0
C      1  0.6012100000000  0.4781500000000  0.4810330000000 1.0
C      1  0.5241750000000  0.6110070000000  0.4829580000000 1.0
C      1  0.3963150000000  0.5200770000000  0.4807460000000 1.0
C      1  0.5207940000000  0.4033460000000  0.5139700000000 1.0
C      1  0.3863680000000  0.4754100000000  0.5121220000000 1.0
C      1  0.4788900000000  0.6039000000000  0.5161290000000 1.0
C      1  0.5977580000000  0.5190310000000  0.5129400000000 1.0
C      1  0.5831750000000  0.4603310000000  0.5461500000000 1.0
C      1  0.5409630000000  0.5865800000000  0.5459850000000 1.0
C      1  0.4196340000000  0.5296180000000  0.5414750000000 1.0
C      1  0.4608300000000  0.4208680000000  0.5452860000000 1.0
C      1  0.4163670000000  0.4597790000000  0.4495800000000 1.0
C      1  0.4701880000000  0.5759580000000  0.4584320000000 1.0
C      1  0.5843760000000  0.5366460000000  0.4499810000000 1.0
C      1  0.5388870000000  0.4212430000000  0.4520860000000 1.0
C      1  0.5521850000000  0.5707820000000  0.4410620000000 1.0
C      1  0.4323250000000  0.5525950000000  0.4439310000000 1.0
C      1  0.4460430000000  0.4249740000000  0.4438900000000 1.0
C      1  0.5790960000000  0.4417830000000  0.4415820000000 1.0
C      1  0.4449750000000  0.5682690000000  0.5564520000000 1.0
C      1  0.5733640000000  0.5537080000000  0.5527890000000 1.0
C      1  0.5554620000000  0.4241530000000  0.5551050000000 1.0
C      1  0.4229960000000  0.4470980000000  0.5556240000000 1.0
C      1  0.4889680000000  0.5935640000000  0.5423290000000 1.0
C      1  0.3930750000000  0.4844770000000  0.5405020000000 1.0
C      1  0.5102620000000  0.4128930000000  0.5388850000000 1.0
C      1  0.5904330000000  0.5102610000000  0.5394010000000 1.0
C      1  0.5153640000000  0.6027820000000  0.4548430000000 1.0
C      1  0.6009190000000  0.4851890000000  0.4529720000000 1.0
C      1  0.4907800000000  0.4150950000000  0.4580620000000 1.0
C      1  0.4064020000000  0.5112500000000  0.4545640000000 1.0
C      1  0.4571990000000  0.4209640000000  0.4941030000000 1.0
C      1  0.5830920000000  0.4555250000000  0.4906790000000 1.0
C      1  0.5409830000000  0.5841960000000  0.4901770000000 1.0
C      1  0.4152980000000  0.5425450000000  0.4923580000000 1.0
C      1  0.5445850000000  0.4194490000000  0.5052090000000 1.0
C      1  0.4128210000000  0.4583280000000  0.5058670000000 1.0
C      1  0.4570680000000  0.5817620000000  0.5089430000000 1.0
C      1  0.5805900000000  0.5416450000000  0.5020050000000 1.0
C      1  0.6099230000000  0.4990290000000  0.4976480000000 1.0
C      1  0.5003540000000  0.6158840000000  0.5001280000000 1.0
C      1  0.3823040000000  0.4988700000000  0.4949310000000 1.0
C      1  0.5012770000000  0.3913400000000  0.4978750000000 1.0
C      1  0.4902630000000  0.5023570000000  0.4521370000000 1.0
C      1  0.5095920000000  0.5059000000000  0.5480050000000 1.0
C      1  0.4867050000000  0.5058060000000  0.5108320000000 1.0
END
