TITL C-3201373-1215-1424 -1.00239748883743e-06 125000 -663.317438601365 0 0 111 (S4) n - 1
REM
REM in /home/nfs/bkarasulu/CARBON/AIRSS/Generating-Clusters/LCBOP/Higher-Symm/SD-CG/FIRE-CG
REM
REM
REM
REM
REM
REM ./C.cell (b20cbc046b6831c77cfcea5457e17084)
REM AIRSS Version 0.9.1 bugfix July 2018 build 013d7b7c2542+ Fri, 06 Jul 2018 19:26:36 +0100
REM compiler GCC version 9.2.1 20190827 (Red Hat 9.2.1-1)
REM options -cpp -mtune=generic -march=x86-64 -g -O0 -fpre-include=/usr/include/finclude/math-vector-fortran.h
REM seed -1420452117 1710101171 -867499136 -1949617078 -902918099 58984256 -1213151303 880937562 -1658199974 -459345509 54646337 1373348675 -849477080 -10811775 -414934480 -468981929 220621360 1597324328 90027323 1165953397 2137643926 1387122246 1151478347 1744975918 582460198 1887284402 -588688150 986345007 1160864180 736686133 -1602666725 1208392440 930242132
REM
CELL 1.54180   50.00000   50.00000   50.00000   90.00000   90.00000   90.00000
LATT -1
SFAC C  
C      1  0.4279140000000  0.4421890000000  0.4212660000000 1.0
C      1  0.5720190000000  0.5783970000000  0.4422970000000 1.0
C      1  0.4279070000000  0.5573690000000  0.5784980000000 1.0
C      1  0.5720160000000  0.4211640000000  0.5574770000000 1.0
C      1  0.4551940000000  0.4748140000000  0.5237720000000 1.0
C      1  0.5447350000000  0.4758910000000  0.4749210000000 1.0
C      1  0.4551950000000  0.5247440000000  0.4759930000000 1.0
C      1  0.5447330000000  0.5236690000000  0.5248510000000 1.0
C      1  0.4965520000000  0.4515820000000  0.5277460000000 1.0
C      1  0.5033780000000  0.4719180000000  0.4516870000000 1.0
C      1  0.4965530000000  0.5479770000000  0.4720230000000 1.0
C      1  0.5033740000000  0.5276410000000  0.5480820000000 1.0
C      1  0.4267160000000  0.4335830000000  0.5148800000000 1.0
C      1  0.5732150000000  0.4847820000000  0.4336910000000 1.0
C      1  0.4267160000000  0.5659750000000  0.4848840000000 1.0
C      1  0.5732100000000  0.5147790000000  0.5660830000000 1.0
C      1  0.5142350000000  0.5415250000000  0.5921010000000 1.0
C      1  0.4856880000000  0.4075640000000  0.5416290000000 1.0
C      1  0.5142430000000  0.4580350000000  0.4076690000000 1.0
C      1  0.4856890000000  0.5919950000000  0.4581390000000 1.0
C      1  0.4825930000000  0.3964300000000  0.5172890000000 1.0
C      1  0.5173400000000  0.4823740000000  0.3965360000000 1.0
C      1  0.4825920000000  0.6031280000000  0.4824790000000 1.0
C      1  0.5173320000000  0.5171850000000  0.6032340000000 1.0
C      1  0.5850610000000  0.5580930000000  0.4840460000000 1.0
C      1  0.4148650000000  0.5156210000000  0.5581940000000 1.0
C      1  0.5850610000000  0.4414680000000  0.5157300000000 1.0
C      1  0.4148700000000  0.4839370000000  0.4415690000000 1.0
C      1  0.4161410000000  0.5778790000000  0.5323390000000 1.0
C      1  0.5837830000000  0.4673220000000  0.5779890000000 1.0
C      1  0.4161450000000  0.4216780000000  0.4674230000000 1.0
C      1  0.5837880000000  0.5322390000000  0.4217870000000 1.0
C      1  0.4486550000000  0.4730790000000  0.4742740000000 1.0
C      1  0.5512760000000  0.5253890000000  0.4731870000000 1.0
C      1  0.4486520000000  0.5264790000000  0.5254910000000 1.0
C      1  0.5512740000000  0.4741720000000  0.5265860000000 1.0
C      1  0.4294400000000  0.5386780000000  0.4770210000000 1.0
C      1  0.5704870000000  0.5226410000000  0.5387870000000 1.0
C      1  0.4294390000000  0.4608790000000  0.5227430000000 1.0
C      1  0.5704900000000  0.4769190000000  0.4609880000000 1.0
C      1  0.4750100000000  0.4288600000000  0.4793710000000 1.0
C      1  0.5249230000000  0.5202930000000  0.4289660000000 1.0
C      1  0.4750070000000  0.5706990000000  0.5203960000000 1.0
C      1  0.5249180000000  0.4792670000000  0.5708050000000 1.0
C      1  0.4791590000000  0.4057420000000  0.4923300000000 1.0
C      1  0.5207750000000  0.5073340000000  0.4058480000000 1.0
C      1  0.4791560000000  0.5938160000000  0.5074380000000 1.0
C      1  0.5207680000000  0.4922260000000  0.5939220000000 1.0
C      1  0.5744670000000  0.5597980000000  0.4218890000000 1.0
C      1  0.4254610000000  0.5777770000000  0.5598990000000 1.0
C      1  0.5744620000000  0.4397630000000  0.5778860000000 1.0
C      1  0.4254670000000  0.4217800000000  0.4398640000000 1.0
C      1  0.4050190000000  0.4480160000000  0.4704560000000 1.0
C      1  0.5949130000000  0.5292050000000  0.4481260000000 1.0
C      1  0.4050160000000  0.5515410000000  0.5293060000000 1.0
C      1  0.5949100000000  0.4703560000000  0.5516500000000 1.0
C      1  0.5926850000000  0.4767730000000  0.4811130000000 1.0
C      1  0.4072450000000  0.5185530000000  0.4768740000000 1.0
C      1  0.5926830000000  0.5227880000000  0.5186630000000 1.0
C      1  0.4072440000000  0.4810040000000  0.5228880000000 1.0
C      1  0.4823660000000  0.5304970000000  0.4910500000000 1.0
C      1  0.5175610000000  0.5086140000000  0.5306030000000 1.0
C      1  0.4823660000000  0.4690620000000  0.5087180000000 1.0
C      1  0.5175630000000  0.4909460000000  0.4691680000000 1.0
C      1  0.5223570000000  0.5720950000000  0.5533280000000 1.0
C      1  0.4775670000000  0.4463370000000  0.5721990000000 1.0
C      1  0.5223630000000  0.4274650000000  0.4464430000000 1.0
C      1  0.4775710000000  0.5532220000000  0.4275690000000 1.0
C      1  0.5975060000000  0.5492710000000  0.5078350000000 1.0
C      1  0.4024200000000  0.4918310000000  0.5493710000000 1.0
C      1  0.5975080000000  0.4502910000000  0.4919410000000 1.0
C      1  0.4024240000000  0.5077260000000  0.4503910000000 1.0
C      1  0.5493380000000  0.5142360000000  0.4988220000000 1.0
C      1  0.4505900000000  0.5008440000000  0.5143380000000 1.0
C      1  0.5493380000000  0.4853240000000  0.5009510000000 1.0
C      1  0.4505910000000  0.4987140000000  0.4854270000000 1.0
C      1  0.5296370000000  0.5161320000000  0.4563070000000 1.0
C      1  0.4702920000000  0.5433580000000  0.5162360000000 1.0
C      1  0.5296340000000  0.4834280000000  0.5434640000000 1.0
C      1  0.4702940000000  0.4562010000000  0.4835310000000 1.0
C      1  0.5441220000000  0.5964310000000  0.5115230000000 1.0
C      1  0.4558020000000  0.4881420000000  0.5965340000000 1.0
C      1  0.5441250000000  0.4031290000000  0.4882490000000 1.0
C      1  0.4558090000000  0.5114160000000  0.4032320000000 1.0
C      1  0.5737050000000  0.4182870000000  0.5285110000000 1.0
C      1  0.4262260000000  0.4711550000000  0.4183880000000 1.0
C      1  0.5737060000000  0.5812740000000  0.4712640000000 1.0
C      1  0.4262200000000  0.5284020000000  0.5813750000000 1.0
C      1  0.4239540000000  0.5839910000000  0.5054150000000 1.0
C      1  0.5759710000000  0.4942470000000  0.5841000000000 1.0
C      1  0.4239560000000  0.4155660000000  0.4943480000000 1.0
C      1  0.5759770000000  0.5053140000000  0.4156750000000 1.0
C      1  0.5116280000000  0.5488670000000  0.5650130000000 1.0
C      1  0.4882970000000  0.4346520000000  0.5489710000000 1.0
C      1  0.5116340000000  0.4506920000000  0.4347570000000 1.0
C      1  0.4882990000000  0.5649070000000  0.4507970000000 1.0
C      1  0.4663660000000  0.5342190000000  0.4124210000000 1.0
C      1  0.5335630000000  0.5872420000000  0.5343260000000 1.0
C      1  0.4663600000000  0.4653390000000  0.5873460000000 1.0
C      1  0.5335680000000  0.4123180000000  0.4654460000000 1.0
C      1  0.4425360000000  0.4881050000000  0.4029690000000 1.0
C      1  0.5573950000000  0.5966930000000  0.4882130000000 1.0
C      1  0.4425290000000  0.5114530000000  0.5967960000000 1.0
C      1  0.5573970000000  0.4028670000000  0.5115610000000 1.0
C      1  0.4228390000000  0.5312100000000  0.5358480000000 1.0
C      1  0.5770860000000  0.4638140000000  0.5313190000000 1.0
C      1  0.4228430000000  0.4683470000000  0.4639160000000 1.0
C      1  0.5770880000000  0.5357460000000  0.4684560000000 1.0
C      1  0.5981160000000  0.4997810000000  0.4998880000000 1.0
C      1  0.4018120000000  0.4997780000000  0.4998810000000 1.0
C      1  0.4999640000000  0.4997800000000  0.4998850000000 1.0
END
