TITL C-3201378-2706-1332 7447.73452618034 125000 -830.264096336754 0 0 141 (C1) n - 1
REM
REM in /home/nfs/bkarasulu/CARBON/AIRSS/Generating-Clusters/LCBOP/Higher-Symm/SD-CG/FIRE-CG
REM
REM
REM
REM
REM
REM ./C.cell (b20cbc046b6831c77cfcea5457e17084)
REM AIRSS Version 0.9.1 bugfix July 2018 build 013d7b7c2542+ Fri, 06 Jul 2018 19:26:36 +0100
REM compiler GCC version 9.2.1 20190827 (Red Hat 9.2.1-1)
REM options -cpp -mtune=generic -march=x86-64 -g -O0 -fpre-include=/usr/include/finclude/math-vector-fortran.h
REM seed -1653772016 -1037879326 -714536228 -1420705712 1843640820 -321793361 -196838161 -599369757 1829357909 -957197239 1361587983 -1422290916 -1055241648 -1559996071 1789535476 -72571225 251805734 1760849003 -964818151 -1454958244 -1905067358 -426030065 -249137068 1062962627 1208700265 -758919223 1321649647 -535452902 -1643856695 47272590 -1891580863 349472224 137721260
REM
CELL 1.54180   50.00000   50.00000   50.00000   90.00000   90.00000   90.00000
LATT -1
SFAC C  
C      1  0.5762060000000  0.4903880000000  0.4424630000000 1.0
C      1  0.5807370000000  0.5517760000000  0.4843590000000 1.0
C      1  0.5806000000000  0.5104560000000  0.5464250000000 1.0
C      1  0.5758030000000  0.4485020000000  0.5045060000000 1.0
C      1  0.5282270000000  0.5567060000000  0.4737400000000 1.0
C      1  0.5292110000000  0.5258550000000  0.5486010000000 1.0
C      1  0.5239760000000  0.4515450000000  0.5183790000000 1.0
C      1  0.5228420000000  0.4810880000000  0.4438100000000 1.0
C      1  0.5654600000000  0.6666020000000  0.4941320000000 1.0
C      1  0.5137300000000  0.5274350000000  0.6525460000000 1.0
C      1  0.4975080000000  0.3545090000000  0.5393510000000 1.0
C      1  0.5119750000000  0.4655130000000  0.3375630000000 1.0
C      1  0.5302890000000  0.4693740000000  0.5442510000000 1.0
C      1  0.5262140000000  0.4540520000000  0.4618860000000 1.0
C      1  0.5303830000000  0.5374620000000  0.4446780000000 1.0
C      1  0.5343660000000  0.5527360000000  0.5305000000000 1.0
C      1  0.4237070000000  0.5054400000000  0.4600340000000 1.0
C      1  0.4282480000000  0.5509300000000  0.4960440000000 1.0
C      1  0.4278860000000  0.5146070000000  0.5417980000000 1.0
C      1  0.4235120000000  0.4684100000000  0.5055950000000 1.0
C      1  0.5480710000000  0.4068770000000  0.5232240000000 1.0
C      1  0.5511910000000  0.4702480000000  0.4011940000000 1.0
C      1  0.5614590000000  0.5970050000000  0.4692070000000 1.0
C      1  0.5556250000000  0.5230100000000  0.5918060000000 1.0
C      1  0.4726720000000  0.5526620000000  0.5196840000000 1.0
C      1  0.4694540000000  0.4862530000000  0.5442310000000 1.0
C      1  0.4652970000000  0.4621260000000  0.4780140000000 1.0
C      1  0.4684020000000  0.5282220000000  0.4535160000000 1.0
C      1  0.5331610000000  0.5427350000000  0.5010280000000 1.0
C      1  0.5320850000000  0.4984430000000  0.5346290000000 1.0
C      1  0.5289380000000  0.4644900000000  0.4908430000000 1.0
C      1  0.5301030000000  0.5086990000000  0.4561890000000 1.0
C      1  0.4733700000000  0.5492090000000  0.4721970000000 1.0
C      1  0.4753460000000  0.5333550000000  0.5406710000000 1.0
C      1  0.4705730000000  0.4653510000000  0.5249100000000 1.0
C      1  0.4683270000000  0.4809400000000  0.4570300000000 1.0
C      1  0.4935910000000  0.6762200000000  0.5186400000000 1.0
C      1  0.4582440000000  0.4717320000000  0.6074060000000 1.0
C      1  0.4455630000000  0.4024700000000  0.4849330000000 1.0
C      1  0.4462100000000  0.4905220000000  0.3867160000000 1.0
C      1  0.5143060000000  0.4729410000000  0.3637370000000 1.0
C      1  0.5503280000000  0.6438950000000  0.4924050000000 1.0
C      1  0.5177450000000  0.5130460000000  0.6296060000000 1.0
C      1  0.5047180000000  0.3754000000000  0.5232580000000 1.0
C      1  0.4923000000000  0.4877130000000  0.4401790000000 1.0
C      1  0.4985340000000  0.5643130000000  0.4797860000000 1.0
C      1  0.4992210000000  0.5224850000000  0.5559890000000 1.0
C      1  0.4933170000000  0.4480760000000  0.5148600000000 1.0
C      1  0.4304360000000  0.5092010000000  0.7077670000000 1.0
C      1  0.4076540000000  0.3283160000000  0.5560270000000 1.0
C      1  0.5018670000000  0.3883950000000  0.3499100000000 1.0
C      1  0.4405600000000  0.6010000000000  0.4473290000000 1.0
C      1  0.4203910000000  0.3503780000000  0.5487100000000 1.0
C      1  0.4901240000000  0.4079170000000  0.3634550000000 1.0
C      1  0.4573720000000  0.6176550000000  0.4592720000000 1.0
C      1  0.4392260000000  0.5110170000000  0.6828270000000 1.0
C      1  0.4979060000000  0.3887930000000  0.4771130000000 1.0
C      1  0.4992320000000  0.5149840000000  0.3822040000000 1.0
C      1  0.5233390000000  0.6225450000000  0.5271760000000 1.0
C      1  0.5122790000000  0.4677200000000  0.6132530000000 1.0
C      1  0.4560790000000  0.5501940000000  0.4959610000000 1.0
C      1  0.4555630000000  0.5115740000000  0.5416020000000 1.0
C      1  0.4511140000000  0.4662670000000  0.5029830000000 1.0
C      1  0.4514420000000  0.5049090000000  0.4578060000000 1.0
C      1  0.4248270000000  0.5842330000000  0.4350350000000 1.0
C      1  0.4216620000000  0.5074130000000  0.7322510000000 1.0
C      1  0.3951520000000  0.3066000000000  0.5632220000000 1.0
C      1  0.5135460000000  0.3693040000000  0.3365410000000 1.0
C      1  0.4450830000000  0.4250390000000  0.4372510000000 1.0
C      1  0.4066250000000  0.5242590000000  0.3941590000000 1.0
C      1  0.4744480000000  0.7095770000000  0.5544660000000 1.0
C      1  0.4504900000000  0.4329560000000  0.5719800000000 1.0
C      1  0.5542190000000  0.4413510000000  0.4592930000000 1.0
C      1  0.5592170000000  0.5373690000000  0.4337640000000 1.0
C      1  0.5638070000000  0.5616480000000  0.5308810000000 1.0
C      1  0.5589150000000  0.4659760000000  0.5546830000000 1.0
C      1  0.4839370000000  0.6930580000000  0.5366710000000 1.0
C      1  0.4517190000000  0.4516990000000  0.5909790000000 1.0
C      1  0.4413120000000  0.4123270000000  0.4604520000000 1.0
C      1  0.4258550000000  0.5071590000000  0.3899940000000 1.0
C      1  0.4049140000000  0.5093290000000  0.4800250000000 1.0
C      1  0.4075620000000  0.5326100000000  0.4992130000000 1.0
C      1  0.4071950000000  0.5143350000000  0.5233670000000 1.0
C      1  0.4040270000000  0.4877380000000  0.5045930000000 1.0
C      1  0.5584960000000  0.6223040000000  0.4765890000000 1.0
C      1  0.5397180000000  0.5190880000000  0.6129260000000 1.0
C      1  0.5300460000000  0.3873970000000  0.5258000000000 1.0
C      1  0.5373760000000  0.4674690000000  0.3786690000000 1.0
C      1  0.4682610000000  0.4476710000000  0.3934840000000 1.0
C      1  0.4924990000000  0.6562900000000  0.4740810000000 1.0
C      1  0.4573450000000  0.5142860000000  0.6316060000000 1.0
C      1  0.4487300000000  0.3943550000000  0.5335360000000 1.0
C      1  0.4603930000000  0.3940080000000  0.5074880000000 1.0
C      1  0.4696590000000  0.4752320000000  0.3857780000000 1.0
C      1  0.5039130000000  0.6581440000000  0.5000410000000 1.0
C      1  0.4719620000000  0.4924190000000  0.6209810000000 1.0
C      1  0.5807850000000  0.4808720000000  0.5432940000000 1.0
C      1  0.5767860000000  0.4511190000000  0.4747620000000 1.0
C      1  0.5798970000000  0.5199480000000  0.4447940000000 1.0
C      1  0.5835320000000  0.5491000000000  0.5137680000000 1.0
C      1  0.5873840000000  0.4766690000000  0.4659360000000 1.0
C      1  0.5902570000000  0.5277740000000  0.4708620000000 1.0
C      1  0.5915630000000  0.5227620000000  0.5220240000000 1.0
C      1  0.5887560000000  0.4719620000000  0.5170740000000 1.0
C      1  0.4745430000000  0.6356170000000  0.4684560000000 1.0
C      1  0.4478020000000  0.5128300000000  0.6578350000000 1.0
C      1  0.4334950000000  0.3722150000000  0.5414370000000 1.0
C      1  0.4794970000000  0.4280950000000  0.3769270000000 1.0
C      1  0.4945760000000  0.5693440000000  0.5099010000000 1.0
C      1  0.4923600000000  0.4930300000000  0.5609080000000 1.0
C      1  0.4862920000000  0.4437550000000  0.4856840000000 1.0
C      1  0.4883150000000  0.5175750000000  0.4354370000000 1.0
C      1  0.5581680000000  0.5233020000000  0.5639150000000 1.0
C      1  0.5517830000000  0.4338510000000  0.5174340000000 1.0
C      1  0.5521120000000  0.4789670000000  0.4274740000000 1.0
C      1  0.5587040000000  0.5696060000000  0.4727240000000 1.0
C      1  0.5102570000000  0.4715010000000  0.5658680000000 1.0
C      1  0.5041160000000  0.4346040000000  0.4655650000000 1.0
C      1  0.5083230000000  0.5347570000000  0.4248950000000 1.0
C      1  0.5147570000000  0.5750940000000  0.5290470000000 1.0
C      1  0.5512810000000  0.5234700000000  0.4979160000000 1.0
C      1  0.5509590000000  0.5002750000000  0.5158150000000 1.0
C      1  0.5499000000000  0.4806500000000  0.4924690000000 1.0
C      1  0.5502380000000  0.5060060000000  0.4730340000000 1.0
C      1  0.4872520000000  0.3850370000000  0.5029110000000 1.0
C      1  0.4938080000000  0.4878230000000  0.3768590000000 1.0
C      1  0.5259470000000  0.6415880000000  0.5068970000000 1.0
C      1  0.5005100000000  0.4913090000000  0.6229220000000 1.0
C      1  0.5113500000000  0.4001460000000  0.4320080000000 1.0
C      1  0.5184910000000  0.5594920000000  0.3842440000000 1.0
C      1  0.5150080000000  0.6012950000000  0.5695310000000 1.0
C      1  0.5152590000000  0.4276990000000  0.5863440000000 1.0
C      1  0.5090970000000  0.5371240000000  0.3967000000000 1.0
C      1  0.5177200000000  0.5997280000000  0.5423780000000 1.0
C      1  0.5127360000000  0.4547820000000  0.5884630000000 1.0
C      1  0.5047680000000  0.4075780000000  0.4574040000000 1.0
C      1  0.4525760000000  0.5363930000000  0.6162020000000 1.0
C      1  0.4516250000000  0.4157600000000  0.5515820000000 1.0
C      1  0.4546970000000  0.4390220000000  0.4166340000000 1.0
C      1  0.4991710000000  0.6745480000000  0.4548170000000 1.0
C      1  0.5941360000000  0.4991330000000  0.4932970000000 1.0
END
