TITL C-3201376-6384-1768 1.47066621792132e-06 125000 -442.041117091815 0 0 74 (C1) n - 1
REM
REM in /home/nfs/bkarasulu/CARBON/AIRSS/Generating-Clusters/LCBOP/Higher-Symm/SD-CG/FIRE-CG
REM
REM
REM
REM
REM
REM ./C.cell (b20cbc046b6831c77cfcea5457e17084)
REM AIRSS Version 0.9.1 bugfix July 2018 build 013d7b7c2542+ Fri, 06 Jul 2018 19:26:36 +0100
REM compiler GCC version 9.2.1 20190827 (Red Hat 9.2.1-1)
REM options -cpp -mtune=generic -march=x86-64 -g -O0 -fpre-include=/usr/include/finclude/math-vector-fortran.h
REM seed -205644268 333412479 -1436697628 -1151237572 1045846698 1688829888 -1837648962 1332770351 -1948879684 -563569874 1547749318 -1451825716 1895628708 -63901379 -1910191558 858216964 -166101302 -1098848713 2107739185 -1859453435 -258663765 -137227999 1238902278 -1390521908 -93018620 -1499226686 -1026116729 1975151622 -566227887 -618084120 577750457 1981857732 2076649251
REM
CELL 1.54180   50.00000   50.00000   50.00000   90.00000   90.00000   90.00000
LATT -1
SFAC C  
C      1  0.5487180000000  0.4542820000000  0.5350760000000 1.0
C      1  0.5480350000000  0.5535470000000  0.5257080000000 1.0
C      1  0.5495160000000  0.4946310000000  0.4379640000000 1.0
C      1  0.4512240000000  0.4484920000000  0.4642520000000 1.0
C      1  0.4541960000000  0.5528250000000  0.4787620000000 1.0
C      1  0.4535730000000  0.4958110000000  0.5588340000000 1.0
C      1  0.5699070000000  0.4419230000000  0.5202070000000 1.0
C      1  0.5721470000000  0.5476830000000  0.5400090000000 1.0
C      1  0.5702580000000  0.5141910000000  0.4401280000000 1.0
C      1  0.4307110000000  0.4413620000000  0.4826950000000 1.0
C      1  0.4322180000000  0.5470540000000  0.4612780000000 1.0
C      1  0.4293180000000  0.5110770000000  0.5606310000000 1.0
C      1  0.5008260000000  0.4084620000000  0.4272120000000 1.0
C      1  0.5038420000000  0.4798990000000  0.6108740000000 1.0
C      1  0.5048840000000  0.6057490000000  0.4688340000000 1.0
C      1  0.4981290000000  0.4188690000000  0.5760510000000 1.0
C      1  0.5001470000000  0.4818970000000  0.3847920000000 1.0
C      1  0.4973370000000  0.6061620000000  0.5382270000000 1.0
C      1  0.4309190000000  0.5339550000000  0.5428010000000 1.0
C      1  0.4367030000000  0.5217380000000  0.4488060000000 1.0
C      1  0.4377270000000  0.4501550000000  0.5086240000000 1.0
C      1  0.5637570000000  0.5326540000000  0.4605730000000 1.0
C      1  0.5707930000000  0.5207430000000  0.5508380000000 1.0
C      1  0.5650240000000  0.4460140000000  0.4925920000000 1.0
C      1  0.4619280000000  0.5250550000000  0.4331280000000 1.0
C      1  0.4659500000000  0.4427680000000  0.5148640000000 1.0
C      1  0.4598460000000  0.5459960000000  0.5513340000000 1.0
C      1  0.5418650000000  0.5218500000000  0.5654560000000 1.0
C      1  0.5366500000000  0.4383210000000  0.4855470000000 1.0
C      1  0.5354150000000  0.5415880000000  0.4573850000000 1.0
C      1  0.5008270000000  0.4751900000000  0.5121950000000 1.0
C      1  0.4938090000000  0.5192790000000  0.5111960000000 1.0
C      1  0.4965000000000  0.4971770000000  0.4701640000000 1.0
C      1  0.5074840000000  0.4750590000000  0.4840180000000 1.0
C      1  0.5016880000000  0.5218370000000  0.4845000000000 1.0
C      1  0.5087650000000  0.4994820000000  0.5233250000000 1.0
C      1  0.4767440000000  0.4881950000000  0.4526260000000 1.0
C      1  0.4773230000000  0.4668150000000  0.5247760000000 1.0
C      1  0.4673920000000  0.5169850000000  0.5147720000000 1.0
C      1  0.5348410000000  0.5032300000000  0.5235050000000 1.0
C      1  0.5279230000000  0.4613130000000  0.4705700000000 1.0
C      1  0.5244120000000  0.5381330000000  0.4833490000000 1.0
C      1  0.5127630000000  0.4941150000000  0.4040430000000 1.0
C      1  0.5114120000000  0.4278910000000  0.5555280000000 1.0
C      1  0.5110790000000  0.5840610000000  0.5395450000000 1.0
C      1  0.4901930000000  0.4925080000000  0.5926040000000 1.0
C      1  0.4880710000000  0.4190580000000  0.4473140000000 1.0
C      1  0.4917160000000  0.5833660000000  0.4666650000000 1.0
C      1  0.5516020000000  0.4829510000000  0.5336980000000 1.0
C      1  0.5442920000000  0.5325800000000  0.5048810000000 1.0
C      1  0.5502190000000  0.4765880000000  0.4601700000000 1.0
C      1  0.4515530000000  0.4769650000000  0.4590020000000 1.0
C      1  0.4516070000000  0.5371860000000  0.5024400000000 1.0
C      1  0.4578810000000  0.4893740000000  0.5295730000000 1.0
C      1  0.4254940000000  0.5284200000000  0.5128760000000 1.0
C      1  0.4326500000000  0.4984150000000  0.4669730000000 1.0
C      1  0.4331900000000  0.4788420000000  0.5138940000000 1.0
C      1  0.5687570000000  0.5236040000000  0.4884200000000 1.0
C      1  0.5771970000000  0.4975990000000  0.5311690000000 1.0
C      1  0.5710130000000  0.4738580000000  0.4823430000000 1.0
C      1  0.5251580000000  0.5060520000000  0.4259590000000 1.0
C      1  0.5242870000000  0.4378340000000  0.5328480000000 1.0
C      1  0.5244150000000  0.5597370000000  0.5411900000000 1.0
C      1  0.4770690000000  0.5061090000000  0.5722380000000 1.0
C      1  0.4756950000000  0.4323610000000  0.4684700000000 1.0
C      1  0.4785130000000  0.5589700000000  0.4634540000000 1.0
C      1  0.4855060000000  0.4302400000000  0.4963900000000 1.0
C      1  0.4857110000000  0.5325400000000  0.5621940000000 1.0
C      1  0.4861530000000  0.5395560000000  0.4419190000000 1.0
C      1  0.5156450000000  0.4304620000000  0.5051330000000 1.0
C      1  0.5157010000000  0.5314920000000  0.4376150000000 1.0
C      1  0.5159280000000  0.5378380000000  0.5591310000000 1.0
C      1  0.5791760000000  0.4981940000000  0.4995560000000 1.0
C      1  0.4232670000000  0.5011800000000  0.4969240000000 1.0
END
