TITL C-3201373-1215-1893 -2394.25680965349 125000 -1103.02339496108 0 0 183 (C1) n - 1
REM
REM in /home/nfs/bkarasulu/CARBON/AIRSS/Generating-Clusters/LCBOP/Higher-Symm/SD-CG/FIRE-CG
REM
REM
REM
REM
REM
REM ./C.cell (b20cbc046b6831c77cfcea5457e17084)
REM AIRSS Version 0.9.1 bugfix July 2018 build 013d7b7c2542+ Fri, 06 Jul 2018 19:26:36 +0100
REM compiler GCC version 9.2.1 20190827 (Red Hat 9.2.1-1)
REM options -cpp -mtune=generic -march=x86-64 -g -O0 -fpre-include=/usr/include/finclude/math-vector-fortran.h
REM seed -859133908 -421506053 2060074717 -1020859275 -1929659655 1795092474 1699094424 -1381834732 -14704042 -1523436373 1892732323 894566111 277175828 -533718490 -1330483945 239348539 -152158395 -512206716 104344518 1936237005 -761137957 7950828 1431112348 -466238865 1283900918 935944571 -1471786142 -562449300 412113196 570253815 -398101419 -1877873489 -1576932894
REM
CELL 1.54180   50.00000   50.00000   50.00000   90.00000   90.00000   90.00000
LATT -1
SFAC C  
C      1  0.5549410000000  0.4534670000000  0.4357440000000 1.0
C      1  0.4330980000000  0.5374470000000  0.5609210000000 1.0
C      1  0.4540000000000  0.5481260000000  0.5164210000000 1.0
C      1  0.5334550000000  0.4611260000000  0.4518740000000 1.0
C      1  0.5778720000000  0.4666270000000  0.4257750000000 1.0
C      1  0.4071440000000  0.5249840000000  0.5628100000000 1.0
C      1  0.4717690000000  0.4306110000000  0.6041160000000 1.0
C      1  0.5249400000000  0.5790250000000  0.4053980000000 1.0
C      1  0.4404240000000  0.5379470000000  0.4962190000000 1.0
C      1  0.5205550000000  0.4476400000000  0.4733120000000 1.0
C      1  0.3962140000000  0.4432360000000  0.4158030000000 1.0
C      1  0.5837410000000  0.5137260000000  0.5513390000000 1.0
C      1  0.3858520000000  0.5049530000000  0.5091250000000 1.0
C      1  0.5853630000000  0.5018930000000  0.4533660000000 1.0
C      1  0.4483530000000  0.4431800000000  0.6049320000000 1.0
C      1  0.5446590000000  0.5610000000000  0.3996370000000 1.0
C      1  0.5811440000000  0.4531890000000  0.5034200000000 1.0
C      1  0.4074440000000  0.5738220000000  0.4907050000000 1.0
C      1  0.5941490000000  0.5835100000000  0.5670860000000 1.0
C      1  0.4609010000000  0.3734560000000  0.4897200000000 1.0
C      1  0.3700400000000  0.4566250000000  0.5114320000000 1.0
C      1  0.6668350000000  0.5030610000000  0.5190910000000 1.0
C      1  0.4897630000000  0.5713870000000  0.5372390000000 1.0
C      1  0.4851620000000  0.4322630000000  0.4451640000000 1.0
C      1  0.3873400000000  0.4926700000000  0.3643450000000 1.0
C      1  0.5737460000000  0.5295160000000  0.6084470000000 1.0
C      1  0.5711880000000  0.6943530000000  0.5146740000000 1.0
C      1  0.5517770000000  0.3822980000000  0.5566460000000 1.0
C      1  0.3853140000000  0.5319960000000  0.5188700000000 1.0
C      1  0.6014220000000  0.4785980000000  0.4620280000000 1.0
C      1  0.5288470000000  0.3934670000000  0.5473050000000 1.0
C      1  0.5753050000000  0.6690090000000  0.5101590000000 1.0
C      1  0.5620990000000  0.5089060000000  0.4040760000000 1.0
C      1  0.4298020000000  0.4906290000000  0.5924440000000 1.0
C      1  0.5036960000000  0.5056430000000  0.6271390000000 1.0
C      1  0.4661610000000  0.5074390000000  0.3719620000000 1.0
C      1  0.4760560000000  0.5798820000000  0.4001540000000 1.0
C      1  0.5193630000000  0.4307010000000  0.6171590000000 1.0
C      1  0.5696870000000  0.5134840000000  0.4733940000000 1.0
C      1  0.4120100000000  0.4936930000000  0.5083770000000 1.0
C      1  0.5490610000000  0.4903130000000  0.3864400000000 1.0
C      1  0.4530220000000  0.5077090000000  0.5910040000000 1.0
C      1  0.4489790000000  0.5323070000000  0.4704440000000 1.0
C      1  0.5131570000000  0.4636370000000  0.4954350000000 1.0
C      1  0.5581280000000  0.5372070000000  0.4003540000000 1.0
C      1  0.4326860000000  0.4643160000000  0.6009900000000 1.0
C      1  0.4238410000000  0.4746850000000  0.4390220000000 1.0
C      1  0.5357280000000  0.5162930000000  0.5363910000000 1.0
C      1  0.3811620000000  0.4143690000000  0.4833450000000 1.0
C      1  0.6496620000000  0.5583130000000  0.5397160000000 1.0
C      1  0.3784570000000  0.4425930000000  0.5346200000000 1.0
C      1  0.6633180000000  0.5272210000000  0.5051790000000 1.0
C      1  0.4944940000000  0.4223260000000  0.5247940000000 1.0
C      1  0.4970810000000  0.5837680000000  0.4902910000000 1.0
C      1  0.3845000000000  0.4613590000000  0.4676320000000 1.0
C      1  0.6502980000000  0.5014370000000  0.5637120000000 1.0
C      1  0.4933970000000  0.5029280000000  0.3771210000000 1.0
C      1  0.4879170000000  0.5274640000000  0.6187390000000 1.0
C      1  0.4258510000000  0.4924420000000  0.3946850000000 1.0
C      1  0.5280590000000  0.5108470000000  0.5864970000000 1.0
C      1  0.4605830000000  0.5227030000000  0.6141360000000 1.0
C      1  0.5065810000000  0.5197620000000  0.3951720000000 1.0
C      1  0.4364130000000  0.3908940000000  0.5292760000000 1.0
C      1  0.6086310000000  0.5770690000000  0.4938520000000 1.0
C      1  0.4543270000000  0.5805050000000  0.4661160000000 1.0
C      1  0.5496200000000  0.4394850000000  0.5441770000000 1.0
C      1  0.3546940000000  0.4899250000000  0.4457430000000 1.0
C      1  0.6140760000000  0.4639030000000  0.5560170000000 1.0
C      1  0.5528030000000  0.5624300000000  0.4536560000000 1.0
C      1  0.4418800000000  0.4657000000000  0.5339860000000 1.0
C      1  0.5124100000000  0.4004650000000  0.4720210000000 1.0
C      1  0.4764900000000  0.6154800000000  0.5210550000000 1.0
C      1  0.4102970000000  0.4714930000000  0.4631920000000 1.0
C      1  0.6391380000000  0.5255210000000  0.5736380000000 1.0
C      1  0.5376350000000  0.5603380000000  0.5115000000000 1.0
C      1  0.4528070000000  0.4343200000000  0.4994000000000 1.0
C      1  0.5846340000000  0.5892910000000  0.5016240000000 1.0
C      1  0.4608620000000  0.3853770000000  0.5154680000000 1.0
C      1  0.5245580000000  0.4960490000000  0.6108160000000 1.0
C      1  0.4420270000000  0.5141150000000  0.3850280000000 1.0
C      1  0.5174230000000  0.4831210000000  0.4440000000000 1.0
C      1  0.4770740000000  0.5454430000000  0.5324430000000 1.0
C      1  0.4016340000000  0.4026670000000  0.4703470000000 1.0
C      1  0.6329930000000  0.5505740000000  0.5612410000000 1.0
C      1  0.3770290000000  0.4416450000000  0.4870540000000 1.0
C      1  0.6742150000000  0.5056480000000  0.5472320000000 1.0
C      1  0.5261900000000  0.5549820000000  0.5614830000000 1.0
C      1  0.4575640000000  0.4561100000000  0.4087230000000 1.0
C      1  0.5616350000000  0.4437320000000  0.5189650000000 1.0
C      1  0.4292110000000  0.5850400000000  0.4787870000000 1.0
C      1  0.4416780000000  0.5326270000000  0.6312520000000 1.0
C      1  0.5148170000000  0.5295950000000  0.4185930000000 1.0
C      1  0.5040480000000  0.4772180000000  0.3710840000000 1.0
C      1  0.5030870000000  0.5475040000000  0.6054670000000 1.0
C      1  0.5624040000000  0.5739380000000  0.5089920000000 1.0
C      1  0.4326600000000  0.4436330000000  0.5179250000000 1.0
C      1  0.3942320000000  0.4214590000000  0.5413010000000 1.0
C      1  0.6505060000000  0.5514490000000  0.5121880000000 1.0
C      1  0.6320410000000  0.5645540000000  0.4957440000000 1.0
C      1  0.4139010000000  0.4030830000000  0.5380770000000 1.0
C      1  0.4772130000000  0.4420730000000  0.5150960000000 1.0
C      1  0.5191400000000  0.5648110000000  0.4885300000000 1.0
C      1  0.3636990000000  0.4808540000000  0.4217470000000 1.0
C      1  0.5875350000000  0.4676990000000  0.5650330000000 1.0
C      1  0.4940500000000  0.3833750000000  0.4201120000000 1.0
C      1  0.5217540000000  0.6015230000000  0.5640770000000 1.0
C      1  0.4350650000000  0.5652210000000  0.5634020000000 1.0
C      1  0.5336360000000  0.4425950000000  0.3862800000000 1.0
C      1  0.5794110000000  0.6432050000000  0.5057060000000 1.0
C      1  0.5065640000000  0.3790300000000  0.5366240000000 1.0
C      1  0.5323680000000  0.5021290000000  0.5604250000000 1.0
C      1  0.4370380000000  0.4749460000000  0.4143770000000 1.0
C      1  0.4125400000000  0.4277870000000  0.4313940000000 1.0
C      1  0.5892000000000  0.5395550000000  0.5480270000000 1.0
C      1  0.5048860000000  0.4255580000000  0.4645600000000 1.0
C      1  0.4874470000000  0.5908750000000  0.5162420000000 1.0
C      1  0.5476430000000  0.6078300000000  0.5682770000000 1.0
C      1  0.4788610000000  0.3735350000000  0.4399100000000 1.0
C      1  0.4815630000000  0.5495140000000  0.4427030000000 1.0
C      1  0.5600970000000  0.4394830000000  0.5928510000000 1.0
C      1  0.4939660000000  0.5979270000000  0.4416370000000 1.0
C      1  0.5079920000000  0.4312620000000  0.5715120000000 1.0
C      1  0.6354700000000  0.4803440000000  0.5483280000000 1.0
C      1  0.3642750000000  0.4824210000000  0.4710900000000 1.0
C      1  0.5348400000000  0.5443740000000  0.5362350000000 1.0
C      1  0.4435080000000  0.4257480000000  0.4737560000000 1.0
C      1  0.5303600000000  0.4699880000000  0.3797770000000 1.0
C      1  0.4563370000000  0.5196850000000  0.5651470000000 1.0
C      1  0.5828670000000  0.6171670000000  0.5023090000000 1.0
C      1  0.4860910000000  0.3949310000000  0.5250650000000 1.0
C      1  0.4781190000000  0.4535670000000  0.4280350000000 1.0
C      1  0.5091610000000  0.5771800000000  0.5573820000000 1.0
C      1  0.5535320000000  0.5467830000000  0.6034930000000 1.0
C      1  0.4643510000000  0.4486780000000  0.3823630000000 1.0
C      1  0.3924610000000  0.5547280000000  0.5028950000000 1.0
C      1  0.5972240000000  0.4671450000000  0.4873210000000 1.0
C      1  0.3636000000000  0.5462400000000  0.5600270000000 1.0
C      1  0.6221610000000  0.4428230000000  0.4324830000000 1.0
C      1  0.4549650000000  0.5641140000000  0.3947750000000 1.0
C      1  0.5423550000000  0.4466210000000  0.6133890000000 1.0
C      1  0.3848110000000  0.4684310000000  0.4070700000000 1.0
C      1  0.5829860000000  0.4948830000000  0.5722230000000 1.0
C      1  0.4406020000000  0.5415070000000  0.3920280000000 1.0
C      1  0.5394730000000  0.4739460000000  0.6186440000000 1.0
C      1  0.4846850000000  0.4569640000000  0.3666810000000 1.0
C      1  0.5277030000000  0.5420390000000  0.5888240000000 1.0
C      1  0.4576980000000  0.5540080000000  0.4555650000000 1.0
C      1  0.5662970000000  0.4481120000000  0.5667590000000 1.0
C      1  0.5733210000000  0.6001970000000  0.5694400000000 1.0
C      1  0.4675290000000  0.3700370000000  0.4639660000000 1.0
C      1  0.4770530000000  0.5177500000000  0.5437580000000 1.0
C      1  0.4949810000000  0.4759690000000  0.4293450000000 1.0
C      1  0.5088350000000  0.5446810000000  0.4416060000000 1.0
C      1  0.4863020000000  0.4917120000000  0.5291100000000 1.0
C      1  0.5756590000000  0.5722070000000  0.4457630000000 1.0
C      1  0.4252670000000  0.4878290000000  0.5323640000000 1.0
C      1  0.4068680000000  0.5023870000000  0.5802710000000 1.0
C      1  0.5754630000000  0.4964780000000  0.4261360000000 1.0
C      1  0.5248080000000  0.4187760000000  0.3948980000000 1.0
C      1  0.4345770000000  0.5910160000000  0.5694140000000 1.0
C      1  0.3659460000000  0.4854870000000  0.5009090000000 1.0
C      1  0.6459920000000  0.4827190000000  0.5210910000000 1.0
C      1  0.5519960000000  0.5082620000000  0.4926070000000 1.0
C      1  0.4239480000000  0.4825400000000  0.4851900000000 1.0
C      1  0.6028190000000  0.4604190000000  0.4393220000000 1.0
C      1  0.3850220000000  0.5345990000000  0.5475550000000 1.0
C      1  0.4813880000000  0.5921430000000  0.4670820000000 1.0
C      1  0.5230200000000  0.4236420000000  0.5471800000000 1.0
C      1  0.3989920000000  0.4850180000000  0.3878580000000 1.0
C      1  0.5827780000000  0.5063570000000  0.5980000000000 1.0
C      1  0.5325970000000  0.5035180000000  0.5121110000000 1.0
C      1  0.4514440000000  0.4857810000000  0.4802670000000 1.0
C      1  0.4991550000000  0.5879800000000  0.4149130000000 1.0
C      1  0.4988690000000  0.4289830000000  0.5979070000000 1.0
C      1  0.5096060000000  0.4871590000000  0.5110530000000 1.0
C      1  0.4606370000000  0.5071420000000  0.4671190000000 1.0
C      1  0.4345620000000  0.6162240000000  0.5760510000000 1.0
C      1  0.5103550000000  0.3988880000000  0.4055460000000 1.0
C      1  0.6057670000000  0.5591000000000  0.5595520000000 1.0
C      1  0.4218590000000  0.4171650000000  0.4565740000000 1.0
C      1  0.4706520000000  0.4672000000000  0.5306070000000 1.0
C      1  0.5265960000000  0.5559690000000  0.4616220000000 1.0
C      1  0.5172430000000  0.5050600000000  0.4597790000000 1.0
END
