TITL C-3201379-3821-104 -12840.9714887714 125000 -494.153978970494 0 0 85 (C1) n - 1
REM
REM in /home/nfs/bkarasulu/CARBON/AIRSS/Generating-Clusters/LCBOP/Higher-Symm/SD-CG/FIRE-CG
REM
REM
REM
REM
REM
REM ./C.cell (b20cbc046b6831c77cfcea5457e17084)
REM AIRSS Version 0.9.1 bugfix July 2018 build 013d7b7c2542+ Fri, 06 Jul 2018 19:26:36 +0100
REM compiler GCC version 9.2.1 20190827 (Red Hat 9.2.1-1)
REM options -cpp -mtune=generic -march=x86-64 -g -O0 -fpre-include=/usr/include/finclude/math-vector-fortran.h
REM seed 1138923008 -665685481 41190831 -832470421 1148689829 107770693 663561786 802530802 -1472760238 1564324144 -1137667549 1399775482 1654905686 -305230257 1680743603 1317351409 1958039000 713682705 1177069145 658612027 -1832579725 -248605378 1401519996 -1539221711 18643554 -2019637612 2081838513 -335146746 524820798 -715539634 -781286380 1771032805 1265256135
REM
CELL 1.54180   50.00000   50.00000   50.00000   90.00000   90.00000   90.00000
LATT -1
SFAC C  
C      1  0.4521810000000  0.5126770000000  0.5786010000000 1.0
C      1  0.5915200000000  0.5155790000000  0.4940630000000 1.0
C      1  0.4488920000000  0.5119090000000  0.4222570000000 1.0
C      1  0.4592180000000  0.4849070000000  0.4171250000000 1.0
C      1  0.5922040000000  0.4884350000000  0.5050500000000 1.0
C      1  0.4590530000000  0.4845060000000  0.5832580000000 1.0
C      1  0.5375670000000  0.5073240000000  0.4801930000000 1.0
C      1  0.4572700000000  0.5090630000000  0.4761270000000 1.0
C      1  0.4998550000000  0.5084960000000  0.5478450000000 1.0
C      1  0.5397970000000  0.4907480000000  0.5250910000000 1.0
C      1  0.4537340000000  0.4863280000000  0.5264620000000 1.0
C      1  0.4974520000000  0.4921920000000  0.4568850000000 1.0
C      1  0.5547460000000  0.5371310000000  0.5211010000000 1.0
C      1  0.4892120000000  0.5369050000000  0.4399230000000 1.0
C      1  0.4568500000000  0.5417270000000  0.5379920000000 1.0
C      1  0.5562830000000  0.4632400000000  0.4793900000000 1.0
C      1  0.4903440000000  0.4562770000000  0.5571270000000 1.0
C      1  0.4532070000000  0.4626590000000  0.4620510000000 1.0
C      1  0.4308010000000  0.5037040000000  0.5240950000000 1.0
C      1  0.5573250000000  0.4974020000000  0.5467050000000 1.0
C      1  0.5100870000000  0.4969900000000  0.4310740000000 1.0
C      1  0.4297040000000  0.5030720000000  0.4718010000000 1.0
C      1  0.5539220000000  0.5026570000000  0.4565460000000 1.0
C      1  0.5115290000000  0.4965990000000  0.5711850000000 1.0
C      1  0.5385990000000  0.4557370000000  0.5616120000000 1.0
C      1  0.5376890000000  0.4571380000000  0.4366680000000 1.0
C      1  0.4180220000000  0.4643780000000  0.4993670000000 1.0
C      1  0.5355490000000  0.5425150000000  0.4352790000000 1.0
C      1  0.5384090000000  0.5368810000000  0.5690970000000 1.0
C      1  0.4279840000000  0.5444320000000  0.4976590000000 1.0
C      1  0.5307990000000  0.5688780000000  0.4623750000000 1.0
C      1  0.4490450000000  0.5603040000000  0.4824760000000 1.0
C      1  0.5168230000000  0.5563750000000  0.5609750000000 1.0
C      1  0.5409020000000  0.4398830000000  0.5355540000000 1.0
C      1  0.4358200000000  0.4462460000000  0.5160640000000 1.0
C      1  0.5165670000000  0.4308630000000  0.4542510000000 1.0
C      1  0.4981440000000  0.5651660000000  0.4754980000000 1.0
C      1  0.4752320000000  0.5644630000000  0.4948890000000 1.0
C      1  0.5193250000000  0.5644810000000  0.5335150000000 1.0
C      1  0.5170800000000  0.4352580000000  0.5189010000000 1.0
C      1  0.4578960000000  0.4358740000000  0.4998530000000 1.0
C      1  0.5214250000000  0.4346720000000  0.4892290000000 1.0
C      1  0.5654880000000  0.4511170000000  0.5253220000000 1.0
C      1  0.4935590000000  0.4504870000000  0.4322880000000 1.0
C      1  0.4457340000000  0.4610970000000  0.5402930000000 1.0
C      1  0.5610890000000  0.5492660000000  0.4715120000000 1.0
C      1  0.4933320000000  0.5445140000000  0.5729290000000 1.0
C      1  0.4451930000000  0.5495760000000  0.4558630000000 1.0
C      1  0.5131190000000  0.5262510000000  0.4269770000000 1.0
C      1  0.4339320000000  0.5319360000000  0.5232620000000 1.0
C      1  0.5566510000000  0.5261210000000  0.5486000000000 1.0
C      1  0.5135360000000  0.4678970000000  0.5695530000000 1.0
C      1  0.4282870000000  0.4740090000000  0.4730000000000 1.0
C      1  0.5558790000000  0.4734380000000  0.4520300000000 1.0
C      1  0.4984140000000  0.5362330000000  0.4696550000000 1.0
C      1  0.4781450000000  0.5464330000000  0.5191280000000 1.0
C      1  0.5247490000000  0.5410810000000  0.5142390000000 1.0
C      1  0.4946000000000  0.4530110000000  0.5286370000000 1.0
C      1  0.4734490000000  0.4584970000000  0.4852290000000 1.0
C      1  0.5257610000000  0.4636230000000  0.4859930000000 1.0
C      1  0.4276120000000  0.5204030000000  0.5889960000000 1.0
C      1  0.6137300000000  0.5226980000000  0.4790270000000 1.0
C      1  0.4240870000000  0.5171480000000  0.4109280000000 1.0
C      1  0.4621210000000  0.4784460000000  0.3902770000000 1.0
C      1  0.6147260000000  0.4827150000000  0.5202490000000 1.0
C      1  0.4620880000000  0.4771480000000  0.6097950000000 1.0
C      1  0.5734620000000  0.4662120000000  0.5022480000000 1.0
C      1  0.4663970000000  0.4633730000000  0.4358730000000 1.0
C      1  0.4629250000000  0.4630510000000  0.5637190000000 1.0
C      1  0.5712970000000  0.5366180000000  0.4969400000000 1.0
C      1  0.4668220000000  0.5341140000000  0.5649610000000 1.0
C      1  0.4607250000000  0.5344070000000  0.4367890000000 1.0
C      1  0.5224800000000  0.5185820000000  0.5846220000000 1.0
C      1  0.5585080000000  0.5301380000000  0.4479860000000 1.0
C      1  0.4175800000000  0.5280670000000  0.4758140000000 1.0
C      1  0.5153330000000  0.4695010000000  0.4228800000000 1.0
C      1  0.5619820000000  0.4727790000000  0.5590080000000 1.0
C      1  0.4089530000000  0.4873020000000  0.5149970000000 1.0
C      1  0.4994560000000  0.4677210000000  0.4708030000000 1.0
C      1  0.4790790000000  0.4763240000000  0.5116500000000 1.0
C      1  0.5252420000000  0.4892220000000  0.5005530000000 1.0
C      1  0.4992450000000  0.5238740000000  0.5224090000000 1.0
C      1  0.4856410000000  0.5107250000000  0.4770980000000 1.0
C      1  0.5246160000000  0.5317870000000  0.4849110000000 1.0
C      1  0.4963200000000  0.5002070000000  0.5032260000000 1.0
END
