TITL C-3201373-1215-253 -24765.8181873409 125000 -486.80778814572 0 0 80 (C1) n - 1
REM
REM in /home/nfs/bkarasulu/CARBON/AIRSS/Generating-Clusters/LCBOP/Higher-Symm/SD-CG/FIRE-CG
REM
REM
REM
REM
REM
REM ./C.cell (b20cbc046b6831c77cfcea5457e17084)
REM AIRSS Version 0.9.1 bugfix July 2018 build 013d7b7c2542+ Fri, 06 Jul 2018 19:26:36 +0100
REM compiler GCC version 9.2.1 20190827 (Red Hat 9.2.1-1)
REM options -cpp -mtune=generic -march=x86-64 -g -O0 -fpre-include=/usr/include/finclude/math-vector-fortran.h
REM seed 1352037808 476339237 1986552290 444217075 1926784520 -309499919 -250785556 1484781080 1600938028 -1928249287 1818717863 229971 1782217734 -1911007383 1447176685 1452294051 1421273103 1862620936 -1523793326 -102856120 185386309 770443158 -840507230 1805608078 744676164 2047624697 -623391528 -1468603930 1415523208 -650160174 -1837716925 1166632358 360886351
REM
CELL 1.54180   50.00000   50.00000   50.00000   90.00000   90.00000   90.00000
LATT -1
SFAC C  
C      1  0.5791180000000  0.4848650000000  0.5203530000000 1.0
C      1  0.4210230000000  0.4880770000000  0.5196740000000 1.0
C      1  0.4864610000000  0.5593180000000  0.5071950000000 1.0
C      1  0.5144100000000  0.5587560000000  0.5077640000000 1.0
C      1  0.4628970000000  0.5536640000000  0.4536490000000 1.0
C      1  0.5399730000000  0.5570260000000  0.4614530000000 1.0
C      1  0.4838820000000  0.4591730000000  0.5234170000000 1.0
C      1  0.5158540000000  0.4595570000000  0.5223930000000 1.0
C      1  0.5145170000000  0.5729180000000  0.4585160000000 1.0
C      1  0.4881590000000  0.5688260000000  0.4442530000000 1.0
C      1  0.4746400000000  0.4832270000000  0.5069920000000 1.0
C      1  0.5228850000000  0.4837500000000  0.5051230000000 1.0
C      1  0.5147920000000  0.4888440000000  0.5645750000000 1.0
C      1  0.4855880000000  0.4889860000000  0.5649360000000 1.0
C      1  0.5263200000000  0.4337270000000  0.5103270000000 1.0
C      1  0.4743180000000  0.4324180000000  0.5121990000000 1.0
C      1  0.5562400000000  0.5189070000000  0.5606000000000 1.0
C      1  0.4448750000000  0.5202120000000  0.5608430000000 1.0
C      1  0.4107460000000  0.4798260000000  0.4622440000000 1.0
C      1  0.5887260000000  0.4845970000000  0.4604020000000 1.0
C      1  0.4877460000000  0.4097000000000  0.5229630000000 1.0
C      1  0.5149230000000  0.4101980000000  0.5215260000000 1.0
C      1  0.4726040000000  0.5260050000000  0.4515400000000 1.0
C      1  0.5320660000000  0.5306440000000  0.4515140000000 1.0
C      1  0.5783920000000  0.4607850000000  0.4673110000000 1.0
C      1  0.4197980000000  0.4557150000000  0.4703930000000 1.0
C      1  0.5175460000000  0.5204610000000  0.4757610000000 1.0
C      1  0.4881250000000  0.5246190000000  0.4749110000000 1.0
C      1  0.5757180000000  0.4993330000000  0.5645640000000 1.0
C      1  0.4248180000000  0.5012370000000  0.5642800000000 1.0
C      1  0.5285700000000  0.5091450000000  0.4323930000000 1.0
C      1  0.4700700000000  0.5022540000000  0.4365750000000 1.0
C      1  0.5606590000000  0.4335810000000  0.5647860000000 1.0
C      1  0.4368670000000  0.4351490000000  0.5638210000000 1.0
C      1  0.5229720000000  0.4569350000000  0.4423570000000 1.0
C      1  0.4725790000000  0.4530680000000  0.4437850000000 1.0
C      1  0.4182590000000  0.5321910000000  0.4612360000000 1.0
C      1  0.5851980000000  0.5364730000000  0.4665390000000 1.0
C      1  0.4445030000000  0.4594090000000  0.5539160000000 1.0
C      1  0.5546330000000  0.4579880000000  0.5542210000000 1.0
C      1  0.5139060000000  0.4380940000000  0.4624500000000 1.0
C      1  0.4848450000000  0.4358190000000  0.4633740000000 1.0
C      1  0.4672750000000  0.5579470000000  0.5496220000000 1.0
C      1  0.5344020000000  0.5574830000000  0.5498340000000 1.0
C      1  0.4725190000000  0.5146570000000  0.5689120000000 1.0
C      1  0.5284790000000  0.5141650000000  0.5687480000000 1.0
C      1  0.5136170000000  0.5085420000000  0.5188740000000 1.0
C      1  0.4848580000000  0.5084430000000  0.5171180000000 1.0
C      1  0.5279270000000  0.4840240000000  0.4482030000000 1.0
C      1  0.4659860000000  0.4791580000000  0.4522850000000 1.0
C      1  0.5064350000000  0.5428820000000  0.4039910000000 1.0
C      1  0.4939210000000  0.5636940000000  0.4162240000000 1.0
C      1  0.5746240000000  0.4770520000000  0.5471430000000 1.0
C      1  0.4255650000000  0.4794320000000  0.5462910000000 1.0
C      1  0.4751420000000  0.5742390000000  0.5283290000000 1.0
C      1  0.5259120000000  0.5738250000000  0.5287330000000 1.0
C      1  0.5722480000000  0.5077090000000  0.5078040000000 1.0
C      1  0.4278520000000  0.5105930000000  0.5062450000000 1.0
C      1  0.5919670000000  0.5112710000000  0.4595390000000 1.0
C      1  0.4101410000000  0.5065380000000  0.4583310000000 1.0
C      1  0.4743850000000  0.5320160000000  0.5016510000000 1.0
C      1  0.5260160000000  0.5312300000000  0.5033240000000 1.0
C      1  0.5633880000000  0.5496080000000  0.4800510000000 1.0
C      1  0.4386990000000  0.5490970000000  0.4705900000000 1.0
C      1  0.5150910000000  0.5406340000000  0.5649020000000 1.0
C      1  0.4865310000000  0.5409350000000  0.5647540000000 1.0
C      1  0.4854330000000  0.5010940000000  0.4128650000000 1.0
C      1  0.5099180000000  0.5155170000000  0.4113060000000 1.0
C      1  0.4655200000000  0.4315490000000  0.4850410000000 1.0
C      1  0.5341630000000  0.4346420000000  0.4829420000000 1.0
C      1  0.4381160000000  0.4378020000000  0.4790840000000 1.0
C      1  0.5606520000000  0.4426380000000  0.4761860000000 1.0
C      1  0.5276060000000  0.4668110000000  0.5499660000000 1.0
C      1  0.4722540000000  0.4667680000000  0.5509810000000 1.0
C      1  0.4452480000000  0.5341310000000  0.5054100000000 1.0
C      1  0.5565470000000  0.5342120000000  0.5080610000000 1.0
C      1  0.4647100000000  0.4820150000000  0.4806480000000 1.0
C      1  0.5250340000000  0.4903980000000  0.4767930000000 1.0
C      1  0.5566670000000  0.5403230000000  0.5405820000000 1.0
C      1  0.4449310000000  0.5414530000000  0.5415140000000 1.0
END
