TITL C-3201376-6384-1946 -3663.77114719146 125000 -676.431788427402 0 0 112 (C1) n - 1
REM
REM in /home/nfs/bkarasulu/CARBON/AIRSS/Generating-Clusters/LCBOP/Higher-Symm/SD-CG/FIRE-CG
REM
REM
REM
REM
REM
REM ./C.cell (b20cbc046b6831c77cfcea5457e17084)
REM AIRSS Version 0.9.1 bugfix July 2018 build 013d7b7c2542+ Fri, 06 Jul 2018 19:26:36 +0100
REM compiler GCC version 9.2.1 20190827 (Red Hat 9.2.1-1)
REM options -cpp -mtune=generic -march=x86-64 -g -O0 -fpre-include=/usr/include/finclude/math-vector-fortran.h
REM seed -1972419034 1292681279 118746816 1479570837 -2113922798 1251247302 -280483431 158297137 1109477337 1544483847 168878992 1708790903 -885981933 1712902610 -929733354 1181765094 1870574140 1424398226 669905387 1158573079 561829009 -433598321 248190910 97458164 1409244600 166688704 -1984311150 -1733004060 -1849025247 2036482359 983118922 -789970680 -805395574
REM
CELL 1.54180   50.00000   50.00000   50.00000   90.00000   90.00000   90.00000
LATT -1
SFAC C  
C      1  0.4890040000000  0.4801070000000  0.4879590000000 1.0
C      1  0.4280490000000  0.5166660000000  0.4819090000000 1.0
C      1  0.4941300000000  0.5163310000000  0.5366150000000 1.0
C      1  0.4626050000000  0.5056340000000  0.5786280000000 1.0
C      1  0.4657370000000  0.4277910000000  0.4628490000000 1.0
C      1  0.4648540000000  0.5672670000000  0.4574720000000 1.0
C      1  0.4494060000000  0.4556870000000  0.5561840000000 1.0
C      1  0.4671620000000  0.4692800000000  0.4280470000000 1.0
C      1  0.4508770000000  0.5759050000000  0.5133200000000 1.0
C      1  0.4881490000000  0.4254740000000  0.5716480000000 1.0
C      1  0.5022830000000  0.4835250000000  0.3966450000000 1.0
C      1  0.4929410000000  0.5990980000000  0.5313840000000 1.0
C      1  0.4608340000000  0.4431760000000  0.4390360000000 1.0
C      1  0.4569880000000  0.5758820000000  0.4848470000000 1.0
C      1  0.4540490000000  0.4785440000000  0.5728450000000 1.0
C      1  0.5553050000000  0.5395480000000  0.4479130000000 1.0
C      1  0.5582990000000  0.5192710000000  0.5667300000000 1.0
C      1  0.5597350000000  0.4284120000000  0.4823800000000 1.0
C      1  0.3860810000000  0.5274910000000  0.5285890000000 1.0
C      1  0.3954970000000  0.4629210000000  0.5001730000000 1.0
C      1  0.3731990000000  0.5032140000000  0.4852200000000 1.0
C      1  0.3895670000000  0.5526200000000  0.4929100000000 1.0
C      1  0.3946110000000  0.4802560000000  0.5450210000000 1.0
C      1  0.4023550000000  0.4793640000000  0.4540890000000 1.0
C      1  0.6103440000000  0.5087800000000  0.4817490000000 1.0
C      1  0.6101790000000  0.5066880000000  0.5177460000000 1.0
C      1  0.6116480000000  0.4765420000000  0.4960150000000 1.0
C      1  0.4771820000000  0.3977330000000  0.5168040000000 1.0
C      1  0.4749220000000  0.5588780000000  0.3981440000000 1.0
C      1  0.4806150000000  0.5652560000000  0.5819050000000 1.0
C      1  0.4951920000000  0.5039260000000  0.4729850000000 1.0
C      1  0.4286750000000  0.5024220000000  0.5043120000000 1.0
C      1  0.4994980000000  0.4880230000000  0.5385640000000 1.0
C      1  0.4634000000000  0.5724970000000  0.5604900000000 1.0
C      1  0.4638580000000  0.4188220000000  0.5293470000000 1.0
C      1  0.4608400000000  0.5358690000000  0.4007640000000 1.0
C      1  0.5255770000000  0.4079140000000  0.5965950000000 1.0
C      1  0.5215660000000  0.5245300000000  0.3781100000000 1.0
C      1  0.5409960000000  0.6037390000000  0.5371950000000 1.0
C      1  0.5417750000000  0.5184050000000  0.4882270000000 1.0
C      1  0.5471910000000  0.4944540000000  0.5289620000000 1.0
C      1  0.5391140000000  0.4681610000000  0.4887630000000 1.0
C      1  0.5962150000000  0.4603950000000  0.5521060000000 1.0
C      1  0.5956720000000  0.4685520000000  0.4380530000000 1.0
C      1  0.5913340000000  0.5622980000000  0.5041320000000 1.0
C      1  0.4047780000000  0.5541140000000  0.5215810000000 1.0
C      1  0.4066130000000  0.4628120000000  0.5264000000000 1.0
C      1  0.4220990000000  0.4860990000000  0.4372370000000 1.0
C      1  0.4889570000000  0.5139040000000  0.5894400000000 1.0
C      1  0.4879060000000  0.4095360000000  0.4681420000000 1.0
C      1  0.4898160000000  0.5742280000000  0.4442410000000 1.0
C      1  0.5976170000000  0.5158950000000  0.4581960000000 1.0
C      1  0.5980560000000  0.5231200000000  0.5366880000000 1.0
C      1  0.5997470000000  0.4519860000000  0.5011080000000 1.0
C      1  0.4511200000000  0.5273830000000  0.4717000000000 1.0
C      1  0.4659080000000  0.5181390000000  0.5354890000000 1.0
C      1  0.4642050000000  0.4682220000000  0.4830540000000 1.0
C      1  0.5823670000000  0.5402900000000  0.4575590000000 1.0
C      1  0.5855930000000  0.5111380000000  0.5602080000000 1.0
C      1  0.5867360000000  0.4379290000000  0.4789670000000 1.0
C      1  0.4427140000000  0.5525370000000  0.5549870000000 1.0
C      1  0.4465270000000  0.4350850000000  0.5124920000000 1.0
C      1  0.4532520000000  0.5229310000000  0.4248580000000 1.0
C      1  0.4325310000000  0.4526680000000  0.5315730000000 1.0
C      1  0.4486930000000  0.4930490000000  0.4286540000000 1.0
C      1  0.4307610000000  0.5601220000000  0.5288950000000 1.0
C      1  0.5150560000000  0.4177470000000  0.5734160000000 1.0
C      1  0.5108480000000  0.5102630000000  0.3985710000000 1.0
C      1  0.5183990000000  0.5885610000000  0.5369460000000 1.0
C      1  0.5970870000000  0.4466840000000  0.5288710000000 1.0
C      1  0.5957030000000  0.4953790000000  0.4389340000000 1.0
C      1  0.5935960000000  0.5495620000000  0.5277120000000 1.0
C      1  0.5083180000000  0.5193420000000  0.4251050000000 1.0
C      1  0.5184350000000  0.5610220000000  0.5423380000000 1.0
C      1  0.5306950000000  0.4206830000000  0.5503070000000 1.0
C      1  0.5429240000000  0.5200290000000  0.5421370000000 1.0
C      1  0.5465820000000  0.4435150000000  0.5037820000000 1.0
C      1  0.5398260000000  0.5184130000000  0.4599870000000 1.0
C      1  0.4875470000000  0.5749350000000  0.4158670000000 1.0
C      1  0.4900810000000  0.5424800000000  0.5934210000000 1.0
C      1  0.4847590000000  0.3935130000000  0.4913660000000 1.0
C      1  0.5321840000000  0.5439610000000  0.4968960000000 1.0
C      1  0.5405600000000  0.4747400000000  0.5490250000000 1.0
C      1  0.5309940000000  0.4578900000000  0.4616650000000 1.0
C      1  0.3749020000000  0.5269010000000  0.4999140000000 1.0
C      1  0.3877240000000  0.5061140000000  0.5458430000000 1.0
C      1  0.3883240000000  0.4800580000000  0.4786450000000 1.0
C      1  0.4767750000000  0.5233230000000  0.4817440000000 1.0
C      1  0.4495900000000  0.5016380000000  0.5204820000000 1.0
C      1  0.4982020000000  0.4748210000000  0.5140380000000 1.0
C      1  0.5149790000000  0.4653220000000  0.4397790000000 1.0
C      1  0.5190050000000  0.5640570000000  0.4840790000000 1.0
C      1  0.5151880000000  0.4807350000000  0.5615190000000 1.0
C      1  0.4684020000000  0.5862710000000  0.5349620000000 1.0
C      1  0.4670780000000  0.4321060000000  0.5548310000000 1.0
C      1  0.4947450000000  0.4706090000000  0.4205410000000 1.0
C      1  0.5932160000000  0.4840180000000  0.5647810000000 1.0
C      1  0.5942990000000  0.4462850000000  0.4529690000000 1.0
C      1  0.5887290000000  0.5594170000000  0.4775530000000 1.0
C      1  0.5378890000000  0.4288850000000  0.4621720000000 1.0
C      1  0.5391640000000  0.5624080000000  0.4413760000000 1.0
C      1  0.5403790000000  0.5122140000000  0.5883620000000 1.0
C      1  0.5157410000000  0.5703050000000  0.4564150000000 1.0
C      1  0.5142320000000  0.4996240000000  0.5839220000000 1.0
C      1  0.5148330000000  0.4125920000000  0.4590200000000 1.0
C      1  0.4525130000000  0.5417320000000  0.4476380000000 1.0
C      1  0.4525150000000  0.5260820000000  0.5596330000000 1.0
C      1  0.4551150000000  0.4416780000000  0.4862460000000 1.0
C      1  0.5390100000000  0.4308520000000  0.5272330000000 1.0
C      1  0.5134420000000  0.5120990000000  0.4517390000000 1.0
C      1  0.5174220000000  0.5332110000000  0.5400340000000 1.0
C      1  0.5445050000000  0.4933540000000  0.5010620000000 1.0
END
