TITL C-3201379-3821-1922 0.313373980458224 125000 -603.580839205618 0 0 102 (C1) n - 1
REM
REM in /home/nfs/bkarasulu/CARBON/AIRSS/Generating-Clusters/LCBOP/Higher-Symm/SD-CG/FIRE-CG
REM
REM
REM
REM
REM
REM ./C.cell (b20cbc046b6831c77cfcea5457e17084)
REM AIRSS Version 0.9.1 bugfix July 2018 build 013d7b7c2542+ Fri, 06 Jul 2018 19:26:36 +0100
REM compiler GCC version 9.2.1 20190827 (Red Hat 9.2.1-1)
REM options -cpp -mtune=generic -march=x86-64 -g -O0 -fpre-include=/usr/include/finclude/math-vector-fortran.h
REM seed -1749462772 496939530 -673072516 817574344 196214827 -495426701 583095644 1892225668 -407675572 -117672442 336523815 1321481189 -1762725096 -1437321971 -839852629 -693117484 931628420 317210355 -429998236 1357956456 -1011980098 -1415351441 -1719063603 -325655228 2143820387 -708831108 1474709634 37005762 -150259060 835646455 789328881 -1692329377 -1913515080
REM
CELL 1.54180   50.00000   50.00000   50.00000   90.00000   90.00000   90.00000
LATT -1
SFAC C  
C      1  0.4869080000000  0.5583430000000  0.4423200000000 1.0
C      1  0.4537750000000  0.4627090000000  0.6197400000000 1.0
C      1  0.5646540000000  0.4918040000000  0.4679960000000 1.0
C      1  0.5584310000000  0.4982180000000  0.5182970000000 1.0
C      1  0.5224360000000  0.4800890000000  0.4039320000000 1.0
C      1  0.5169570000000  0.5147930000000  0.5756070000000 1.0
C      1  0.4894730000000  0.4539540000000  0.5260600000000 1.0
C      1  0.4598240000000  0.4536120000000  0.4611670000000 1.0
C      1  0.4276630000000  0.5351890000000  0.5228090000000 1.0
C      1  0.4289100000000  0.5486910000000  0.4718640000000 1.0
C      1  0.5046250000000  0.4844470000000  0.4255220000000 1.0
C      1  0.4971350000000  0.4993800000000  0.5631900000000 1.0
C      1  0.4333120000000  0.4554130000000  0.4517640000000 1.0
C      1  0.4619180000000  0.4503280000000  0.5334660000000 1.0
C      1  0.3770370000000  0.5445370000000  0.4416870000000 1.0
C      1  0.4055700000000  0.4932920000000  0.5794620000000 1.0
C      1  0.4277140000000  0.5086170000000  0.5330560000000 1.0
C      1  0.4225900000000  0.5293060000000  0.4515250000000 1.0
C      1  0.5648900000000  0.5236760000000  0.5597950000000 1.0
C      1  0.5609270000000  0.5059780000000  0.4210390000000 1.0
C      1  0.5757040000000  0.4938930000000  0.4421870000000 1.0
C      1  0.5677610000000  0.4996450000000  0.5447570000000 1.0
C      1  0.6254890000000  0.4752390000000  0.4328020000000 1.0
C      1  0.5878960000000  0.4584340000000  0.5731060000000 1.0
C      1  0.4391800000000  0.4908040000000  0.5129970000000 1.0
C      1  0.4308010000000  0.5034530000000  0.4620010000000 1.0
C      1  0.5824810000000  0.5722760000000  0.5606090000000 1.0
C      1  0.5282860000000  0.5471070000000  0.4195140000000 1.0
C      1  0.4670910000000  0.4731470000000  0.5993380000000 1.0
C      1  0.5027450000000  0.5389230000000  0.4287860000000 1.0
C      1  0.4178780000000  0.4784810000000  0.4581820000000 1.0
C      1  0.4410590000000  0.4626880000000  0.5178660000000 1.0
C      1  0.5044490000000  0.4639990000000  0.4456370000000 1.0
C      1  0.4935880000000  0.5031430000000  0.5349910000000 1.0
C      1  0.5849170000000  0.5429610000000  0.5608250000000 1.0
C      1  0.5551120000000  0.5334750000000  0.4199320000000 1.0
C      1  0.5745780000000  0.5543290000000  0.4140740000000 1.0
C      1  0.6140730000000  0.5392430000000  0.5622750000000 1.0
C      1  0.4881440000000  0.5306480000000  0.5278780000000 1.0
C      1  0.5231200000000  0.4438770000000  0.4449640000000 1.0
C      1  0.4014490000000  0.5356220000000  0.4343430000000 1.0
C      1  0.4175680000000  0.5008750000000  0.5576060000000 1.0
C      1  0.5342950000000  0.5746200000000  0.4115050000000 1.0
C      1  0.6077870000000  0.5841510000000  0.5616440000000 1.0
C      1  0.4803240000000  0.5721210000000  0.4645690000000 1.0
C      1  0.4400570000000  0.4524160000000  0.6393730000000 1.0
C      1  0.4227200000000  0.4353930000000  0.4364240000000 1.0
C      1  0.4552450000000  0.4351140000000  0.5552940000000 1.0
C      1  0.5784760000000  0.4774390000000  0.5579570000000 1.0
C      1  0.6013660000000  0.4841080000000  0.4371080000000 1.0
C      1  0.5477080000000  0.4891750000000  0.4026680000000 1.0
C      1  0.5409780000000  0.5260310000000  0.5740720000000 1.0
C      1  0.6270280000000  0.5640350000000  0.5626570000000 1.0
C      1  0.5616570000000  0.5782760000000  0.4088760000000 1.0
C      1  0.4854430000000  0.4639430000000  0.4666680000000 1.0
C      1  0.4946670000000  0.4801190000000  0.5162410000000 1.0
C      1  0.4960570000000  0.5113190000000  0.4284120000000 1.0
C      1  0.4802640000000  0.4838490000000  0.5789850000000 1.0
C      1  0.4204940000000  0.4465110000000  0.5093560000000 1.0
C      1  0.3905080000000  0.4778650000000  0.4648480000000 1.0
C      1  0.5825690000000  0.4542180000000  0.5066660000000 1.0
C      1  0.4568110000000  0.6066210000000  0.5150990000000 1.0
C      1  0.4714660000000  0.3972210000000  0.5119970000000 1.0
C      1  0.5368720000000  0.4292070000000  0.5222240000000 1.0
C      1  0.4734730000000  0.3333230000000  0.5172260000000 1.0
C      1  0.4542110000000  0.3772580000000  0.5076860000000 1.0
C      1  0.5077410000000  0.6030510000000  0.5159560000000 1.0
C      1  0.5633170000000  0.5531950000000  0.4943820000000 1.0
C      1  0.4056920000000  0.5966290000000  0.5073660000000 1.0
C      1  0.4541530000000  0.3504710000000  0.5096760000000 1.0
C      1  0.5919430000000  0.5499580000000  0.4934410000000 1.0
C      1  0.6076040000000  0.5718010000000  0.4878710000000 1.0
C      1  0.4871290000000  0.5466450000000  0.5044850000000 1.0
C      1  0.4768390000000  0.5071100000000  0.4821090000000 1.0
C      1  0.4301450000000  0.6053950000000  0.5135450000000 1.0
C      1  0.5667610000000  0.3913180000000  0.5359210000000 1.0
C      1  0.4473940000000  0.5074240000000  0.4876180000000 1.0
C      1  0.3698620000000  0.5647860000000  0.4852030000000 1.0
C      1  0.5182130000000  0.3863190000000  0.5262550000000 1.0
C      1  0.4887190000000  0.4823610000000  0.4881150000000 1.0
C      1  0.5425650000000  0.4012660000000  0.5285560000000 1.0
C      1  0.5564110000000  0.5052750000000  0.4912140000000 1.0
C      1  0.4988280000000  0.3376980000000  0.5249480000000 1.0
C      1  0.5149880000000  0.3587590000000  0.5281860000000 1.0
C      1  0.5210890000000  0.5320120000000  0.4757210000000 1.0
C      1  0.5074480000000  0.4323500000000  0.5221860000000 1.0
C      1  0.3655270000000  0.5433200000000  0.4676040000000 1.0
C      1  0.5513250000000  0.5765790000000  0.5045840000000 1.0
C      1  0.5581860000000  0.4447070000000  0.5126910000000 1.0
C      1  0.3848540000000  0.5827600000000  0.4980740000000 1.0
C      1  0.6092450000000  0.4986120000000  0.5006210000000 1.0
C      1  0.4968380000000  0.4050660000000  0.5204250000000 1.0
C      1  0.6045360000000  0.5248910000000  0.4977070000000 1.0
C      1  0.4816500000000  0.5953610000000  0.5087130000000 1.0
C      1  0.3597390000000  0.5171600000000  0.4764400000000 1.0
C      1  0.6015610000000  0.4729580000000  0.5032200000000 1.0
C      1  0.4809390000000  0.5718290000000  0.4931420000000 1.0
C      1  0.3698050000000  0.4924710000000  0.4734930000000 1.0
C      1  0.5468140000000  0.5314920000000  0.4862820000000 1.0
C      1  0.5328550000000  0.5940210000000  0.5129140000000 1.0
C      1  0.4945440000000  0.5287380000000  0.4834830000000 1.0
C      1  0.4367920000000  0.5369510000000  0.4962660000000 1.0
END
