TITL C-3201373-1215-710 0.0893960280071228 125000 -134.793612394078 0 0 24 (C1) n - 1
REM
REM in /home/nfs/bkarasulu/CARBON/AIRSS/Generating-Clusters/LCBOP/Higher-Symm/SD-CG/FIRE-CG
REM
REM
REM
REM
REM
REM ./C.cell (b20cbc046b6831c77cfcea5457e17084)
REM AIRSS Version 0.9.1 bugfix July 2018 build 013d7b7c2542+ Fri, 06 Jul 2018 19:26:36 +0100
REM compiler GCC version 9.2.1 20190827 (Red Hat 9.2.1-1)
REM options -cpp -mtune=generic -march=x86-64 -g -O0 -fpre-include=/usr/include/finclude/math-vector-fortran.h
REM seed 759767844 745380004 775865988 1101207531 2144986469 664506322 2021147175 -1652865583 288015000 1026819478 -2003784211 1460346114 -240694466 -1972080652 -637159937 -26548869 -314717295 -1344711305 2012855955 1604102826 -1789863536 58511741 -1903868379 -934558534 2118378145 -301594325 -479304448 2143616912 -1091767771 -1845681633 42954881 -1703303615 -264375356
REM
CELL 1.54180   50.00000   50.00000   50.00000   90.00000   90.00000   90.00000
LATT -1
SFAC C  
C      1  0.4694720000000  0.4527590000000  0.5282730000000 1.0
C      1  0.4918560000000  0.4462440000000  0.4835480000000 1.0
C      1  0.4815810000000  0.4217530000000  0.4760540000000 1.0
C      1  0.5575510000000  0.5820360000000  0.4637630000000 1.0
C      1  0.4917180000000  0.5804950000000  0.5025880000000 1.0
C      1  0.4608410000000  0.3750550000000  0.4637240000000 1.0
C      1  0.5521490000000  0.5561410000000  0.4653340000000 1.0
C      1  0.5613160000000  0.6082630000000  0.4630490000000 1.0
C      1  0.4926620000000  0.6041590000000  0.4916900000000 1.0
C      1  0.5107100000000  0.4986040000000  0.5531740000000 1.0
C      1  0.5644380000000  0.6341410000000  0.4626190000000 1.0
C      1  0.4535760000000  0.4453170000000  0.5481060000000 1.0
C      1  0.4864920000000  0.4609730000000  0.5080450000000 1.0
C      1  0.5326640000000  0.5078370000000  0.4739560000000 1.0
C      1  0.4948030000000  0.5313620000000  0.5219210000000 1.0
C      1  0.5441360000000  0.5310760000000  0.4684640000000 1.0
C      1  0.5102610000000  0.4627220000000  0.4687130000000 1.0
C      1  0.4377690000000  0.4379910000000  0.5680810000000 1.0
C      1  0.4711590000000  0.3982160000000  0.4697860000000 1.0
C      1  0.5023750000000  0.5051150000000  0.5279420000000 1.0
C      1  0.5166630000000  0.4871010000000  0.4826540000000 1.0
C      1  0.4918280000000  0.5561760000000  0.5131330000000 1.0
C      1  0.5017470000000  0.4856640000000  0.5076400000000 1.0
C      1  0.4222340000000  0.4308020000000  0.5877440000000 1.0
END
