TITL C-3201377-4638-1460 -1.41178240877762e-06 125000 -559.102646060677 0 0 92 (C1) n - 1
REM
REM in /home/nfs/bkarasulu/CARBON/AIRSS/Generating-Clusters/LCBOP/Higher-Symm/SD-CG/FIRE-CG
REM
REM
REM
REM
REM
REM ./C.cell (b20cbc046b6831c77cfcea5457e17084)
REM AIRSS Version 0.9.1 bugfix July 2018 build 013d7b7c2542+ Fri, 06 Jul 2018 19:26:36 +0100
REM compiler GCC version 9.2.1 20190827 (Red Hat 9.2.1-1)
REM options -cpp -mtune=generic -march=x86-64 -g -O0 -fpre-include=/usr/include/finclude/math-vector-fortran.h
REM seed -1876457508 -803330258 1913973880 878442159 -2062760959 431179731 327580097 1211326854 2054534844 -105934210 1214365015 815385262 273166189 -394775569 -2112148911 1845414203 -1622527661 -19133567 -41111580 89769631 -313240617 -176117919 132896191 -722924380 1337822793 1046537907 -774144207 -607788032 1854226020 2045372961 -1368180882 -1209180891 -1653957947
REM
CELL 1.54180   50.00000   50.00000   50.00000   90.00000   90.00000   90.00000
LATT -1
SFAC C  
C      1  0.4396840000000  0.4782860000000  0.4557950000000 1.0
C      1  0.5577500000000  0.5188470000000  0.4515890000000 1.0
C      1  0.4364590000000  0.5244970000000  0.5511140000000 1.0
C      1  0.5565780000000  0.4853380000000  0.5496960000000 1.0
C      1  0.4756480000000  0.4408960000000  0.4493060000000 1.0
C      1  0.5169040000000  0.5537180000000  0.4497300000000 1.0
C      1  0.5218870000000  0.4464640000000  0.5442750000000 1.0
C      1  0.4754390000000  0.5615330000000  0.5509270000000 1.0
C      1  0.5426500000000  0.4689540000000  0.4121490000000 1.0
C      1  0.4633880000000  0.5299890000000  0.4328670000000 1.0
C      1  0.5182660000000  0.4586860000000  0.6398670000000 1.0
C      1  0.4702870000000  0.4955620000000  0.5624160000000 1.0
C      1  0.5388920000000  0.5183610000000  0.3559530000000 1.0
C      1  0.5045320000000  0.4730300000000  0.4355410000000 1.0
C      1  0.5318200000000  0.5357930000000  0.5728440000000 1.0
C      1  0.4670810000000  0.4570040000000  0.5852710000000 1.0
C      1  0.4717880000000  0.4159530000000  0.5324510000000 1.0
C      1  0.5331510000000  0.5699260000000  0.5304980000000 1.0
C      1  0.4595550000000  0.5674970000000  0.4681170000000 1.0
C      1  0.5342060000000  0.4370230000000  0.4573010000000 1.0
C      1  0.4344570000000  0.4662450000000  0.5417000000000 1.0
C      1  0.5708700000000  0.5392760000000  0.5304720000000 1.0
C      1  0.5891560000000  0.4701170000000  0.4665130000000 1.0
C      1  0.4264800000000  0.5335920000000  0.4704450000000 1.0
C      1  0.5126470000000  0.5179770000000  0.5823860000000 1.0
C      1  0.4886690000000  0.4726690000000  0.5972520000000 1.0
C      1  0.5025850000000  0.4948070000000  0.4166820000000 1.0
C      1  0.5330500000000  0.5044160000000  0.3771780000000 1.0
C      1  0.5033110000000  0.4653690000000  0.6195990000000 1.0
C      1  0.4920930000000  0.4976400000000  0.5820140000000 1.0
C      1  0.4821280000000  0.5145390000000  0.4202230000000 1.0
C      1  0.5267630000000  0.4907130000000  0.4004180000000 1.0
C      1  0.4979880000000  0.4092060000000  0.5299890000000 1.0
C      1  0.5098870000000  0.5862010000000  0.5327530000000 1.0
C      1  0.4834980000000  0.5823070000000  0.4647440000000 1.0
C      1  0.5125220000000  0.4174190000000  0.4619090000000 1.0
C      1  0.4137680000000  0.4870730000000  0.5387270000000 1.0
C      1  0.5866100000000  0.5156240000000  0.5314120000000 1.0
C      1  0.5967590000000  0.4959910000000  0.4642320000000 1.0
C      1  0.4117830000000  0.5091680000000  0.4720730000000 1.0
C      1  0.4889540000000  0.5240960000000  0.4785290000000 1.0
C      1  0.5079810000000  0.4702110000000  0.4804350000000 1.0
C      1  0.4881310000000  0.4764170000000  0.5226390000000 1.0
C      1  0.5030420000000  0.5311500000000  0.5222890000000 1.0
C      1  0.5286940000000  0.4877450000000  0.4800690000000 1.0
C      1  0.4709760000000  0.5041120000000  0.4871420000000 1.0
C      1  0.4698460000000  0.4974050000000  0.5152690000000 1.0
C      1  0.5274360000000  0.5201080000000  0.5297290000000 1.0
C      1  0.5840250000000  0.5418840000000  0.4835370000000 1.0
C      1  0.4210280000000  0.4620880000000  0.4955720000000 1.0
C      1  0.5800200000000  0.4683570000000  0.5124020000000 1.0
C      1  0.4101490000000  0.5353500000000  0.5155220000000 1.0
C      1  0.5317960000000  0.5829640000000  0.4834050000000 1.0
C      1  0.4655040000000  0.4174680000000  0.4873330000000 1.0
C      1  0.4614100000000  0.5850720000000  0.5134570000000 1.0
C      1  0.5396340000000  0.4262090000000  0.5046620000000 1.0
C      1  0.5822260000000  0.5200310000000  0.4656450000000 1.0
C      1  0.4191490000000  0.4817520000000  0.4748850000000 1.0
C      1  0.5784250000000  0.4885960000000  0.5322020000000 1.0
C      1  0.4149200000000  0.5155770000000  0.5354680000000 1.0
C      1  0.5112550000000  0.5769870000000  0.4645720000000 1.0
C      1  0.4841410000000  0.4200710000000  0.4660770000000 1.0
C      1  0.4816890000000  0.5827760000000  0.5335140000000 1.0
C      1  0.5212150000000  0.4247250000000  0.5262930000000 1.0
C      1  0.5556910000000  0.4664000000000  0.5705230000000 1.0
C      1  0.4366290000000  0.5440600000000  0.5713180000000 1.0
C      1  0.5541910000000  0.5342730000000  0.4281400000000 1.0
C      1  0.4369940000000  0.4618450000000  0.4331710000000 1.0
C      1  0.4566030000000  0.5622930000000  0.5716980000000 1.0
C      1  0.5378570000000  0.4461890000000  0.5676000000000 1.0
C      1  0.5339180000000  0.5522260000000  0.4273810000000 1.0
C      1  0.4548330000000  0.4416980000000  0.4304470000000 1.0
C      1  0.5511140000000  0.4397960000000  0.4817150000000 1.0
C      1  0.4466620000000  0.5695180000000  0.4945780000000 1.0
C      1  0.5472520000000  0.5718720000000  0.5045800000000 1.0
C      1  0.4554080000000  0.4278490000000  0.5123410000000 1.0
C      1  0.4256320000000  0.5488750000000  0.4956830000000 1.0
C      1  0.5738420000000  0.4574250000000  0.4866500000000 1.0
C      1  0.5701050000000  0.5540310000000  0.5049500000000 1.0
C      1  0.4368990000000  0.4501940000000  0.5169480000000 1.0
C      1  0.4650350000000  0.4850360000000  0.4664670000000 1.0
C      1  0.5342720000000  0.5114000000000  0.4660850000000 1.0
C      1  0.4626850000000  0.5143510000000  0.5406530000000 1.0
C      1  0.5316320000000  0.4931920000000  0.5377250000000 1.0
C      1  0.4872030000000  0.4671710000000  0.4584220000000 1.0
C      1  0.5125240000000  0.5297650000000  0.4645360000000 1.0
C      1  0.5128950000000  0.4718940000000  0.5347560000000 1.0
C      1  0.4812240000000  0.5368540000000  0.5384790000000 1.0
C      1  0.4488440000000  0.5438100000000  0.4535030000000 1.0
C      1  0.5299160000000  0.4568930000000  0.4352790000000 1.0
C      1  0.4546470000000  0.4700970000000  0.5626420000000 1.0
C      1  0.5428600000000  0.5421340000000  0.5446550000000 1.0
END
