TITL C-3201378-2706-890 0.000360800268110583 125000 -486.145538749754 0 0 83 (C1) n - 1
REM
REM in /home/nfs/bkarasulu/CARBON/AIRSS/Generating-Clusters/LCBOP/Higher-Symm/SD-CG/FIRE-CG
REM
REM
REM
REM
REM
REM ./C.cell (b20cbc046b6831c77cfcea5457e17084)
REM AIRSS Version 0.9.1 bugfix July 2018 build 013d7b7c2542+ Fri, 06 Jul 2018 19:26:36 +0100
REM compiler GCC version 9.2.1 20190827 (Red Hat 9.2.1-1)
REM options -cpp -mtune=generic -march=x86-64 -g -O0 -fpre-include=/usr/include/finclude/math-vector-fortran.h
REM seed -363498068 1317153119 -405207515 2061750316 2132738831 1018170102 -844100753 782389396 -1910049542 -1692612953 51336583 -1600833430 -1042062784 1203530898 223772953 1212183406 -2138037377 -742733402 590247469 -736979430 1372612087 -1518662958 -1674676808 1808347143 -835614797 -1538826745 1471984087 -1447387182 1605229200 -888080987 -308440855 336441949 -1011523959
REM
CELL 1.54180   50.00000   50.00000   50.00000   90.00000   90.00000   90.00000
LATT -1
SFAC C  
C      1  0.4972320000000  0.4929730000000  0.5577230000000 1.0
C      1  0.5514000000000  0.4974950000000  0.5410660000000 1.0
C      1  0.5036900000000  0.5192740000000  0.4700930000000 1.0
C      1  0.4590390000000  0.4793330000000  0.5113300000000 1.0
C      1  0.5565290000000  0.5364520000000  0.4272080000000 1.0
C      1  0.4567740000000  0.4719800000000  0.4387680000000 1.0
C      1  0.4403880000000  0.5361680000000  0.5455870000000 1.0
C      1  0.5293120000000  0.4503380000000  0.5879100000000 1.0
C      1  0.4548270000000  0.5332100000000  0.4696910000000 1.0
C      1  0.4542360000000  0.4487200000000  0.5559510000000 1.0
C      1  0.5696880000000  0.5537160000000  0.5051120000000 1.0
C      1  0.5311020000000  0.4743210000000  0.4309590000000 1.0
C      1  0.4506560000000  0.5220790000000  0.4437140000000 1.0
C      1  0.4269360000000  0.4470260000000  0.5610890000000 1.0
C      1  0.5914610000000  0.5621270000000  0.5205560000000 1.0
C      1  0.5565120000000  0.4871680000000  0.4284020000000 1.0
C      1  0.4319200000000  0.4127760000000  0.4039150000000 1.0
C      1  0.4492880000000  0.6066250000000  0.5636840000000 1.0
C      1  0.5593910000000  0.3896690000000  0.5603220000000 1.0
C      1  0.5942410000000  0.5870250000000  0.3899070000000 1.0
C      1  0.5746210000000  0.5437060000000  0.4789410000000 1.0
C      1  0.5072540000000  0.4786140000000  0.4156760000000 1.0
C      1  0.4340320000000  0.5399670000000  0.4885220000000 1.0
C      1  0.4735250000000  0.4413050000000  0.5755880000000 1.0
C      1  0.4922250000000  0.4518360000000  0.5231510000000 1.0
C      1  0.5247700000000  0.5378920000000  0.5274440000000 1.0
C      1  0.5114410000000  0.4662590000000  0.4764350000000 1.0
C      1  0.4801210000000  0.5306270000000  0.5101060000000 1.0
C      1  0.3956550000000  0.4477110000000  0.4693620000000 1.0
C      1  0.4469630000000  0.5215460000000  0.6168370000000 1.0
C      1  0.5954970000000  0.4536070000000  0.6162630000000 1.0
C      1  0.5054830000000  0.5680720000000  0.3849980000000 1.0
C      1  0.4531540000000  0.5251010000000  0.5917750000000 1.0
C      1  0.5755920000000  0.4588100000000  0.6002670000000 1.0
C      1  0.5170250000000  0.5557180000000  0.4048280000000 1.0
C      1  0.4204830000000  0.4550930000000  0.4665150000000 1.0
C      1  0.4866670000000  0.5208180000000  0.5559380000000 1.0
C      1  0.5571340000000  0.4811250000000  0.5613760000000 1.0
C      1  0.5145650000000  0.5326080000000  0.4481120000000 1.0
C      1  0.4638030000000  0.4640040000000  0.4864230000000 1.0
C      1  0.4374550000000  0.5631890000000  0.5052050000000 1.0
C      1  0.4941300000000  0.4223940000000  0.5697700000000 1.0
C      1  0.5816110000000  0.5619930000000  0.4581610000000 1.0
C      1  0.4913960000000  0.4558360000000  0.4089820000000 1.0
C      1  0.5288210000000  0.5420730000000  0.4259330000000 1.0
C      1  0.4469950000000  0.4634960000000  0.4639940000000 1.0
C      1  0.4599400000000  0.5273870000000  0.5648210000000 1.0
C      1  0.5540360000000  0.4635100000000  0.5831180000000 1.0
C      1  0.4650400000000  0.4523660000000  0.4192170000000 1.0
C      1  0.4410900000000  0.5626790000000  0.5337030000000 1.0
C      1  0.5220550000000  0.4257190000000  0.5746220000000 1.0
C      1  0.5750250000000  0.5579520000000  0.4308610000000 1.0
C      1  0.4808350000000  0.5327330000000  0.4817530000000 1.0
C      1  0.4640180000000  0.4582210000000  0.5312990000000 1.0
C      1  0.5437520000000  0.5551760000000  0.5164350000000 1.0
C      1  0.5266130000000  0.4588210000000  0.4543130000000 1.0
C      1  0.4651280000000  0.4992630000000  0.4342930000000 1.0
C      1  0.4240890000000  0.5179710000000  0.5306060000000 1.0
C      1  0.5078670000000  0.4624330000000  0.6023270000000 1.0
C      1  0.5624880000000  0.5118670000000  0.4413990000000 1.0
C      1  0.4207130000000  0.5194250000000  0.5034350000000 1.0
C      1  0.4814170000000  0.4585400000000  0.5968780000000 1.0
C      1  0.5699360000000  0.5172600000000  0.4686170000000 1.0
C      1  0.4901610000000  0.5009870000000  0.4205600000000 1.0
C      1  0.5126990000000  0.4944420000000  0.4831260000000 1.0
C      1  0.4775190000000  0.5017100000000  0.5133800000000 1.0
C      1  0.5064200000000  0.4738420000000  0.5363850000000 1.0
C      1  0.5321270000000  0.5103310000000  0.5251150000000 1.0
C      1  0.4483440000000  0.4318240000000  0.4107420000000 1.0
C      1  0.4448780000000  0.5857250000000  0.5487560000000 1.0
C      1  0.5408310000000  0.4066310000000  0.5671750000000 1.0
C      1  0.5854000000000  0.5730060000000  0.4100180000000 1.0
C      1  0.5761770000000  0.4751320000000  0.4125740000000 1.0
C      1  0.4319400000000  0.5340190000000  0.4267000000000 1.0
C      1  0.4007240000000  0.4480120000000  0.5648010000000 1.0
C      1  0.6122490000000  0.5696720000000  0.5351440000000 1.0
C      1  0.4144780000000  0.5451450000000  0.4108760000000 1.0
C      1  0.3749160000000  0.4495690000000  0.5681330000000 1.0
C      1  0.6327150000000  0.5770540000000  0.5495060000000 1.0
C      1  0.5945180000000  0.4641090000000  0.3977010000000 1.0
C      1  0.4911940000000  0.4528730000000  0.4921020000000 1.0
C      1  0.4964330000000  0.5379090000000  0.5331770000000 1.0
C      1  0.5093110000000  0.4941780000000  0.5134410000000 1.0
END
