TITL C-3201376-6384-1376 705701.133328743 125000 -641.952709017745 0 0 107 (C1) n - 1
REM
REM in /home/nfs/bkarasulu/CARBON/AIRSS/Generating-Clusters/LCBOP/Higher-Symm/SD-CG/FIRE-CG
REM
REM
REM
REM
REM
REM ./C.cell (b20cbc046b6831c77cfcea5457e17084)
REM AIRSS Version 0.9.1 bugfix July 2018 build 013d7b7c2542+ Fri, 06 Jul 2018 19:26:36 +0100
REM compiler GCC version 9.2.1 20190827 (Red Hat 9.2.1-1)
REM options -cpp -mtune=generic -march=x86-64 -g -O0 -fpre-include=/usr/include/finclude/math-vector-fortran.h
REM seed 663942986 627897604 -1670985777 -70850163 1076190631 689144076 1925753943 -1926786511 906531375 994886798 -1462564261 -168863814 -1378881801 1557238480 116560563 1981637009 -524509650 1458739328 92242573 1756897632 -1700998616 -268370337 1002966711 -1399862029 -1796923005 -86014755 -2089738149 -945512525 -380767158 -860986854 -1974456701 -1865040369 40075172
REM
CELL 1.54180   50.00000   50.00000   50.00000   90.00000   90.00000   90.00000
LATT -1
SFAC C  
C      1  0.4687660000000  0.6086450000000  0.5123790000000 1.0
C      1  0.4322810000000  0.4152000000000  0.5125350000000 1.0
C      1  0.6017600000000  0.4591150000000  0.5129460000000 1.0
C      1  0.4537640000000  0.4248530000000  0.4661410000000 1.0
C      1  0.5903630000000  0.4900870000000  0.4666370000000 1.0
C      1  0.4594720000000  0.5791120000000  0.4701370000000 1.0
C      1  0.5022530000000  0.4100890000000  0.4791850000000 1.0
C      1  0.5762650000000  0.5426520000000  0.4865600000000 1.0
C      1  0.4261050000000  0.5396350000000  0.4931990000000 1.0
C      1  0.5087760000000  0.5857950000000  0.4552880000000 1.0
C      1  0.4232060000000  0.4651230000000  0.4571220000000 1.0
C      1  0.5669990000000  0.4480830000000  0.4496430000000 1.0
C      1  0.5090600000000  0.5267180000000  0.4956650000000 1.0
C      1  0.4745420000000  0.4932830000000  0.4967690000000 1.0
C      1  0.5194600000000  0.4810810000000  0.4966500000000 1.0
C      1  0.5408730000000  0.5265670000000  0.5889090000000 1.0
C      1  0.4805610000000  0.5100340000000  0.5907870000000 1.0
C      1  0.5188110000000  0.4654220000000  0.5906870000000 1.0
C      1  0.4634750000000  0.5201040000000  0.4454330000000 1.0
C      1  0.5009630000000  0.4597700000000  0.4411570000000 1.0
C      1  0.5350180000000  0.5215600000000  0.4439290000000 1.0
C      1  0.4766950000000  0.5934450000000  0.4892010000000 1.0
C      1  0.4361640000000  0.4318640000000  0.4885320000000 1.0
C      1  0.5890800000000  0.4662720000000  0.4858970000000 1.0
C      1  0.5441890000000  0.4794650000000  0.4248410000000 1.0
C      1  0.4958550000000  0.5501300000000  0.4291210000000 1.0
C      1  0.4580380000000  0.4734010000000  0.4276570000000 1.0
C      1  0.5358820000000  0.4819270000000  0.5749630000000 1.0
C      1  0.5182470000000  0.5349750000000  0.5735500000000 1.0
C      1  0.4789420000000  0.4858370000000  0.5747650000000 1.0
C      1  0.4871460000000  0.6584270000000  0.5204970000000 1.0
C      1  0.3816800000000  0.4058140000000  0.5285400000000 1.0
C      1  0.5764550000000  0.4266080000000  0.5494100000000 1.0
C      1  0.4272040000000  0.4708730000000  0.5279240000000 1.0
C      1  0.5542450000000  0.4446830000000  0.5169050000000 1.0
C      1  0.5220120000000  0.5805280000000  0.5240170000000 1.0
C      1  0.4645080000000  0.4735340000000  0.4789890000000 1.0
C      1  0.5402540000000  0.4792610000000  0.4770760000000 1.0
C      1  0.4961650000000  0.5446480000000  0.4787550000000 1.0
C      1  0.4716740000000  0.5543230000000  0.5666340000000 1.0
C      1  0.4955060000000  0.4351730000000  0.5588690000000 1.0
C      1  0.5779560000000  0.5046670000000  0.5623870000000 1.0
C      1  0.5195670000000  0.6924190000000  0.5438320000000 1.0
C      1  0.3388790000000  0.4162480000000  0.5570390000000 1.0
C      1  0.5231550000000  0.4241610000000  0.5593980000000 1.0
C      1  0.5017330000000  0.5803890000000  0.4821780000000 1.0
C      1  0.4355670000000  0.4613000000000  0.4832470000000 1.0
C      1  0.5621090000000  0.4568870000000  0.4767590000000 1.0
C      1  0.5002370000000  0.5618000000000  0.5213630000000 1.0
C      1  0.4545630000000  0.4629470000000  0.5226790000000 1.0
C      1  0.5557020000000  0.4730440000000  0.5192790000000 1.0
C      1  0.5235100000000  0.4839170000000  0.5493770000000 1.0
C      1  0.5232620000000  0.5307620000000  0.5460800000000 1.0
C      1  0.4738140000000  0.4954600000000  0.5487080000000 1.0
C      1  0.5894080000000  0.5006590000000  0.5363410000000 1.0
C      1  0.4613710000000  0.5682320000000  0.5430950000000 1.0
C      1  0.4766490000000  0.4254910000000  0.5373220000000 1.0
C      1  0.5243740000000  0.5475740000000  0.4371600000000 1.0
C      1  0.4458780000000  0.4987070000000  0.4375560000000 1.0
C      1  0.5275590000000  0.4555080000000  0.4310800000000 1.0
C      1  0.5606170000000  0.5755300000000  0.4515320000000 1.0
C      1  0.4037220000000  0.5135830000000  0.4565940000000 1.0
C      1  0.5339340000000  0.4085450000000  0.4406870000000 1.0
C      1  0.4060330000000  0.4068100000000  0.5181320000000 1.0
C      1  0.5942300000000  0.4366640000000  0.5306310000000 1.0
C      1  0.4750320000000  0.6358750000000  0.5136250000000 1.0
C      1  0.4930720000000  0.4597180000000  0.5774570000000 1.0
C      1  0.5548080000000  0.5030100000000  0.5797100000000 1.0
C      1  0.4898600000000  0.5355720000000  0.5803320000000 1.0
C      1  0.5709830000000  0.4972290000000  0.5144370000000 1.0
C      1  0.4712970000000  0.5580730000000  0.5178990000000 1.0
C      1  0.4738060000000  0.4422770000000  0.5141820000000 1.0
C      1  0.4836530000000  0.5249760000000  0.4256020000000 1.0
C      1  0.4859210000000  0.4761860000000  0.4233420000000 1.0
C      1  0.5278400000000  0.5025670000000  0.4236830000000 1.0
C      1  0.5333340000000  0.5733280000000  0.4462000000000 1.0
C      1  0.4201170000000  0.4925330000000  0.4487190000000 1.0
C      1  0.5450610000000  0.4338590000000  0.4378260000000 1.0
C      1  0.4222610000000  0.5214390000000  0.5150060000000 1.0
C      1  0.5200220000000  0.4093610000000  0.5008120000000 1.0
C      1  0.5660640000000  0.5567110000000  0.5093390000000 1.0
C      1  0.4811120000000  0.4303210000000  0.4795560000000 1.0
C      1  0.5730530000000  0.5127090000000  0.4828030000000 1.0
C      1  0.4521920000000  0.5529090000000  0.4865790000000 1.0
C      1  0.5134250000000  0.5365070000000  0.5212870000000 1.0
C      1  0.4679500000000  0.4881200000000  0.5232790000000 1.0
C      1  0.5284410000000  0.4793810000000  0.5231000000000 1.0
C      1  0.4178720000000  0.4964690000000  0.5246470000000 1.0
C      1  0.5412030000000  0.4223940000000  0.5101010000000 1.0
C      1  0.5482830000000  0.5745130000000  0.5193630000000 1.0
C      1  0.5785070000000  0.5594420000000  0.4637580000000 1.0
C      1  0.4078450000000  0.5353310000000  0.4719150000000 1.0
C      1  0.5127580000000  0.4000650000000  0.4550080000000 1.0
C      1  0.5465250000000  0.5074580000000  0.4673500000000 1.0
C      1  0.4698650000000  0.5345680000000  0.4701740000000 1.0
C      1  0.4866910000000  0.4567120000000  0.4664910000000 1.0
C      1  0.6103510000000  0.4822100000000  0.5288470000000 1.0
C      1  0.4579300000000  0.5960700000000  0.5363220000000 1.0
C      1  0.4527600000000  0.4091560000000  0.5333320000000 1.0
C      1  0.5507010000000  0.4229680000000  0.5588420000000 1.0
C      1  0.5027310000000  0.6769780000000  0.5312660000000 1.0
C      1  0.3592690000000  0.4097440000000  0.5421510000000 1.0
C      1  0.4440210000000  0.4497020000000  0.4409970000000 1.0
C      1  0.5719890000000  0.4755730000000  0.4380440000000 1.0
C      1  0.4835680000000  0.5743570000000  0.4425500000000 1.0
C      1  0.4990190000000  0.5015650000000  0.4181700000000 1.0
C      1  0.5007160000000  0.5006610000000  0.4926210000000 1.0
END
