TITL C-3201375-1262-259 -571.633593735 125000 -1092.06542010221 0 0 183 (C1) n - 1
REM
REM in /home/nfs/bkarasulu/CARBON/AIRSS/Generating-Clusters/LCBOP/Higher-Symm/SD-CG/FIRE-CG
REM
REM
REM
REM
REM
REM ./C.cell (b20cbc046b6831c77cfcea5457e17084)
REM AIRSS Version 0.9.1 bugfix July 2018 build 013d7b7c2542+ Fri, 06 Jul 2018 19:26:36 +0100
REM compiler GCC version 9.2.1 20190827 (Red Hat 9.2.1-1)
REM options -cpp -mtune=generic -march=x86-64 -g -O0 -fpre-include=/usr/include/finclude/math-vector-fortran.h
REM seed -92326719 1213216908 807820671 1870983349 678717119 962620388 -1855470225 -1643049095 893620543 -1052431366 -2036817385 -1999248286 -138715575 17967465 290058401 1660824797 -2063027798 -956073525 151754020 577315235 -750148198 1648624862 1783076067 27776635 -924738056 44107787 -1476505629 -1432425599 576220167 1162076431 521686905 -1972382073 -970274264
REM
CELL 1.54180   50.00000   50.00000   50.00000   90.00000   90.00000   90.00000
LATT -1
SFAC C  
C      1  0.5553310000000  0.3820480000000  0.5379220000000 1.0
C      1  0.5485690000000  0.3810170000000  0.4635830000000 1.0
C      1  0.4778080000000  0.3832600000000  0.4457500000000 1.0
C      1  0.4405920000000  0.3814970000000  0.5112040000000 1.0
C      1  0.4847960000000  0.3838230000000  0.5634170000000 1.0
C      1  0.5185100000000  0.4455250000000  0.4730110000000 1.0
C      1  0.4699690000000  0.4505140000000  0.4672280000000 1.0
C      1  0.4704480000000  0.4430970000000  0.4966400000000 1.0
C      1  0.5005130000000  0.4466730000000  0.5381420000000 1.0
C      1  0.5384900000000  0.4458490000000  0.5133330000000 1.0
C      1  0.4885200000000  0.4531310000000  0.4212020000000 1.0
C      1  0.4194190000000  0.4513080000000  0.4844190000000 1.0
C      1  0.4609130000000  0.4560900000000  0.5699680000000 1.0
C      1  0.5576050000000  0.4547150000000  0.5605450000000 1.0
C      1  0.5707120000000  0.4532490000000  0.4663450000000 1.0
C      1  0.5759060000000  0.5156010000000  0.6069330000000 1.0
C      1  0.6222040000000  0.5135910000000  0.4599870000000 1.0
C      1  0.5001850000000  0.5241250000000  0.3655460000000 1.0
C      1  0.3767780000000  0.5142910000000  0.4604030000000 1.0
C      1  0.4217220000000  0.5158680000000  0.6050320000000 1.0
C      1  0.5656130000000  0.3657180000000  0.4486820000000 1.0
C      1  0.4692870000000  0.3649240000000  0.4273410000000 1.0
C      1  0.4207020000000  0.3641760000000  0.5183940000000 1.0
C      1  0.4809930000000  0.3691250000000  0.5861250000000 1.0
C      1  0.5749080000000  0.3665330000000  0.5490010000000 1.0
C      1  0.4855050000000  0.4879130000000  0.5335770000000 1.0
C      1  0.5328930000000  0.4876290000000  0.5267850000000 1.0
C      1  0.5335410000000  0.4869240000000  0.4783850000000 1.0
C      1  0.4893140000000  0.4896070000000  0.4583370000000 1.0
C      1  0.4565930000000  0.4899130000000  0.4948950000000 1.0
C      1  0.4449900000000  0.5804010000000  0.4487220000000 1.0
C      1  0.4338010000000  0.5803490000000  0.5363380000000 1.0
C      1  0.5136010000000  0.5792240000000  0.5742760000000 1.0
C      1  0.5746700000000  0.5793740000000  0.5103660000000 1.0
C      1  0.5327400000000  0.5813810000000  0.4327230000000 1.0
C      1  0.4068040000000  0.5115510000000  0.5512000000000 1.0
C      1  0.5197740000000  0.5101740000000  0.6039720000000 1.0
C      1  0.6044440000000  0.5096360000000  0.5128940000000 1.0
C      1  0.5432390000000  0.5135430000000  0.4020630000000 1.0
C      1  0.4227040000000  0.5104980000000  0.4284680000000 1.0
C      1  0.5559220000000  0.5273660000000  0.5064540000000 1.0
C      1  0.5249360000000  0.5281420000000  0.4492930000000 1.0
C      1  0.4602720000000  0.5295770000000  0.4599960000000 1.0
C      1  0.4498660000000  0.5281330000000  0.5274030000000 1.0
C      1  0.5105630000000  0.5268380000000  0.5546830000000 1.0
C      1  0.4588440000000  0.5889490000000  0.5745960000000 1.0
C      1  0.5577910000000  0.5882390000000  0.5627410000000 1.0
C      1  0.5770820000000  0.5893480000000  0.4649690000000 1.0
C      1  0.4899600000000  0.5899840000000  0.4168970000000 1.0
C      1  0.4169510000000  0.5891450000000  0.4846340000000 1.0
C      1  0.5926590000000  0.5425440000000  0.5455480000000 1.0
C      1  0.5713670000000  0.5444640000000  0.4253680000000 1.0
C      1  0.4508200000000  0.5445010000000  0.4092340000000 1.0
C      1  0.3974330000000  0.5445530000000  0.5181990000000 1.0
C      1  0.4850960000000  0.5429110000000  0.6022260000000 1.0
C      1  0.5058510000000  0.5716790000000  0.4310140000000 1.0
C      1  0.4353230000000  0.5708020000000  0.4739880000000 1.0
C      1  0.4543910000000  0.5706810000000  0.5537690000000 1.0
C      1  0.5367370000000  0.5698740000000  0.5602120000000 1.0
C      1  0.5682940000000  0.5705490000000  0.4838340000000 1.0
C      1  0.3375680000000  0.5020780000000  0.5266390000000 1.0
C      1  0.4738950000000  0.5010860000000  0.6616420000000 1.0
C      1  0.6472360000000  0.5021540000000  0.5732640000000 1.0
C      1  0.6138250000000  0.5009250000000  0.3835020000000 1.0
C      1  0.4243600000000  0.5057910000000  0.3537280000000 1.0
C      1  0.4401770000000  0.4347670000000  0.4986480000000 1.0
C      1  0.4799720000000  0.4384850000000  0.5562600000000 1.0
C      1  0.5504320000000  0.4373460000000  0.5379030000000 1.0
C      1  0.5459430000000  0.4365470000000  0.4669840000000 1.0
C      1  0.4778880000000  0.4384550000000  0.4425540000000 1.0
C      1  0.5120860000000  0.4729200000000  0.4657040000000 1.0
C      1  0.4655140000000  0.4788460000000  0.4696810000000 1.0
C      1  0.4695870000000  0.4745020000000  0.5142040000000 1.0
C      1  0.5098590000000  0.4735800000000  0.5376820000000 1.0
C      1  0.5396190000000  0.4727420000000  0.5033740000000 1.0
C      1  0.3895180000000  0.4513000000000  0.5236300000000 1.0
C      1  0.4859160000000  0.4527180000000  0.6118770000000 1.0
C      1  0.6048690000000  0.4527370000000  0.5483640000000 1.0
C      1  0.5717740000000  0.4530050000000  0.4173970000000 1.0
C      1  0.4421350000000  0.4570790000000  0.3949990000000 1.0
C      1  0.4654800000000  0.6014440000000  0.4544630000000 1.0
C      1  0.4455160000000  0.6014680000000  0.5188710000000 1.0
C      1  0.5005600000000  0.6005870000000  0.5581730000000 1.0
C      1  0.5550740000000  0.6005220000000  0.5181200000000 1.0
C      1  0.5338660000000  0.6020710000000  0.4540480000000 1.0
C      1  0.4182070000000  0.5373420000000  0.5615060000000 1.0
C      1  0.5329060000000  0.5360520000000  0.5963300000000 1.0
C      1  0.6012250000000  0.5357010000000  0.4980410000000 1.0
C      1  0.5290970000000  0.5400520000000  0.4015450000000 1.0
C      1  0.4163710000000  0.5364940000000  0.4424820000000 1.0
C      1  0.5234470000000  0.5572980000000  0.4940340000000 1.0
C      1  0.5013970000000  0.5572830000000  0.4763800000000 1.0
C      1  0.4777030000000  0.5571480000000  0.4920500000000 1.0
C      1  0.4850760000000  0.5569540000000  0.5194060000000 1.0
C      1  0.5134990000000  0.5570970000000  0.5204970000000 1.0
C      1  0.5066220000000  0.5501360000000  0.4500390000000 1.0
C      1  0.4542740000000  0.5498040000000  0.4791530000000 1.0
C      1  0.4655900000000  0.5495320000000  0.5378200000000 1.0
C      1  0.5252870000000  0.5488920000000  0.5442650000000 1.0
C      1  0.5496940000000  0.5494080000000  0.4896470000000 1.0
C      1  0.5875140000000  0.4915200000000  0.6065250000000 1.0
C      1  0.6239880000000  0.4890560000000  0.4495340000000 1.0
C      1  0.4915190000000  0.4988580000000  0.3623030000000 1.0
C      1  0.3684440000000  0.4899370000000  0.4675910000000 1.0
C      1  0.4254420000000  0.4910820000000  0.6143290000000 1.0
C      1  0.4218440000000  0.4679640000000  0.4604600000000 1.0
C      1  0.4411860000000  0.4734380000000  0.5587390000000 1.0
C      1  0.5405380000000  0.4713630000000  0.5764110000000 1.0
C      1  0.5827500000000  0.4696450000000  0.4868850000000 1.0
C      1  0.5076320000000  0.4761220000000  0.4027930000000 1.0
C      1  0.6108940000000  0.4668440000000  0.4424500000000 1.0
C      1  0.4884290000000  0.4780610000000  0.3804200000000 1.0
C      1  0.3736570000000  0.4672110000000  0.4806920000000 1.0
C      1  0.4399470000000  0.4687330000000  0.6122460000000 1.0
C      1  0.5915240000000  0.4692000000000  0.5923610000000 1.0
C      1  0.4790240000000  0.4112230000000  0.5629770000000 1.0
C      1  0.5559940000000  0.4099290000000  0.5406970000000 1.0
C      1  0.5494080000000  0.4090080000000  0.4619200000000 1.0
C      1  0.4757800000000  0.4106390000000  0.4403480000000 1.0
C      1  0.4350710000000  0.4088150000000  0.5079480000000 1.0
C      1  0.5608190000000  0.6082190000000  0.5448420000000 1.0
C      1  0.5610220000000  0.6096480000000  0.4572590000000 1.0
C      1  0.4765990000000  0.6096180000000  0.4296620000000 1.0
C      1  0.4252760000000  0.6092830000000  0.5005720000000 1.0
C      1  0.4770810000000  0.6086690000000  0.5719070000000 1.0
C      1  0.5339180000000  0.4862110000000  0.4024970000000 1.0
C      1  0.4212180000000  0.4821160000000  0.4352300000000 1.0
C      1  0.4152870000000  0.4841330000000  0.5536400000000 1.0
C      1  0.5254190000000  0.4825970000000  0.5977560000000 1.0
C      1  0.6000440000000  0.4817920000000  0.5061920000000 1.0
C      1  0.4939680000000  0.5182890000000  0.6149190000000 1.0
C      1  0.6075870000000  0.5180380000000  0.5407490000000 1.0
C      1  0.5707830000000  0.5203230000000  0.4090680000000 1.0
C      1  0.4366040000000  0.5196120000000  0.4041670000000 1.0
C      1  0.3880210000000  0.5199520000000  0.5305890000000 1.0
C      1  0.4664250000000  0.3726220000000  0.5070910000000 1.0
C      1  0.4943810000000  0.3723750000000  0.5402540000000 1.0
C      1  0.5344670000000  0.3708820000000  0.5237550000000 1.0
C      1  0.5301250000000  0.3695370000000  0.4806140000000 1.0
C      1  0.4884960000000  0.3752590000000  0.4698440000000 1.0
C      1  0.5391050000000  0.5101280000000  0.4636420000000 1.0
C      1  0.4797780000000  0.5143700000000  0.4488950000000 1.0
C      1  0.4442210000000  0.5120050000000  0.5065290000000 1.0
C      1  0.4893090000000  0.5110720000000  0.5492090000000 1.0
C      1  0.5475500000000  0.5112940000000  0.5264010000000 1.0
C      1  0.4320670000000  0.5351640000000  0.5869730000000 1.0
C      1  0.5615130000000  0.5342970000000  0.5911550000000 1.0
C      1  0.6043960000000  0.5337630000000  0.4690840000000 1.0
C      1  0.5028040000000  0.5401590000000  0.3888810000000 1.0
C      1  0.3964990000000  0.5344590000000  0.4636470000000 1.0
C      1  0.5854290000000  0.4547790000000  0.4416130000000 1.0
C      1  0.4689080000000  0.4602860000000  0.3907890000000 1.0
C      1  0.3930710000000  0.4536000000000  0.4960200000000 1.0
C      1  0.4615110000000  0.4566560000000  0.5988030000000 1.0
C      1  0.5853710000000  0.4563380000000  0.5681000000000 1.0
C      1  0.4774370000000  0.5473140000000  0.4000980000000 1.0
C      1  0.3972320000000  0.5455340000000  0.4899400000000 1.0
C      1  0.4581190000000  0.5445170000000  0.5939940000000 1.0
C      1  0.5762830000000  0.5437770000000  0.5685740000000 1.0
C      1  0.5880930000000  0.5446620000000  0.4482270000000 1.0
C      1  0.4136280000000  0.5587280000000  0.5387500000000 1.0
C      1  0.5096650000000  0.5572060000000  0.5937040000000 1.0
C      1  0.5919450000000  0.5570250000000  0.5195940000000 1.0
C      1  0.5470670000000  0.5599630000000  0.4181330000000 1.0
C      1  0.4359880000000  0.5584580000000  0.4308090000000 1.0
C      1  0.6109890000000  0.4633040000000  0.5246190000000 1.0
C      1  0.5538140000000  0.4663030000000  0.4030690000000 1.0
C      1  0.4237550000000  0.4650190000000  0.4127040000000 1.0
C      1  0.3965240000000  0.4645950000000  0.5456650000000 1.0
C      1  0.5102730000000  0.4635850000000  0.6121650000000 1.0
C      1  0.5152300000000  0.6060870000000  0.4781530000000 1.0
C      1  0.4831080000000  0.6059280000000  0.4794360000000 1.0
C      1  0.4746340000000  0.6058070000000  0.5101900000000 1.0
C      1  0.5012380000000  0.6054900000000  0.5278630000000 1.0
C      1  0.5263480000000  0.6055630000000  0.5081250000000 1.0
C      1  0.4825830000000  0.5081550000000  0.6381070000000 1.0
C      1  0.6269020000000  0.5084310000000  0.5582150000000 1.0
C      1  0.5933240000000  0.5092070000000  0.3973020000000 1.0
C      1  0.4311840000000  0.5107620000000  0.3783890000000 1.0
C      1  0.3624960000000  0.5096740000000  0.5271420000000 1.0
C      1  0.5050700000000  0.4059280000000  0.5049530000000 1.0
C      1  0.5030550000000  0.3769290000000  0.5043900000000 1.0
C      1  0.5029990000000  0.4343550000000  0.5043720000000 1.0
END
