TITL C-3201373-1215-15 2.02957788425217e-07 125000 -25.0790098697786 0 0 5 (D(inf)h) n - 1
REM
REM in /home/nfs/bkarasulu/CARBON/AIRSS/Generating-Clusters/LCBOP/Higher-Symm/SD-CG/FIRE-CG
REM
REM
REM
REM
REM
REM ./C.cell (b20cbc046b6831c77cfcea5457e17084)
REM AIRSS Version 0.9.1 bugfix July 2018 build 013d7b7c2542+ Fri, 06 Jul 2018 19:26:36 +0100
REM compiler GCC version 9.2.1 20190827 (Red Hat 9.2.1-1)
REM options -cpp -mtune=generic -march=x86-64 -g -O0 -fpre-include=/usr/include/finclude/math-vector-fortran.h
REM seed -1401856769 -1949061961 1288582962 2072298952 -262149835 -2063538994 -1742370508 1453510280 727581014 1694064670 -490395500 1484100208 1746841123 -1442766347 1818765611 834428382 -1360184082 1689715954 1035484848 -122753252 -1767146077 979174356 -586114272 1946974495 -814442608 -1428894760 1525042139 302899289 -1323997729 1945114098 -351481575 -1794223569 187192056
REM
CELL 1.54180   50.00000   50.00000   50.00000   90.00000   90.00000   90.00000
LATT -1
SFAC C  
C      1  0.5525770000000  0.5027610000000  0.4999610000000 1.0
C      1  0.5265070000000  0.5027610000000  0.4999610000000 1.0
C      1  0.5000000000000  0.5027610000000  0.4999610000000 1.0
C      1  0.4474230000000  0.5027610000000  0.4999610000000 1.0
C      1  0.4734930000000  0.5027610000000  0.4999610000000 1.0
END
