TITL C-3201374-830-518 -4.42942959991713e-07 125000 -128.706013071508 0 0 24 (C1) n - 1
REM
REM in /home/nfs/bkarasulu/CARBON/AIRSS/Generating-Clusters/LCBOP/Higher-Symm/SD-CG/FIRE-CG
REM
REM
REM
REM
REM
REM ./C.cell (b20cbc046b6831c77cfcea5457e17084)
REM AIRSS Version 0.9.1 bugfix July 2018 build 013d7b7c2542+ Fri, 06 Jul 2018 19:26:36 +0100
REM compiler GCC version 9.2.1 20190827 (Red Hat 9.2.1-1)
REM options -cpp -mtune=generic -march=x86-64 -g -O0 -fpre-include=/usr/include/finclude/math-vector-fortran.h
REM seed -1438911810 1423995490 -513309012 -2042268986 -186772620 -972515748 -376965280 1769116610 -1253160925 -7852851 1982352942 -1250569008 1707189581 -1353592186 2031053451 97042904 2073139734 -792148637 -816159929 -1629541762 -1440272214 1185134915 1978037227 -778725839 2092597636 1113365217 1893231579 1885661538 -9881639 153348135 1696509341 625630972 1166659691
REM
CELL 1.54180   50.00000   50.00000   50.00000   90.00000   90.00000   90.00000
LATT -1
SFAC C  
C      1  0.4669970000000  0.4758100000000  0.5077140000000 1.0
C      1  0.5261180000000  0.4898340000000  0.4870650000000 1.0
C      1  0.4393410000000  0.4958340000000  0.4742340000000 1.0
C      1  0.5754120000000  0.4921220000000  0.4869340000000 1.0
C      1  0.5223480000000  0.5291140000000  0.5187400000000 1.0
C      1  0.4739910000000  0.5146820000000  0.5390380000000 1.0
C      1  0.4736950000000  0.4496070000000  0.5026930000000 1.0
C      1  0.5187820000000  0.4756900000000  0.4647520000000 1.0
C      1  0.5119690000000  0.5423900000000  0.5400290000000 1.0
C      1  0.4872090000000  0.5361280000000  0.5493140000000 1.0
C      1  0.5508400000000  0.4724080000000  0.5245070000000 1.0
C      1  0.4198700000000  0.4841980000000  0.5170440000000 1.0
C      1  0.4922160000000  0.5268340000000  0.4804310000000 1.0
C      1  0.4818420000000  0.5172450000000  0.4556350000000 1.0
C      1  0.5974580000000  0.4993360000000  0.4750550000000 1.0
C      1  0.4559120000000  0.5066610000000  0.4563650000000 1.0
C      1  0.5068980000000  0.5090270000000  0.5005820000000 1.0
C      1  0.4870290000000  0.4937980000000  0.5210300000000 1.0
C      1  0.4884740000000  0.5534670000000  0.4863430000000 1.0
C      1  0.4958340000000  0.5196300000000  0.4323130000000 1.0
C      1  0.4412580000000  0.4853670000000  0.5001550000000 1.0
C      1  0.5515690000000  0.4848110000000  0.4992500000000 1.0
C      1  0.5047500000000  0.4770620000000  0.5394630000000 1.0
C      1  0.5301870000000  0.4689440000000  0.5413140000000 1.0
END
