TITL C-3201376-6384-406 0.000717958626965471 125000 -383.453016308439 0 0 64 (Ci) n - 1
REM
REM in /home/nfs/bkarasulu/CARBON/AIRSS/Generating-Clusters/LCBOP/Higher-Symm/SD-CG/FIRE-CG
REM
REM
REM
REM
REM
REM ./C.cell (b20cbc046b6831c77cfcea5457e17084)
REM AIRSS Version 0.9.1 bugfix July 2018 build 013d7b7c2542+ Fri, 06 Jul 2018 19:26:36 +0100
REM compiler GCC version 9.2.1 20190827 (Red Hat 9.2.1-1)
REM options -cpp -mtune=generic -march=x86-64 -g -O0 -fpre-include=/usr/include/finclude/math-vector-fortran.h
REM seed -269354663 -1897436318 1613085643 991358253 -18327226 -1707953529 1419255820 -1479503745 -1775148924 -682843798 -1260049327 -840110980 125697431 774283589 -661588609 -93076030 -537197365 558377952 -1341375050 283583554 -2058556595 1438501492 911833090 1810762146 -1860874232 -593571128 1415276698 -2018651514 -1117789870 -1451568751 1173948439 1836361101 -1071792665
REM
CELL 1.54180   50.00000   50.00000   50.00000   90.00000   90.00000   90.00000
LATT -1
SFAC C  
C      1  0.4545810000000  0.4747500000000  0.5836910000000 1.0
C      1  0.5454190000000  0.5252490000000  0.4163080000000 1.0
C      1  0.5636480000000  0.4812940000000  0.5816340000000 1.0
C      1  0.4363510000000  0.5187050000000  0.4183670000000 1.0
C      1  0.4989200000000  0.5842930000000  0.4482240000000 1.0
C      1  0.5010800000000  0.4157070000000  0.5517750000000 1.0
C      1  0.5316540000000  0.4161790000000  0.4608470000000 1.0
C      1  0.4683470000000  0.5838210000000  0.5391530000000 1.0
C      1  0.5132210000000  0.4388720000000  0.5563560000000 1.0
C      1  0.4867790000000  0.5611280000000  0.4436440000000 1.0
C      1  0.5838320000000  0.5044640000000  0.5438490000000 1.0
C      1  0.4161680000000  0.4955360000000  0.4561520000000 1.0
C      1  0.5150720000000  0.5250390000000  0.5217420000000 1.0
C      1  0.4849280000000  0.4749610000000  0.4782590000000 1.0
C      1  0.5212000000000  0.5030030000000  0.5715640000000 1.0
C      1  0.4788000000000  0.4969970000000  0.4284370000000 1.0
C      1  0.5604420000000  0.4352720000000  0.5210530000000 1.0
C      1  0.4395580000000  0.5647280000000  0.4789470000000 1.0
C      1  0.4386050000000  0.4932390000000  0.4735300000000 1.0
C      1  0.5613950000000  0.5067610000000  0.5264700000000 1.0
C      1  0.5212630000000  0.3935590000000  0.4701710000000 1.0
C      1  0.4787380000000  0.6064410000000  0.5298280000000 1.0
C      1  0.4633180000000  0.4744960000000  0.4372360000000 1.0
C      1  0.5366820000000  0.5255040000000  0.5627650000000 1.0
C      1  0.4173280000000  0.4424540000000  0.6019420000000 1.0
C      1  0.5826710000000  0.5575460000000  0.3980560000000 1.0
C      1  0.4993750000000  0.3805160000000  0.5144640000000 1.0
C      1  0.5006250000000  0.6194840000000  0.4855350000000 1.0
C      1  0.4680130000000  0.5408100000000  0.4476540000000 1.0
C      1  0.5319870000000  0.4591890000000  0.5523460000000 1.0
C      1  0.4193450000000  0.6123730000000  0.4880050000000 1.0
C      1  0.5806550000000  0.3876280000000  0.5119950000000 1.0
C      1  0.4632270000000  0.5211340000000  0.4274420000000 1.0
C      1  0.5367730000000  0.4788650000000  0.5725580000000 1.0
C      1  0.4357880000000  0.4585430000000  0.5929980000000 1.0
C      1  0.5642110000000  0.5414570000000  0.4070010000000 1.0
C      1  0.4520190000000  0.5407020000000  0.4716140000000 1.0
C      1  0.5479810000000  0.4592980000000  0.5283860000000 1.0
C      1  0.4287540000000  0.5885060000000  0.4833790000000 1.0
C      1  0.5712460000000  0.4114940000000  0.5166210000000 1.0
C      1  0.4255950000000  0.5060250000000  0.5293660000000 1.0
C      1  0.5744050000000  0.4939760000000  0.4706350000000 1.0
C      1  0.5037770000000  0.6059610000000  0.4628400000000 1.0
C      1  0.4962220000000  0.3940390000000  0.5371590000000 1.0
C      1  0.4464110000000  0.5172060000000  0.4872180000000 1.0
C      1  0.5535900000000  0.4827950000000  0.5127830000000 1.0
C      1  0.4156860000000  0.5072940000000  0.4317190000000 1.0
C      1  0.5843130000000  0.4927050000000  0.5682820000000 1.0
C      1  0.5090090000000  0.3802230000000  0.4896580000000 1.0
C      1  0.4909920000000  0.6197780000000  0.5103410000000 1.0
C      1  0.4911540000000  0.5183530000000  0.5361250000000 1.0
C      1  0.5088460000000  0.4816470000000  0.4638760000000 1.0
C      1  0.4593170000000  0.4750780000000  0.4657170000000 1.0
C      1  0.5406830000000  0.5249220000000  0.5342840000000 1.0
C      1  0.4667120000000  0.5311960000000  0.5299290000000 1.0
C      1  0.5332880000000  0.4688050000000  0.4700710000000 1.0
C      1  0.5366830000000  0.4422270000000  0.4619060000000 1.0
C      1  0.4633180000000  0.5577740000000  0.5380940000000 1.0
C      1  0.5538340000000  0.4821630000000  0.4843660000000 1.0
C      1  0.4461660000000  0.5178380000000  0.5156340000000 1.0
C      1  0.4944920000000  0.5034030000000  0.5608070000000 1.0
C      1  0.5055080000000  0.4965970000000  0.4391940000000 1.0
C      1  0.5265460000000  0.5099110000000  0.4267950000000 1.0
C      1  0.4734540000000  0.4900890000000  0.5732050000000 1.0
END
