TITL C-3201373-1215-670 7.00190042714535e-06 125000 -318.221416668514 0 0 53 (C1) n - 1
REM
REM in /home/nfs/bkarasulu/CARBON/AIRSS/Generating-Clusters/LCBOP/Higher-Symm/SD-CG/FIRE-CG
REM
REM
REM
REM
REM
REM ./C.cell (b20cbc046b6831c77cfcea5457e17084)
REM AIRSS Version 0.9.1 bugfix July 2018 build 013d7b7c2542+ Fri, 06 Jul 2018 19:26:36 +0100
REM compiler GCC version 9.2.1 20190827 (Red Hat 9.2.1-1)
REM options -cpp -mtune=generic -march=x86-64 -g -O0 -fpre-include=/usr/include/finclude/math-vector-fortran.h
REM seed 896203976 -718452416 -1167593469 -2125145359 -1614132763 236273597 -122044100 1491713690 -1362894014 794938690 -992646938 689844379 1746629268 -48162411 -2008431300 -1619308059 -367335794 1237137948 724437421 917929241 -798023392 -1942537989 -1219557065 754767840 867040853 805458140 1836959032 -217534216 1499516702 1310077331 -748556058 1951625538 808157831
REM
CELL 1.54180   50.00000   50.00000   50.00000   90.00000   90.00000   90.00000
LATT -1
SFAC C  
C      1  0.5216850000000  0.5172830000000  0.4550150000000 1.0
C      1  0.4967510000000  0.5048340000000  0.4459160000000 1.0
C      1  0.5182030000000  0.4714520000000  0.4893650000000 1.0
C      1  0.4899030000000  0.4737560000000  0.4857590000000 1.0
C      1  0.5163130000000  0.4888770000000  0.5351480000000 1.0
C      1  0.4864560000000  0.4869320000000  0.5294790000000 1.0
C      1  0.5176200000000  0.5147420000000  0.5489130000000 1.0
C      1  0.4939850000000  0.5321860000000  0.5476670000000 1.0
C      1  0.5205100000000  0.5211030000000  0.4973010000000 1.0
C      1  0.4840740000000  0.5502960000000  0.4855810000000 1.0
C      1  0.4886670000000  0.4142860000000  0.4789960000000 1.0
C      1  0.5101510000000  0.4381620000000  0.5673520000000 1.0
C      1  0.4834120000000  0.4403890000000  0.5666370000000 1.0
C      1  0.5066680000000  0.5599630000000  0.5495570000000 1.0
C      1  0.4839120000000  0.5772950000000  0.5466760000000 1.0
C      1  0.5049840000000  0.5691940000000  0.4817290000000 1.0
C      1  0.4289690000000  0.5943540000000  0.4643710000000 1.0
C      1  0.5081840000000  0.4807370000000  0.4304420000000 1.0
C      1  0.4844280000000  0.4683240000000  0.4200000000000 1.0
C      1  0.5154660000000  0.4129330000000  0.4800850000000 1.0
C      1  0.5632430000000  0.5134730000000  0.5272220000000 1.0
C      1  0.4461960000000  0.5190920000000  0.5193440000000 1.0
C      1  0.5645230000000  0.5225480000000  0.4982680000000 1.0
C      1  0.4440430000000  0.5269000000000  0.4902530000000 1.0
C      1  0.5640050000000  0.4985530000000  0.4795390000000 1.0
C      1  0.4475410000000  0.5033180000000  0.4726190000000 1.0
C      1  0.5631820000000  0.4736640000000  0.4970900000000 1.0
C      1  0.4445350000000  0.4788860000000  0.4905000000000 1.0
C      1  0.5621010000000  0.4826020000000  0.5265870000000 1.0
C      1  0.4428450000000  0.4887630000000  0.5196030000000 1.0
C      1  0.4611940000000  0.4800490000000  0.4296160000000 1.0
C      1  0.5375140000000  0.4279730000000  0.4836150000000 1.0
C      1  0.4679160000000  0.4313490000000  0.4804990000000 1.0
C      1  0.5330970000000  0.4492060000000  0.5586970000000 1.0
C      1  0.4632050000000  0.4547170000000  0.5561340000000 1.0
C      1  0.5354160000000  0.5564330000000  0.5481240000000 1.0
C      1  0.4604690000000  0.5635560000000  0.5409460000000 1.0
C      1  0.5318260000000  0.5648740000000  0.4851080000000 1.0
C      1  0.4419680000000  0.5734490000000  0.4729230000000 1.0
C      1  0.5365290000000  0.4787440000000  0.4368620000000 1.0
C      1  0.5458140000000  0.4995390000000  0.4556470000000 1.0
C      1  0.4663260000000  0.5009600000000  0.4496950000000 1.0
C      1  0.5418940000000  0.4550750000000  0.4885710000000 1.0
C      1  0.4651590000000  0.4588660000000  0.4842070000000 1.0
C      1  0.5399230000000  0.4714040000000  0.5430620000000 1.0
C      1  0.4614910000000  0.4759910000000  0.5382260000000 1.0
C      1  0.5438450000000  0.5285780000000  0.5446730000000 1.0
C      1  0.4645260000000  0.5345440000000  0.5376310000000 1.0
C      1  0.5418040000000  0.5397390000000  0.4929870000000 1.0
C      1  0.4560580000000  0.5515630000000  0.4823580000000 1.0
C      1  0.4827760000000  0.4982400000000  0.5018310000000 1.0
C      1  0.5254660000000  0.4945380000000  0.5061450000000 1.0
C      1  0.4928700000000  0.5246290000000  0.4947010000000 1.0
END
