TITL C-3201376-6384-279 -7.10376034737941e-08 125000 -25.0790098697788 0 0 5 (D(inf)h) n - 1
REM
REM in /home/nfs/bkarasulu/CARBON/AIRSS/Generating-Clusters/LCBOP/Higher-Symm/SD-CG/FIRE-CG
REM
REM
REM
REM
REM
REM ./C.cell (b20cbc046b6831c77cfcea5457e17084)
REM AIRSS Version 0.9.1 bugfix July 2018 build 013d7b7c2542+ Fri, 06 Jul 2018 19:26:36 +0100
REM compiler GCC version 9.2.1 20190827 (Red Hat 9.2.1-1)
REM options -cpp -mtune=generic -march=x86-64 -g -O0 -fpre-include=/usr/include/finclude/math-vector-fortran.h
REM seed -1293160092 2105479138 457583044 408750721 -1555659388 934143303 -2104009915 1352207508 -969507033 1502708100 1920644516 -1030162882 -995880875 -1357221214 -963296720 -164155857 1086132270 531135490 372674889 1297989563 1195615508 1327909169 -657133535 1913909792 1723870605 -1553585227 1008589403 2106314668 -564287222 -2037313276 -1958790846 1227505830 1364829838
REM
CELL 1.54180   50.00000   50.00000   50.00000   90.00000   90.00000   90.00000
LATT -1
SFAC C  
C      1  0.4474230000000  0.4995030000000  0.5028220000000 1.0
C      1  0.4734930000000  0.4995030000000  0.5028220000000 1.0
C      1  0.5265070000000  0.4995030000000  0.5028220000000 1.0
C      1  0.5000000000000  0.4995030000000  0.5028220000000 1.0
C      1  0.5525770000000  0.4995030000000  0.5028220000000 1.0
END
