TITL C-3201375-1262-948 5195.48253719322 125000 -1165.33296626234 0 0 198 (C1) n - 1
REM
REM in /home/nfs/bkarasulu/CARBON/AIRSS/Generating-Clusters/LCBOP/Higher-Symm/SD-CG/FIRE-CG
REM
REM
REM
REM
REM
REM ./C.cell (b20cbc046b6831c77cfcea5457e17084)
REM AIRSS Version 0.9.1 bugfix July 2018 build 013d7b7c2542+ Fri, 06 Jul 2018 19:26:36 +0100
REM compiler GCC version 9.2.1 20190827 (Red Hat 9.2.1-1)
REM options -cpp -mtune=generic -march=x86-64 -g -O0 -fpre-include=/usr/include/finclude/math-vector-fortran.h
REM seed 29761821 887882132 576038580 75588922 -694436187 1435900905 -1013953271 1816887329 -1281607235 -998447494 -1331053484 -862753572 -727267681 -1249206317 1320741108 743218032 -1444607340 1984285165 -939990421 2050919804 1952542855 -2131775823 -1007310504 -739441088 -1038283476 -1207497321 1764773407 -1746463487 -1875038862 -245712426 -1794181080 -1367452444 113261857
REM
CELL 1.54180   50.00000   50.00000   50.00000   90.00000   90.00000   90.00000
LATT -1
SFAC C  
C      1  0.5269700000000  0.5141070000000  0.5440970000000 1.0
C      1  0.5147800000000  0.5445810000000  0.5272570000000 1.0
C      1  0.5441030000000  0.5276140000000  0.5144840000000 1.0
C      1  0.4726250000000  0.5141480000000  0.4549350000000 1.0
C      1  0.4735390000000  0.4863770000000  0.5438330000000 1.0
C      1  0.5265630000000  0.4859730000000  0.4555610000000 1.0
C      1  0.4847980000000  0.5444820000000  0.4717070000000 1.0
C      1  0.4860670000000  0.4558810000000  0.5267390000000 1.0
C      1  0.5140130000000  0.4562670000000  0.4731390000000 1.0
C      1  0.4556410000000  0.5279920000000  0.4849630000000 1.0
C      1  0.4560130000000  0.4727060000000  0.5146120000000 1.0
C      1  0.5441470000000  0.4727010000000  0.4852580000000 1.0
C      1  0.5279790000000  0.4851230000000  0.5440270000000 1.0
C      1  0.5146600000000  0.4557770000000  0.5272790000000 1.0
C      1  0.5445390000000  0.4733580000000  0.5137220000000 1.0
C      1  0.4722650000000  0.4855740000000  0.4552250000000 1.0
C      1  0.4727700000000  0.5148890000000  0.5436930000000 1.0
C      1  0.5270970000000  0.5146650000000  0.4557790000000 1.0
C      1  0.4850230000000  0.4561700000000  0.4723630000000 1.0
C      1  0.4863570000000  0.5444450000000  0.5263630000000 1.0
C      1  0.5136830000000  0.5441690000000  0.4727300000000 1.0
C      1  0.4556090000000  0.4733470000000  0.4860460000000 1.0
C      1  0.4560350000000  0.5271540000000  0.5139560000000 1.0
C      1  0.5439180000000  0.5268780000000  0.4856340000000 1.0
C      1  0.5711730000000  0.4751220000000  0.4755340000000 1.0
C      1  0.4772440000000  0.4775450000000  0.5725040000000 1.0
C      1  0.4757500000000  0.5731480000000  0.4756200000000 1.0
C      1  0.4288750000000  0.4751290000000  0.5242820000000 1.0
C      1  0.4271750000000  0.5241530000000  0.4757570000000 1.0
C      1  0.5725310000000  0.5240160000000  0.5239130000000 1.0
C      1  0.5227710000000  0.4768210000000  0.4276140000000 1.0
C      1  0.5220250000000  0.5226070000000  0.5729530000000 1.0
C      1  0.4765700000000  0.5232430000000  0.4264190000000 1.0
C      1  0.5241740000000  0.5717650000000  0.5248500000000 1.0
C      1  0.5223750000000  0.4271680000000  0.4777200000000 1.0
C      1  0.4773980000000  0.4270540000000  0.5227760000000 1.0
C      1  0.5727740000000  0.5222770000000  0.4771820000000 1.0
C      1  0.4749080000000  0.5244380000000  0.5708270000000 1.0
C      1  0.4757460000000  0.4276320000000  0.4759330000000 1.0
C      1  0.4269620000000  0.5222800000000  0.5224000000000 1.0
C      1  0.4268790000000  0.4772840000000  0.4773940000000 1.0
C      1  0.5732190000000  0.4772140000000  0.5224150000000 1.0
C      1  0.5236710000000  0.5240790000000  0.4271860000000 1.0
C      1  0.5240860000000  0.4760000000000  0.5727100000000 1.0
C      1  0.4754190000000  0.4761510000000  0.4277960000000 1.0
C      1  0.5242860000000  0.4287800000000  0.5248370000000 1.0
C      1  0.5224640000000  0.5728580000000  0.4776000000000 1.0
C      1  0.4773100000000  0.5729600000000  0.5224990000000 1.0
C      1  0.4215020000000  0.4464030000000  0.4195560000000 1.0
C      1  0.4457170000000  0.4198140000000  0.4216860000000 1.0
C      1  0.4185150000000  0.4229580000000  0.4464890000000 1.0
C      1  0.5781050000000  0.4461120000000  0.5801920000000 1.0
C      1  0.5782520000000  0.5533250000000  0.4202860000000 1.0
C      1  0.4211480000000  0.5532150000000  0.5796700000000 1.0
C      1  0.5538700000000  0.4192850000000  0.5781140000000 1.0
C      1  0.5536920000000  0.5808550000000  0.4228160000000 1.0
C      1  0.4458520000000  0.5807510000000  0.5769050000000 1.0
C      1  0.5811340000000  0.4226700000000  0.5534430000000 1.0
C      1  0.5798920000000  0.5775790000000  0.4468630000000 1.0
C      1  0.4192510000000  0.5773830000000  0.5532140000000 1.0
C      1  0.4223190000000  0.5537170000000  0.4185170000000 1.0
C      1  0.4458870000000  0.5805400000000  0.4216100000000 1.0
C      1  0.4191420000000  0.5783390000000  0.4457700000000 1.0
C      1  0.5768150000000  0.5538330000000  0.5808150000000 1.0
C      1  0.5770930000000  0.4459920000000  0.4192550000000 1.0
C      1  0.4229800000000  0.4462950000000  0.5808990000000 1.0
C      1  0.5526870000000  0.5801610000000  0.5789320000000 1.0
C      1  0.5529750000000  0.4197340000000  0.4225280000000 1.0
C      1  0.4465610000000  0.4194720000000  0.5772880000000 1.0
C      1  0.5801820000000  0.5779320000000  0.5542510000000 1.0
C      1  0.5795710000000  0.4212010000000  0.4466510000000 1.0
C      1  0.4196120000000  0.4215260000000  0.5536380000000 1.0
C      1  0.4528410000000  0.5154450000000  0.4077530000000 1.0
C      1  0.5149340000000  0.4087030000000  0.4531110000000 1.0
C      1  0.4091360000000  0.4532490000000  0.5161250000000 1.0
C      1  0.5465130000000  0.5153820000000  0.5916750000000 1.0
C      1  0.5465740000000  0.4843380000000  0.4085480000000 1.0
C      1  0.4534180000000  0.4848670000000  0.5912250000000 1.0
C      1  0.4848530000000  0.4085200000000  0.5466520000000 1.0
C      1  0.4838350000000  0.5920670000000  0.4521970000000 1.0
C      1  0.5155940000000  0.5909660000000  0.5469810000000 1.0
C      1  0.5906180000000  0.4530240000000  0.4838290000000 1.0
C      1  0.5915530000000  0.5475050000000  0.5161290000000 1.0
C      1  0.4080200000000  0.5475240000000  0.4836760000000 1.0
C      1  0.4527230000000  0.4841230000000  0.4085160000000 1.0
C      1  0.5153130000000  0.5918190000000  0.4532220000000 1.0
C      1  0.4083250000000  0.5467920000000  0.5150880000000 1.0
C      1  0.5475280000000  0.4839750000000  0.5916660000000 1.0
C      1  0.5472800000000  0.5157780000000  0.4085140000000 1.0
C      1  0.4529550000000  0.5160100000000  0.5903270000000 1.0
C      1  0.4844110000000  0.5916310000000  0.5464430000000 1.0
C      1  0.4835390000000  0.4085510000000  0.4524850000000 1.0
C      1  0.5160590000000  0.4089830000000  0.5466860000000 1.0
C      1  0.5912240000000  0.5468980000000  0.4846890000000 1.0
C      1  0.5916590000000  0.4532710000000  0.5150060000000 1.0
C      1  0.4082340000000  0.4534750000000  0.4849500000000 1.0
C      1  0.5376660000000  0.5266500000000  0.3819090000000 1.0
C      1  0.5270180000000  0.3827140000000  0.5366300000000 1.0
C      1  0.3818130000000  0.5373150000000  0.5262240000000 1.0
C      1  0.4625080000000  0.5273000000000  0.6166740000000 1.0
C      1  0.4624050000000  0.4728790000000  0.3822010000000 1.0
C      1  0.5378230000000  0.4730280000000  0.6181470000000 1.0
C      1  0.4727140000000  0.3820970000000  0.4624100000000 1.0
C      1  0.4738100000000  0.6181670000000  0.5365770000000 1.0
C      1  0.5263240000000  0.6182380000000  0.4631560000000 1.0
C      1  0.6177860000000  0.5374240000000  0.4735570000000 1.0
C      1  0.6183120000000  0.4629820000000  0.5254300000000 1.0
C      1  0.3816150000000  0.4631810000000  0.4744520000000 1.0
C      1  0.5367220000000  0.4734570000000  0.3821120000000 1.0
C      1  0.5267820000000  0.6173940000000  0.5375250000000 1.0
C      1  0.3828880000000  0.4630830000000  0.5273770000000 1.0
C      1  0.4632830000000  0.4743780000000  0.6178000000000 1.0
C      1  0.4628650000000  0.5259110000000  0.3811650000000 1.0
C      1  0.5367710000000  0.5262810000000  0.6181910000000 1.0
C      1  0.4730190000000  0.6185840000000  0.4619550000000 1.0
C      1  0.4740890000000  0.3819490000000  0.5370130000000 1.0
C      1  0.5259890000000  0.3820980000000  0.4623960000000 1.0
C      1  0.6168940000000  0.4629010000000  0.4725060000000 1.0
C      1  0.6180520000000  0.5375950000000  0.5268400000000 1.0
C      1  0.3815530000000  0.5376390000000  0.4729270000000 1.0
C      1  0.3694540000000  0.5137820000000  0.4687320000000 1.0
C      1  0.5130500000000  0.4685210000000  0.3700020000000 1.0
C      1  0.4690440000000  0.3699430000000  0.5132540000000 1.0
C      1  0.6301620000000  0.5137270000000  0.5310320000000 1.0
C      1  0.6291840000000  0.4866210000000  0.4681260000000 1.0
C      1  0.3703930000000  0.4866490000000  0.5318060000000 1.0
C      1  0.4869430000000  0.4693450000000  0.6299640000000 1.0
C      1  0.4868480000000  0.5307020000000  0.3694570000000 1.0
C      1  0.5129310000000  0.5313380000000  0.6299430000000 1.0
C      1  0.5310610000000  0.3700250000000  0.4860700000000 1.0
C      1  0.5313880000000  0.6297760000000  0.5139120000000 1.0
C      1  0.4686110000000  0.6304970000000  0.4858910000000 1.0
C      1  0.3694820000000  0.4868350000000  0.4693520000000 1.0
C      1  0.5138330000000  0.5310260000000  0.3697380000000 1.0
C      1  0.4689430000000  0.6302970000000  0.5128560000000 1.0
C      1  0.6302750000000  0.4867640000000  0.5304580000000 1.0
C      1  0.6295970000000  0.5135730000000  0.4685290000000 1.0
C      1  0.3699020000000  0.5135730000000  0.5313600000000 1.0
C      1  0.4860060000000  0.5317560000000  0.6293010000000 1.0
C      1  0.4861180000000  0.4682680000000  0.3700270000000 1.0
C      1  0.5139010000000  0.4687780000000  0.6301420000000 1.0
C      1  0.5312060000000  0.6300960000000  0.4869760000000 1.0
C      1  0.5314390000000  0.3703540000000  0.5129960000000 1.0
C      1  0.4685010000000  0.3700090000000  0.4862890000000 1.0
C      1  0.4231450000000  0.5134940000000  0.5509700000000 1.0
C      1  0.5142230000000  0.5524370000000  0.4235150000000 1.0
C      1  0.5517240000000  0.4242510000000  0.5147160000000 1.0
C      1  0.5764530000000  0.5134840000000  0.4486380000000 1.0
C      1  0.5766180000000  0.4857820000000  0.5516340000000 1.0
C      1  0.4232430000000  0.4858860000000  0.4482270000000 1.0
C      1  0.4848850000000  0.5518320000000  0.5755270000000 1.0
C      1  0.4852160000000  0.4483920000000  0.4235490000000 1.0
C      1  0.5144480000000  0.4478040000000  0.5766980000000 1.0
C      1  0.4475730000000  0.4238530000000  0.4855480000000 1.0
C      1  0.4481960000000  0.5761780000000  0.5138890000000 1.0
C      1  0.5510510000000  0.5762270000000  0.4864510000000 1.0
C      1  0.4242520000000  0.4852070000000  0.5516510000000 1.0
C      1  0.5135260000000  0.4486450000000  0.4238470000000 1.0
C      1  0.5516430000000  0.5763790000000  0.5147880000000 1.0
C      1  0.5757650000000  0.4851750000000  0.4481160000000 1.0
C      1  0.5760900000000  0.5144540000000  0.5521620000000 1.0
C      1  0.4234510000000  0.5145610000000  0.4474930000000 1.0
C      1  0.4858090000000  0.4484180000000  0.5759860000000 1.0
C      1  0.4855540000000  0.5521600000000  0.4229930000000 1.0
C      1  0.5131870000000  0.5512370000000  0.5766460000000 1.0
C      1  0.4475140000000  0.5768650000000  0.4852560000000 1.0
C      1  0.4482750000000  0.4233640000000  0.5141840000000 1.0
C      1  0.5510020000000  0.4232930000000  0.4864010000000 1.0
C      1  0.4302120000000  0.4721690000000  0.5764020000000 1.0
C      1  0.4719640000000  0.5767860000000  0.4286890000000 1.0
C      1  0.5756560000000  0.4287440000000  0.4725310000000 1.0
C      1  0.5699250000000  0.4719300000000  0.4234620000000 1.0
C      1  0.5696810000000  0.5278850000000  0.5765550000000 1.0
C      1  0.4294770000000  0.5277800000000  0.4228110000000 1.0
C      1  0.5268840000000  0.5760030000000  0.5712690000000 1.0
C      1  0.5271590000000  0.4241900000000  0.4299770000000 1.0
C      1  0.4724100000000  0.4238100000000  0.5698680000000 1.0
C      1  0.4236100000000  0.4289670000000  0.5277550000000 1.0
C      1  0.4229490000000  0.5711110000000  0.4717770000000 1.0
C      1  0.5763990000000  0.5709280000000  0.5281600000000 1.0
C      1  0.4286190000000  0.5273300000000  0.5756020000000 1.0
C      1  0.4716850000000  0.4237070000000  0.4290060000000 1.0
C      1  0.5754810000000  0.5700580000000  0.4726590000000 1.0
C      1  0.5707960000000  0.5273950000000  0.4241100000000 1.0
C      1  0.5709940000000  0.4721530000000  0.5762830000000 1.0
C      1  0.4288540000000  0.4723360000000  0.4235340000000 1.0
C      1  0.5278410000000  0.4231440000000  0.5709790000000 1.0
C      1  0.5277570000000  0.5767410000000  0.4299710000000 1.0
C      1  0.4717620000000  0.5765640000000  0.5696030000000 1.0
C      1  0.4237560000000  0.5699110000000  0.5274360000000 1.0
C      1  0.4230060000000  0.4301430000000  0.4723780000000 1.0
C      1  0.5766070000000  0.4300880000000  0.5276290000000 1.0
C      1  0.5005090000000  0.5028870000000  0.4188180000000 1.0
C      1  0.5017330000000  0.4975560000000  0.5802130000000 1.0
C      1  0.4973250000000  0.4197280000000  0.4980840000000 1.0
C      1  0.4195800000000  0.5018970000000  0.4973520000000 1.0
C      1  0.4973060000000  0.5806230000000  0.4980100000000 1.0
C      1  0.5804870000000  0.5017910000000  0.5024300000000 1.0
END
