TITL C-3201375-1262-632 0.792515885171388 125000 -637.646300367838 0 0 112 (T23) n - 1
REM
REM in /home/nfs/bkarasulu/CARBON/AIRSS/Generating-Clusters/LCBOP/Higher-Symm/SD-CG/FIRE-CG
REM
REM
REM
REM
REM
REM ./C.cell (b20cbc046b6831c77cfcea5457e17084)
REM AIRSS Version 0.9.1 bugfix July 2018 build 013d7b7c2542+ Fri, 06 Jul 2018 19:26:36 +0100
REM compiler GCC version 9.2.1 20190827 (Red Hat 9.2.1-1)
REM options -cpp -mtune=generic -march=x86-64 -g -O0 -fpre-include=/usr/include/finclude/math-vector-fortran.h
REM seed -558113798 977675951 1648056387 1218101240 1239030966 1995161714 1230661980 -1584666565 -1435482017 -1087708543 1849318178 327400290 416814372 -525979480 -1092509996 -708394391 -1249944865 216941678 1407231883 1226462314 389000889 1156637090 -1344060408 1581076297 1600970965 1139935373 -1312229743 2056603121 -580750213 -1054627742 811348000 -1566012672 -615895241
REM
CELL 1.54180   50.00000   50.00000   50.00000   90.00000   90.00000   90.00000
LATT -1
SFAC C  
C      1  0.5726130000000  0.5525570000000  0.5283440000000 1.0
C      1  0.5280500000000  0.5732040000000  0.5522570000000 1.0
C      1  0.5519650000000  0.5286430000000  0.5729050000000 1.0
C      1  0.5726170000000  0.4468680000000  0.4704850000000 1.0
C      1  0.4256320000000  0.4468660000000  0.5283400000000 1.0
C      1  0.4256310000000  0.5525540000000  0.4704800000000 1.0
C      1  0.5280560000000  0.4262200000000  0.4465690000000 1.0
C      1  0.4701930000000  0.4262190000000  0.5522560000000 1.0
C      1  0.4701940000000  0.5732020000000  0.4465660000000 1.0
C      1  0.5519700000000  0.4707820000000  0.4259220000000 1.0
C      1  0.4462770000000  0.4707810000000  0.5729030000000 1.0
C      1  0.4462810000000  0.5286390000000  0.4259190000000 1.0
C      1  0.4481940000000  0.5418750000000  0.5131210000000 1.0
C      1  0.5128340000000  0.4487840000000  0.5415780000000 1.0
C      1  0.5412900000000  0.5134230000000  0.4484850000000 1.0
C      1  0.4481970000000  0.4575450000000  0.4857000000000 1.0
C      1  0.5500520000000  0.4575470000000  0.5131250000000 1.0
C      1  0.5500510000000  0.5418770000000  0.4857020000000 1.0
C      1  0.5128350000000  0.5506390000000  0.4572470000000 1.0
C      1  0.4854100000000  0.5506390000000  0.5415760000000 1.0
C      1  0.4854140000000  0.4487820000000  0.4572470000000 1.0
C      1  0.5412870000000  0.4860010000000  0.5503420000000 1.0
C      1  0.4569600000000  0.4859990000000  0.4484830000000 1.0
C      1  0.4569560000000  0.5134220000000  0.5503390000000 1.0
C      1  0.5663370000000  0.4319170000000  0.5171830000000 1.0
C      1  0.5168920000000  0.5669230000000  0.4316160000000 1.0
C      1  0.4313250000000  0.5174790000000  0.5666220000000 1.0
C      1  0.5663350000000  0.5675080000000  0.4816450000000 1.0
C      1  0.4319090000000  0.5675060000000  0.5171780000000 1.0
C      1  0.4319130000000  0.4319140000000  0.4816420000000 1.0
C      1  0.5168910000000  0.4325000000000  0.5672090000000 1.0
C      1  0.4813580000000  0.4324980000000  0.4316160000000 1.0
C      1  0.4813520000000  0.5669240000000  0.5672070000000 1.0
C      1  0.4313300000000  0.4819410000000  0.4321980000000 1.0
C      1  0.5669170000000  0.4819450000000  0.5666270000000 1.0
C      1  0.5669210000000  0.5174800000000  0.4322020000000 1.0
C      1  0.5892250000000  0.4712450000000  0.5491650000000 1.0
C      1  0.5488730000000  0.5898150000000  0.4709440000000 1.0
C      1  0.4706510000000  0.5494620000000  0.5895130000000 1.0
C      1  0.5892270000000  0.5281810000000  0.4496640000000 1.0
C      1  0.4090190000000  0.5281790000000  0.5491600000000 1.0
C      1  0.4090230000000  0.4712400000000  0.4496590000000 1.0
C      1  0.5488750000000  0.4096100000000  0.5278830000000 1.0
C      1  0.4493760000000  0.4096070000000  0.4709430000000 1.0
C      1  0.4493700000000  0.5898130000000  0.5278790000000 1.0
C      1  0.4706580000000  0.4499590000000  0.4093090000000 1.0
C      1  0.5275900000000  0.4499620000000  0.5895160000000 1.0
C      1  0.5275940000000  0.5494610000000  0.4093100000000 1.0
C      1  0.4659620000000  0.5532320000000  0.4930360000000 1.0
C      1  0.4927480000000  0.4665520000000  0.5529340000000 1.0
C      1  0.5526460000000  0.4933380000000  0.4662540000000 1.0
C      1  0.4659640000000  0.4461890000000  0.5057860000000 1.0
C      1  0.5322850000000  0.4461900000000  0.4930390000000 1.0
C      1  0.5322820000000  0.5532330000000  0.5057870000000 1.0
C      1  0.4927500000000  0.5328710000000  0.4458900000000 1.0
C      1  0.5054950000000  0.5328720000000  0.5529340000000 1.0
C      1  0.5055000000000  0.4665510000000  0.4458910000000 1.0
C      1  0.5526440000000  0.5060870000000  0.5325740000000 1.0
C      1  0.4456030000000  0.5060840000000  0.4662500000000 1.0
C      1  0.4456010000000  0.4933360000000  0.5325710000000 1.0
C      1  0.4916860000000  0.5104940000000  0.5599850000000 1.0
C      1  0.5596970000000  0.4922770000000  0.5101970000000 1.0
C      1  0.5099050000000  0.5602850000000  0.4919770000000 1.0
C      1  0.4916900000000  0.4889280000000  0.4388380000000 1.0
C      1  0.5065570000000  0.4889290000000  0.5599860000000 1.0
C      1  0.5065600000000  0.5104930000000  0.4388390000000 1.0
C      1  0.5596970000000  0.5071470000000  0.4886310000000 1.0
C      1  0.4385490000000  0.5071450000000  0.5101930000000 1.0
C      1  0.4385500000000  0.4922750000000  0.4886280000000 1.0
C      1  0.5099070000000  0.4391380000000  0.5068480000000 1.0
C      1  0.4883420000000  0.4391370000000  0.4919770000000 1.0
C      1  0.4883390000000  0.5602850000000  0.5068460000000 1.0
C      1  0.4955740000000  0.5899830000000  0.5573240000000 1.0
C      1  0.5570330000000  0.4961680000000  0.5896860000000 1.0
C      1  0.5893940000000  0.5576250000000  0.4958690000000 1.0
C      1  0.4955820000000  0.4094390000000  0.4415000000000 1.0
C      1  0.5026690000000  0.4094400000000  0.5573250000000 1.0
C      1  0.5026690000000  0.5899820000000  0.4414990000000 1.0
C      1  0.5570380000000  0.5032570000000  0.4091420000000 1.0
C      1  0.4412080000000  0.5032560000000  0.5896820000000 1.0
C      1  0.4412140000000  0.4961640000000  0.4091390000000 1.0
C      1  0.5893960000000  0.4418010000000  0.5029610000000 1.0
C      1  0.4088530000000  0.4417970000000  0.4958650000000 1.0
C      1  0.4088500000000  0.5576220000000  0.5029540000000 1.0
C      1  0.5279830000000  0.4537350000000  0.4324570000000 1.0
C      1  0.4321680000000  0.5285660000000  0.4534340000000 1.0
C      1  0.4531480000000  0.4327540000000  0.5282680000000 1.0
C      1  0.5279770000000  0.5456880000000  0.5663690000000 1.0
C      1  0.4702680000000  0.5456860000000  0.4324540000000 1.0
C      1  0.4702650000000  0.4537350000000  0.5663680000000 1.0
C      1  0.4321660000000  0.4708530000000  0.5453870000000 1.0
C      1  0.5660820000000  0.4708550000000  0.4534380000000 1.0
C      1  0.5660780000000  0.5285700000000  0.5453900000000 1.0
C      1  0.4531470000000  0.5666670000000  0.4705530000000 1.0
C      1  0.5450970000000  0.5666690000000  0.5282700000000 1.0
C      1  0.5451020000000  0.4327550000000  0.4705570000000 1.0
C      1  0.4740970000000  0.3991160000000  0.4604700000000 1.0
C      1  0.4601850000000  0.4746800000000  0.3988170000000 1.0
C      1  0.3985300000000  0.4607670000000  0.4743800000000 1.0
C      1  0.4740910000000  0.6003050000000  0.5383530000000 1.0
C      1  0.5241520000000  0.6003060000000  0.4604700000000 1.0
C      1  0.5241540000000  0.3991180000000  0.5383560000000 1.0
C      1  0.4601770000000  0.5247410000000  0.6000050000000 1.0
C      1  0.5380680000000  0.5247410000000  0.3988190000000 1.0
C      1  0.5380630000000  0.4746830000000  0.6000080000000 1.0
C      1  0.3985270000000  0.5386520000000  0.5244380000000 1.0
C      1  0.5997180000000  0.5386550000000  0.4743850000000 1.0
C      1  0.5997180000000  0.4607710000000  0.5244450000000 1.0
C      1  0.4599700000000  0.5388620000000  0.5385620000000 1.0
C      1  0.5382750000000  0.4605610000000  0.5385650000000 1.0
C      1  0.5382750000000  0.5388630000000  0.4602610000000 1.0
C      1  0.4599740000000  0.4605580000000  0.4602600000000 1.0
END
