TITL C-3201376-6384-792 1.69253770297335 125000 -223.148517092374 0 0 39 (C1) n - 1
REM
REM in /home/nfs/bkarasulu/CARBON/AIRSS/Generating-Clusters/LCBOP/Higher-Symm/SD-CG/FIRE-CG
REM
REM
REM
REM
REM
REM ./C.cell (b20cbc046b6831c77cfcea5457e17084)
REM AIRSS Version 0.9.1 bugfix July 2018 build 013d7b7c2542+ Fri, 06 Jul 2018 19:26:36 +0100
REM compiler GCC version 9.2.1 20190827 (Red Hat 9.2.1-1)
REM options -cpp -mtune=generic -march=x86-64 -g -O0 -fpre-include=/usr/include/finclude/math-vector-fortran.h
REM seed -1534527795 884893590 -1175288291 -1762810936 680190640 2063998094 -616605863 -1869601203 474993530 -1563150134 1590215540 829288544 -2046823760 -263911093 -1304678695 931660094 -114991295 -1951273012 -971008063 817434858 -1370299780 58667576 -1188392261 -599055884 -133872382 -1945943986 1048694767 -1021008533 -856661099 -854876120 -125164951 610790745 514678788
REM
CELL 1.54180   50.00000   50.00000   50.00000   90.00000   90.00000   90.00000
LATT -1
SFAC C  
C      1  0.4387600000000  0.4788260000000  0.4477270000000 1.0
C      1  0.4426590000000  0.4958490000000  0.5645060000000 1.0
C      1  0.5215640000000  0.4263370000000  0.4488760000000 1.0
C      1  0.5214610000000  0.5719600000000  0.5571830000000 1.0
C      1  0.4726920000000  0.4551140000000  0.4001670000000 1.0
C      1  0.4702090000000  0.5427550000000  0.6033120000000 1.0
C      1  0.5027400000000  0.5599780000000  0.5716630000000 1.0
C      1  0.5028960000000  0.4380590000000  0.4341190000000 1.0
C      1  0.4626540000000  0.5388550000000  0.4616080000000 1.0
C      1  0.4667920000000  0.5075340000000  0.4977760000000 1.0
C      1  0.4873860000000  0.5141080000000  0.5676260000000 1.0
C      1  0.4860960000000  0.4835100000000  0.4376630000000 1.0
C      1  0.4527570000000  0.5448460000000  0.6250750000000 1.0
C      1  0.4567440000000  0.4533300000000  0.3772530000000 1.0
C      1  0.4627190000000  0.4914680000000  0.4518380000000 1.0
C      1  0.4651560000000  0.5053750000000  0.5521870000000 1.0
C      1  0.5637130000000  0.5471710000000  0.5010060000000 1.0
C      1  0.5642960000000  0.4512680000000  0.5047770000000 1.0
C      1  0.5558480000000  0.4332700000000  0.4871860000000 1.0
C      1  0.5555000000000  0.5652050000000  0.5186710000000 1.0
C      1  0.4865830000000  0.5391720000000  0.5810370000000 1.0
C      1  0.4869610000000  0.4586170000000  0.4238630000000 1.0
C      1  0.5107180000000  0.4987110000000  0.5681930000000 1.0
C      1  0.5090820000000  0.4994570000000  0.4382010000000 1.0
C      1  0.5311410000000  0.5113370000000  0.4468900000000 1.0
C      1  0.5328830000000  0.4869130000000  0.5596470000000 1.0
C      1  0.4508690000000  0.5685280000000  0.6386850000000 1.0
C      1  0.4370250000000  0.4718510000000  0.3730250000000 1.0
C      1  0.4667590000000  0.5063410000000  0.5242550000000 1.0
C      1  0.4641770000000  0.5129860000000  0.4704530000000 1.0
C      1  0.5404690000000  0.4244730000000  0.4674140000000 1.0
C      1  0.5403030000000  0.5739800000000  0.5385950000000 1.0
C      1  0.5500570000000  0.5193420000000  0.4636800000000 1.0
C      1  0.5515460000000  0.4789450000000  0.5425500000000 1.0
C      1  0.4377560000000  0.5231840000000  0.6325190000000 1.0
C      1  0.4610260000000  0.4330900000000  0.3593190000000 1.0
C      1  0.5633340000000  0.4762020000000  0.5173470000000 1.0
C      1  0.5625920000000  0.5222100000000  0.4885030000000 1.0
C      1  0.5697420000000  0.4992480000000  0.5028170000000 1.0
END
