TITL C-3201376-6384-1966 3.5671008542233e-07 125000 -485.933208645876 0 0 81 (C1) n - 1
REM
REM in /home/nfs/bkarasulu/CARBON/AIRSS/Generating-Clusters/LCBOP/Higher-Symm/SD-CG/FIRE-CG
REM
REM
REM
REM
REM
REM ./C.cell (b20cbc046b6831c77cfcea5457e17084)
REM AIRSS Version 0.9.1 bugfix July 2018 build 013d7b7c2542+ Fri, 06 Jul 2018 19:26:36 +0100
REM compiler GCC version 9.2.1 20190827 (Red Hat 9.2.1-1)
REM options -cpp -mtune=generic -march=x86-64 -g -O0 -fpre-include=/usr/include/finclude/math-vector-fortran.h
REM seed -1767195473 457106479 247330592 162357452 -1747101057 -2038732492 -494786329 -1238725400 45820459 423899172 -2119567303 -1005354706 1353079530 -1707590743 798437580 170487308 -2097919617 1775651894 -1586220821 499939784 -1612011706 195544345 1959550488 -1312091266 1990570578 -402792454 -1358350017 1815123887 -1710208825 1144930185 -1976240652 686049629 1894788506
REM
CELL 1.54180   50.00000   50.00000   50.00000   90.00000   90.00000   90.00000
LATT -1
SFAC C  
C      1  0.5540070000000  0.4967820000000  0.4455040000000 1.0
C      1  0.5564920000000  0.4510190000000  0.5291180000000 1.0
C      1  0.5572950000000  0.5455720000000  0.5297370000000 1.0
C      1  0.4403650000000  0.4928250000000  0.4483330000000 1.0
C      1  0.4452310000000  0.4628650000000  0.5428800000000 1.0
C      1  0.4469070000000  0.5561870000000  0.5171980000000 1.0
C      1  0.4678460000000  0.5068850000000  0.4435610000000 1.0
C      1  0.4689150000000  0.4516690000000  0.5305920000000 1.0
C      1  0.4722420000000  0.5497730000000  0.5337180000000 1.0
C      1  0.5264750000000  0.5120770000000  0.4439380000000 1.0
C      1  0.5296350000000  0.4419160000000  0.5156970000000 1.0
C      1  0.5286680000000  0.5413110000000  0.5423400000000 1.0
C      1  0.5504280000000  0.4636160000000  0.5551550000000 1.0
C      1  0.5525110000000  0.5625840000000  0.5053160000000 1.0
C      1  0.5467240000000  0.4668750000000  0.4471900000000 1.0
C      1  0.4543240000000  0.4838470000000  0.5629570000000 1.0
C      1  0.4559000000000  0.5636140000000  0.4889560000000 1.0
C      1  0.4454330000000  0.4635350000000  0.4500380000000 1.0
C      1  0.4281380000000  0.5076770000000  0.5300740000000 1.0
C      1  0.4271450000000  0.5248700000000  0.4850640000000 1.0
C      1  0.4277030000000  0.4756090000000  0.4926230000000 1.0
C      1  0.5716620000000  0.4969810000000  0.5302610000000 1.0
C      1  0.5718060000000  0.5237730000000  0.4884250000000 1.0
C      1  0.5717670000000  0.4757260000000  0.4866130000000 1.0
C      1  0.5112330000000  0.5017490000000  0.4205060000000 1.0
C      1  0.5107840000000  0.4256970000000  0.5328790000000 1.0
C      1  0.5162890000000  0.5689490000000  0.5432660000000 1.0
C      1  0.4845660000000  0.4968270000000  0.4207440000000 1.0
C      1  0.4843820000000  0.4291910000000  0.5371410000000 1.0
C      1  0.4906450000000  0.5732220000000  0.5359120000000 1.0
C      1  0.4241970000000  0.4989520000000  0.4736860000000 1.0
C      1  0.4263250000000  0.4786490000000  0.5214210000000 1.0
C      1  0.4264510000000  0.5315640000000  0.5140890000000 1.0
C      1  0.5729630000000  0.5012270000000  0.4710210000000 1.0
C      1  0.5741780000000  0.4717330000000  0.5146740000000 1.0
C      1  0.5736980000000  0.5227000000000  0.5185740000000 1.0
C      1  0.5427540000000  0.5881350000000  0.5004530000000 1.0
C      1  0.5284550000000  0.4449170000000  0.4414520000000 1.0
C      1  0.5385320000000  0.4547840000000  0.5785640000000 1.0
C      1  0.4794470000000  0.5723690000000  0.4727680000000 1.0
C      1  0.4583700000000  0.4485790000000  0.4304020000000 1.0
C      1  0.4782250000000  0.4922200000000  0.5785350000000 1.0
C      1  0.5486470000000  0.5412960000000  0.4857410000000 1.0
C      1  0.5476120000000  0.4653080000000  0.4761170000000 1.0
C      1  0.5477280000000  0.4910430000000  0.5460830000000 1.0
C      1  0.4516450000000  0.5372920000000  0.4777740000000 1.0
C      1  0.4498040000000  0.4616100000000  0.4787650000000 1.0
C      1  0.4523330000000  0.5060260000000  0.5447560000000 1.0
C      1  0.5564000000000  0.4068770000000  0.4925070000000 1.0
C      1  0.5350750000000  0.5254260000000  0.5904860000000 1.0
C      1  0.5338970000000  0.5636570000000  0.4339030000000 1.0
C      1  0.4836600000000  0.3893490000000  0.4603130000000 1.0
C      1  0.4529730000000  0.5519840000000  0.5807290000000 1.0
C      1  0.4502320000000  0.5485070000000  0.4203380000000 1.0
C      1  0.5206080000000  0.5992980000000  0.4903640000000 1.0
C      1  0.5087690000000  0.4445290000000  0.4212870000000 1.0
C      1  0.5162720000000  0.4593360000000  0.5926410000000 1.0
C      1  0.4964990000000  0.5933250000000  0.4804990000000 1.0
C      1  0.4820440000000  0.4433790000000  0.4189870000000 1.0
C      1  0.4937570000000  0.4736600000000  0.5927210000000 1.0
C      1  0.5245950000000  0.5261960000000  0.4904790000000 1.0
C      1  0.5240250000000  0.4783600000000  0.4852850000000 1.0
C      1  0.5239210000000  0.4947700000000  0.5299930000000 1.0
C      1  0.4749120000000  0.5235660000000  0.4878260000000 1.0
C      1  0.4747440000000  0.4743730000000  0.4856520000000 1.0
C      1  0.4750190000000  0.5007460000000  0.5274650000000 1.0
C      1  0.4836350000000  0.4731110000000  0.5147060000000 1.0
C      1  0.4854210000000  0.5263010000000  0.5165060000000 1.0
C      1  0.4836900000000  0.5004080000000  0.4708350000000 1.0
C      1  0.5143270000000  0.4706110000000  0.5127400000000 1.0
C      1  0.5154970000000  0.5229690000000  0.5196480000000 1.0
C      1  0.5141410000000  0.5037210000000  0.4715700000000 1.0
C      1  0.5023160000000  0.4075480000000  0.4605030000000 1.0
C      1  0.4705380000000  0.5401950000000  0.5633420000000 1.0
C      1  0.4680040000000  0.5375100000000  0.4380220000000 1.0
C      1  0.5360940000000  0.4254540000000  0.4899330000000 1.0
C      1  0.5179270000000  0.5273680000000  0.5692360000000 1.0
C      1  0.5158710000000  0.5462720000000  0.4437000000000 1.0
C      1  0.5227580000000  0.4266060000000  0.4641620000000 1.0
C      1  0.4887890000000  0.5533470000000  0.4510760000000 1.0
C      1  0.4895280000000  0.5196100000000  0.5719370000000 1.0
END
