TITL C-3201376-6384-1057 -8.61224283660257e-07 125000 -814.420678064273 0 0 130 (D5) n - 1
REM
REM in /home/nfs/bkarasulu/CARBON/AIRSS/Generating-Clusters/LCBOP/Higher-Symm/SD-CG/FIRE-CG
REM
REM
REM
REM
REM
REM ./C.cell (b20cbc046b6831c77cfcea5457e17084)
REM AIRSS Version 0.9.1 bugfix July 2018 build 013d7b7c2542+ Fri, 06 Jul 2018 19:26:36 +0100
REM compiler GCC version 9.2.1 20190827 (Red Hat 9.2.1-1)
REM options -cpp -mtune=generic -march=x86-64 -g -O0 -fpre-include=/usr/include/finclude/math-vector-fortran.h
REM seed -504402481 -1331843583 634944830 200281191 1021880476 -1398975969 1001225984 -2005873290 -365308665 1190364188 104665636 -790956600 1627466204 1161888060 -1914511695 1493616725 -1019547843 1112622034 513966574 360941322 -1104465777 614939254 15458399 215615082 -640767447 -1108397861 -1183799555 122984382 480944460 145580056 -771055308 -868219121 -1335615522
REM
CELL 1.54180   50.00000   50.00000   50.00000   90.00000   90.00000   90.00000
LATT -1
SFAC C  
C      1  0.5804850000000  0.4999290000000  0.4887250000000 1.0
C      1  0.5249390000000  0.5765250000000  0.4887290000000 1.0
C      1  0.4349270000000  0.5473670000000  0.4887330000000 1.0
C      1  0.4348430000000  0.4527500000000  0.4887300000000 1.0
C      1  0.5248030000000  0.4234310000000  0.4887250000000 1.0
C      1  0.4195150000000  0.4999280000000  0.5112750000000 1.0
C      1  0.4750610000000  0.5765240000000  0.5112750000000 1.0
C      1  0.5650730000000  0.5473660000000  0.5112700000000 1.0
C      1  0.5651570000000  0.4527490000000  0.5112670000000 1.0
C      1  0.4751970000000  0.4234310000000  0.5112710000000 1.0
C      1  0.5187150000000  0.4825330000000  0.5267680000000 1.0
C      1  0.5223950000000  0.5123990000000  0.5267680000000 1.0
C      1  0.4951280000000  0.5251290000000  0.5267700000000 1.0
C      1  0.4745960000000  0.5031300000000  0.5267700000000 1.0
C      1  0.4891730000000  0.4768050000000  0.5267690000000 1.0
C      1  0.4812850000000  0.4825350000000  0.4732310000000 1.0
C      1  0.4776050000000  0.5124010000000  0.4732320000000 1.0
C      1  0.5048720000000  0.5251300000000  0.4732310000000 1.0
C      1  0.5254040000000  0.5031320000000  0.4732300000000 1.0
C      1  0.5108270000000  0.4768060000000  0.4732300000000 1.0
C      1  0.4125440000000  0.5427640000000  0.5351450000000 1.0
C      1  0.4323040000000  0.4300370000000  0.5351420000000 1.0
C      1  0.5456200000000  0.4139950000000  0.5351360000000 1.0
C      1  0.5958930000000  0.5168080000000  0.5351360000000 1.0
C      1  0.5136480000000  0.5963910000000  0.5351420000000 1.0
C      1  0.5874560000000  0.5427660000000  0.4648570000000 1.0
C      1  0.5676960000000  0.4300380000000  0.4648550000000 1.0
C      1  0.4543800000000  0.4139970000000  0.4648600000000 1.0
C      1  0.4041070000000  0.5168100000000  0.4648650000000 1.0
C      1  0.4863530000000  0.5963930000000  0.4648630000000 1.0
C      1  0.5038580000000  0.5660470000000  0.5756480000000 1.0
C      1  0.4383780000000  0.5240740000000  0.5756500000000 1.0
C      1  0.4580620000000  0.4488290000000  0.5756480000000 1.0
C      1  0.5357080000000  0.4442970000000  0.5756440000000 1.0
C      1  0.5640110000000  0.5167430000000  0.5756440000000 1.0
C      1  0.4961420000000  0.5660510000000  0.4243550000000 1.0
C      1  0.5616220000000  0.5240780000000  0.4243510000000 1.0
C      1  0.5419370000000  0.4488320000000  0.4243500000000 1.0
C      1  0.4642920000000  0.4443010000000  0.4243530000000 1.0
C      1  0.4359890000000  0.5167470000000  0.4243570000000 1.0
C      1  0.4357190000000  0.4363660000000  0.5627550000000 1.0
C      1  0.5406560000000  0.4191970000000  0.5627500000000 1.0
C      1  0.5894120000000  0.5136930000000  0.5627500000000 1.0
C      1  0.5146080000000  0.5892640000000  0.5627550000000 1.0
C      1  0.4196200000000  0.5414730000000  0.5627590000000 1.0
C      1  0.5642810000000  0.4363690000000  0.4372420000000 1.0
C      1  0.4593430000000  0.4192000000000  0.4372460000000 1.0
C      1  0.4105880000000  0.5136960000000  0.4372510000000 1.0
C      1  0.4853930000000  0.5892670000000  0.4372490000000 1.0
C      1  0.5803800000000  0.5414760000000  0.4372440000000 1.0
C      1  0.4125330000000  0.4855320000000  0.5564510000000 1.0
C      1  0.4867310000000  0.4123400000000  0.5564460000000 1.0
C      1  0.5792700000000  0.4602890000000  0.5564430000000 1.0
C      1  0.5622640000000  0.5631150000000  0.5564460000000 1.0
C      1  0.4592150000000  0.5787170000000  0.5564510000000 1.0
C      1  0.5874670000000  0.4855350000000  0.4435480000000 1.0
C      1  0.5132680000000  0.4123430000000  0.4435500000000 1.0
C      1  0.4207300000000  0.4602920000000  0.4435550000000 1.0
C      1  0.4377360000000  0.5631190000000  0.4435570000000 1.0
C      1  0.5407860000000  0.5787190000000  0.4435530000000 1.0
C      1  0.4869100000000  0.6005380000000  0.5269800000000 1.0
C      1  0.4003380000000  0.5186170000000  0.5269820000000 1.0
C      1  0.4514970000000  0.4109670000000  0.5269770000000 1.0
C      1  0.5696870000000  0.4263570000000  0.5269710000000 1.0
C      1  0.5915730000000  0.5435180000000  0.5269730000000 1.0
C      1  0.5130900000000  0.6005390000000  0.4730250000000 1.0
C      1  0.5996620000000  0.5186180000000  0.4730190000000 1.0
C      1  0.5485020000000  0.4109680000000  0.4730190000000 1.0
C      1  0.4303130000000  0.4263590000000  0.4730250000000 1.0
C      1  0.4084270000000  0.5435200000000  0.4730290000000 1.0
C      1  0.4770210000000  0.4547410000000  0.5122840000000 1.0
C      1  0.5359430000000  0.4641590000000  0.5122810000000 1.0
C      1  0.5451940000000  0.5231080000000  0.5122820000000 1.0
C      1  0.4919890000000  0.5501220000000  0.5122850000000 1.0
C      1  0.4498560000000  0.5078690000000  0.5122860000000 1.0
C      1  0.5229790000000  0.4547410000000  0.4877140000000 1.0
C      1  0.4640570000000  0.4641600000000  0.4877170000000 1.0
C      1  0.4548060000000  0.5231090000000  0.4877190000000 1.0
C      1  0.5080110000000  0.5501230000000  0.4877170000000 1.0
C      1  0.5501440000000  0.5078690000000  0.4877140000000 1.0
C      1  0.4493640000000  0.5425500000000  0.4263420000000 1.0
C      1  0.4438850000000  0.4649960000000  0.4263410000000 1.0
C      1  0.5159500000000  0.4358190000000  0.4263360000000 1.0
C      1  0.5659680000000  0.4953410000000  0.4263350000000 1.0
C      1  0.5248160000000  0.5613040000000  0.4263390000000 1.0
C      1  0.5506360000000  0.5425460000000  0.5736600000000 1.0
C      1  0.5561150000000  0.4649920000000  0.5736580000000 1.0
C      1  0.4840500000000  0.4358150000000  0.5736600000000 1.0
C      1  0.4340320000000  0.4953370000000  0.5736640000000 1.0
C      1  0.4751840000000  0.5613000000000  0.5736640000000 1.0
C      1  0.4760520000000  0.5471740000000  0.4176280000000 1.0
C      1  0.4477340000000  0.4918070000000  0.4176280000000 1.0
C      1  0.4916410000000  0.4477650000000  0.4176250000000 1.0
C      1  0.5470940000000  0.4759140000000  0.4176230000000 1.0
C      1  0.5374600000000  0.5373510000000  0.4176250000000 1.0
C      1  0.5239480000000  0.5471690000000  0.5823740000000 1.0
C      1  0.5522660000000  0.4918020000000  0.5823710000000 1.0
C      1  0.5083590000000  0.4477610000000  0.5823720000000 1.0
C      1  0.4529060000000  0.4759100000000  0.5823760000000 1.0
C      1  0.4625400000000  0.5373470000000  0.5823770000000 1.0
C      1  0.4191450000000  0.4754440000000  0.5296730000000 1.0
C      1  0.4983690000000  0.4155130000000  0.5296680000000 1.0
C      1  0.5798480000000  0.4723390000000  0.5296660000000 1.0
C      1  0.5509820000000  0.5673910000000  0.5296690000000 1.0
C      1  0.4516620000000  0.5693100000000  0.5296740000000 1.0
C      1  0.5808540000000  0.4754450000000  0.4703250000000 1.0
C      1  0.5016310000000  0.4155140000000  0.4703280000000 1.0
C      1  0.4201510000000  0.4723410000000  0.4703330000000 1.0
C      1  0.4490180000000  0.5673930000000  0.4703340000000 1.0
C      1  0.5483380000000  0.5693110000000  0.4703290000000 1.0
C      1  0.4630430000000  0.3966630000000  0.5498380000000 1.0
C      1  0.5868600000000  0.4329160000000  0.5498330000000 1.0
C      1  0.5906420000000  0.5618750000000  0.5498360000000 1.0
C      1  0.4691640000000  0.6053230000000  0.5498430000000 1.0
C      1  0.3903030000000  0.5032170000000  0.5498440000000 1.0
C      1  0.5369570000000  0.3966650000000  0.4501570000000 1.0
C      1  0.4131400000000  0.4329190000000  0.4501640000000 1.0
C      1  0.4093580000000  0.5618780000000  0.4501670000000 1.0
C      1  0.5308370000000  0.6053260000000  0.4501630000000 1.0
C      1  0.6096970000000  0.5032190000000  0.4501560000000 1.0
C      1  0.5746200000000  0.4509540000000  0.4825830000000 1.0
C      1  0.5697040000000  0.5558130000000  0.4825860000000 1.0
C      1  0.4684580000000  0.5835410000000  0.4825910000000 1.0
C      1  0.4108010000000  0.4958190000000  0.4825920000000 1.0
C      1  0.4764130000000  0.4138760000000  0.4825870000000 1.0
C      1  0.4253800000000  0.4509540000000  0.5174150000000 1.0
C      1  0.4302960000000  0.5558120000000  0.5174170000000 1.0
C      1  0.5315420000000  0.5835400000000  0.5174130000000 1.0
C      1  0.5891990000000  0.4958170000000  0.5174080000000 1.0
C      1  0.5235870000000  0.4138750000000  0.5174090000000 1.0
END
