TITL C-3201375-1262-1537 0.115562880427424 125000 -403.153931748232 0 0 68 (C1) n - 1
REM
REM in /home/nfs/bkarasulu/CARBON/AIRSS/Generating-Clusters/LCBOP/Higher-Symm/SD-CG/FIRE-CG
REM
REM
REM
REM
REM
REM ./C.cell (b20cbc046b6831c77cfcea5457e17084)
REM AIRSS Version 0.9.1 bugfix July 2018 build 013d7b7c2542+ Fri, 06 Jul 2018 19:26:36 +0100
REM compiler GCC version 9.2.1 20190827 (Red Hat 9.2.1-1)
REM options -cpp -mtune=generic -march=x86-64 -g -O0 -fpre-include=/usr/include/finclude/math-vector-fortran.h
REM seed -1578380501 288213063 1578364220 951825786 1755496650 -1056929691 -387452762 -129839020 791349624 1474280649 -1291557783 -1597792129 1231701866 -1259521382 -1476092718 488118569 -2013283954 -1933772676 572496474 890836572 -509158950 -1237728471 2006858186 -1488443652 1318572591 -1613934966 1262024205 -1662971250 -1326078947 430528405 -351120589 -1142535641 408583794
REM
CELL 1.54180   50.00000   50.00000   50.00000   90.00000   90.00000   90.00000
LATT -1
SFAC C  
C      1  0.5328990000000  0.4947060000000  0.5580050000000 1.0
C      1  0.5390850000000  0.4733920000000  0.4938220000000 1.0
C      1  0.5666930000000  0.4795900000000  0.4918390000000 1.0
C      1  0.5819410000000  0.4729490000000  0.5145790000000 1.0
C      1  0.4372220000000  0.4179600000000  0.5395820000000 1.0
C      1  0.4040140000000  0.5284890000000  0.4680310000000 1.0
C      1  0.5617260000000  0.4920840000000  0.5530520000000 1.0
C      1  0.5686060000000  0.5213550000000  0.5518570000000 1.0
C      1  0.4483580000000  0.5470760000000  0.4794600000000 1.0
C      1  0.5243960000000  0.5332450000000  0.4924420000000 1.0
C      1  0.4924360000000  0.4797880000000  0.5023510000000 1.0
C      1  0.5577740000000  0.4437610000000  0.5440190000000 1.0
C      1  0.4457300000000  0.4424400000000  0.4608520000000 1.0
C      1  0.6278410000000  0.5679700000000  0.3397970000000 1.0
C      1  0.4993420000000  0.5606000000000  0.5379670000000 1.0
C      1  0.5778250000000  0.4910780000000  0.4691230000000 1.0
C      1  0.4629180000000  0.4233310000000  0.4988920000000 1.0
C      1  0.5285040000000  0.5143070000000  0.5794530000000 1.0
C      1  0.4174330000000  0.4342770000000  0.5304020000000 1.0
C      1  0.4972640000000  0.5231990000000  0.4953400000000 1.0
C      1  0.5027690000000  0.4500740000000  0.4175920000000 1.0
C      1  0.4571350000000  0.6199110000000  0.4849410000000 1.0
C      1  0.5124400000000  0.4301060000000  0.4901820000000 1.0
C      1  0.4621760000000  0.5673470000000  0.4957830000000 1.0
C      1  0.6196970000000  0.5552430000000  0.3610430000000 1.0
C      1  0.4151450000000  0.4954720000000  0.5166010000000 1.0
C      1  0.4658680000000  0.4891840000000  0.5424090000000 1.0
C      1  0.4764040000000  0.4857630000000  0.4385290000000 1.0
C      1  0.4924210000000  0.5100500000000  0.6119910000000 1.0
C      1  0.4209000000000  0.5214280000000  0.5117660000000 1.0
C      1  0.4777100000000  0.5978260000000  0.5995680000000 1.0
C      1  0.4744070000000  0.4412230000000  0.4566200000000 1.0
C      1  0.4833870000000  0.5299230000000  0.5681680000000 1.0
C      1  0.4783240000000  0.5578010000000  0.5175320000000 1.0
C      1  0.5397510000000  0.4264550000000  0.5340170000000 1.0
C      1  0.5492330000000  0.5363280000000  0.5039180000000 1.0
C      1  0.3930470000000  0.5041450000000  0.4636360000000 1.0
C      1  0.4079780000000  0.4731650000000  0.5005140000000 1.0
C      1  0.4739500000000  0.5052940000000  0.4584320000000 1.0
C      1  0.4729640000000  0.5165170000000  0.5438000000000 1.0
C      1  0.4880040000000  0.5584880000000  0.5645770000000 1.0
C      1  0.6114180000000  0.5423030000000  0.3826440000000 1.0
C      1  0.4878620000000  0.4996520000000  0.4821520000000 1.0
C      1  0.5708780000000  0.4686880000000  0.5402540000000 1.0
C      1  0.3945710000000  0.4804670000000  0.4765970000000 1.0
C      1  0.4189090000000  0.4474740000000  0.5051940000000 1.0
C      1  0.4595590000000  0.5944890000000  0.4901370000000 1.0
C      1  0.4594370000000  0.4126120000000  0.5247640000000 1.0
C      1  0.4736560000000  0.4730040000000  0.5221610000000 1.0
C      1  0.5204730000000  0.4418240000000  0.4003390000000 1.0
C      1  0.5523640000000  0.5313940000000  0.5751750000000 1.0
C      1  0.4826580000000  0.5788780000000  0.5823760000000 1.0
C      1  0.5657750000000  0.5333110000000  0.5256530000000 1.0
C      1  0.5171570000000  0.5353980000000  0.5352940000000 1.0
C      1  0.5197110000000  0.4851720000000  0.5116360000000 1.0
C      1  0.4849320000000  0.4587430000000  0.4370960000000 1.0
C      1  0.5222270000000  0.4195890000000  0.5147000000000 1.0
C      1  0.6031400000000  0.5293670000000  0.4042390000000 1.0
C      1  0.4230130000000  0.5363830000000  0.4877060000000 1.0
C      1  0.4779720000000  0.5289550000000  0.5171980000000 1.0
C      1  0.4610860000000  0.5308000000000  0.4593200000000 1.0
C      1  0.5865490000000  0.5035550000000  0.4474510000000 1.0
C      1  0.4855380000000  0.4285570000000  0.4811100000000 1.0
C      1  0.5948620000000  0.5164310000000  0.4258350000000 1.0
C      1  0.5292710000000  0.4505780000000  0.4799520000000 1.0
C      1  0.4385870000000  0.4364390000000  0.4877540000000 1.0
C      1  0.5013040000000  0.5178170000000  0.5873440000000 1.0
C      1  0.5213740000000  0.5047810000000  0.5334280000000 1.0
END
