TITL C-3201372-1405-1322 9604.37728132337 125000 -404.08588396995 0 0 70 (T23) n - 1
REM
REM in /home/nfs/bkarasulu/CARBON/AIRSS/Generating-Clusters/LCBOP/Higher-Symm/SD-CG/FIRE-CG
REM
REM
REM
REM
REM
REM ./C.cell (b20cbc046b6831c77cfcea5457e17084)
REM AIRSS Version 0.9.1 bugfix July 2018 build 013d7b7c2542+ Fri, 06 Jul 2018 19:26:36 +0100
REM compiler GCC version 9.2.1 20190827 (Red Hat 9.2.1-1)
REM options -cpp -mtune=generic -march=x86-64 -g -O0 -fpre-include=/usr/include/finclude/math-vector-fortran.h
REM seed -1283050326 -255555124 -885491602 1528830819 811980619 -852096062 884946878 2124649026 -1411469000 -1865711113 -1262823300 1179981998 -613448527 941481854 -1039618496 -746599767 -259012591 661839524 -1200027266 90751045 1568391318 -2035904737 -919529959 -1184358444 -540476234 1106024054 -53057094 1660627253 -1552836298 698774006 -427144418 407999185 -2076709497
REM
CELL 1.54180   50.00000   50.00000   50.00000   90.00000   90.00000   90.00000
LATT -1
SFAC C  
C      1  0.4718060000000  0.4963890000000  0.4343220000000 1.0
C      1  0.4960930000000  0.4342600000000  0.4722080000000 1.0
C      1  0.4337580000000  0.4714970000000  0.4968310000000 1.0
C      1  0.5273420000000  0.4957070000000  0.5648610000000 1.0
C      1  0.5273420000000  0.5029670000000  0.4346010000000 1.0
C      1  0.4718060000000  0.5022850000000  0.5651410000000 1.0
C      1  0.5023470000000  0.4337550000000  0.5278530000000 1.0
C      1  0.5023470000000  0.5649180000000  0.4716100000000 1.0
C      1  0.4960930000000  0.5644140000000  0.5272550000000 1.0
C      1  0.5650350000000  0.4715500000000  0.5029160000000 1.0
C      1  0.5650350000000  0.5271240000000  0.4965470000000 1.0
C      1  0.4337580000000  0.5271780000000  0.5026320000000 1.0
C      1  0.5649650000000  0.4335640000000  0.4686570000000 1.0
C      1  0.4334890000000  0.4683860000000  0.5656810000000 1.0
C      1  0.4681620000000  0.5650790000000  0.4335320000000 1.0
C      1  0.4335160000000  0.4334980000000  0.5311030000000 1.0
C      1  0.4335160000000  0.5651780000000  0.4683600000000 1.0
C      1  0.5649650000000  0.5651100000000  0.5308060000000 1.0
C      1  0.5652810000000  0.4685380000000  0.4341650000000 1.0
C      1  0.5652810000000  0.5301350000000  0.5652990000000 1.0
C      1  0.4334890000000  0.5302890000000  0.4337830000000 1.0
C      1  0.5302020000000  0.5645210000000  0.5654940000000 1.0
C      1  0.5302020000000  0.4341530000000  0.4339690000000 1.0
C      1  0.4681620000000  0.4335960000000  0.5659320000000 1.0
C      1  0.4794120000000  0.5750540000000  0.4583790000000 1.0
C      1  0.5751380000000  0.4582770000000  0.4800020000000 1.0
C      1  0.4583920000000  0.4795890000000  0.5755580000000 1.0
C      1  0.5189310000000  0.5745100000000  0.5406700000000 1.0
C      1  0.5189310000000  0.4241630000000  0.4587930000000 1.0
C      1  0.4794120000000  0.4236210000000  0.5410840000000 1.0
C      1  0.4236270000000  0.4583470000000  0.5198050000000 1.0
C      1  0.4236270000000  0.5403280000000  0.4796590000000 1.0
C      1  0.5751380000000  0.5403970000000  0.5194610000000 1.0
C      1  0.5405000000000  0.4800500000000  0.4243410000000 1.0
C      1  0.5405000000000  0.5186240000000  0.5751230000000 1.0
C      1  0.4583920000000  0.5190850000000  0.4239050000000 1.0
C      1  0.4440820000000  0.5391940000000  0.5249950000000 1.0
C      1  0.5391270000000  0.5255570000000  0.4447560000000 1.0
C      1  0.5248910000000  0.4437810000000  0.5397880000000 1.0
C      1  0.5551230000000  0.5388500000000  0.4738410000000 1.0
C      1  0.5551210000000  0.4598240000000  0.5256220000000 1.0
C      1  0.4440810000000  0.4594800000000  0.4744680000000 1.0
C      1  0.4602290000000  0.5250500000000  0.5551840000000 1.0
C      1  0.4602300000000  0.4736250000000  0.4442790000000 1.0
C      1  0.5391280000000  0.4731180000000  0.5547070000000 1.0
C      1  0.4735260000000  0.4446370000000  0.4605610000000 1.0
C      1  0.4735250000000  0.5540390000000  0.5389020000000 1.0
C      1  0.5248910000000  0.5548910000000  0.4596730000000 1.0
C      1  0.4564590000000  0.4179210000000  0.5237570000000 1.0
C      1  0.4179780000000  0.5229210000000  0.4567590000000 1.0
C      1  0.5230050000000  0.4572290000000  0.4185270000000 1.0
C      1  0.5419000000000  0.4181860000000  0.4760220000000 1.0
C      1  0.5419000000000  0.5804880000000  0.5234410000000 1.0
C      1  0.4564600000000  0.5807540000000  0.4757070000000 1.0
C      1  0.5809730000000  0.5230270000000  0.5423600000000 1.0
C      1  0.5809730000000  0.4756460000000  0.4571040000000 1.0
C      1  0.4179770000000  0.4757550000000  0.5427050000000 1.0
C      1  0.4755850000000  0.4565670000000  0.5814320000000 1.0
C      1  0.4755850000000  0.5421080000000  0.4180310000000 1.0
C      1  0.5230040000000  0.5414440000000  0.5809360000000 1.0
C      1  0.4992590000000  0.4368020000000  0.5000560000000 1.0
C      1  0.4365120000000  0.4993380000000  0.4997320000000 1.0
C      1  0.4995330000000  0.4998810000000  0.4375820000000 1.0
C      1  0.4992600000000  0.5618710000000  0.4994070000000 1.0
C      1  0.5620080000000  0.4993370000000  0.4997320000000 1.0
C      1  0.4995320000000  0.4987930000000  0.5618800000000 1.0
C      1  0.4392660000000  0.5592490000000  0.4394510000000 1.0
C      1  0.4392660000000  0.4394270000000  0.5600120000000 1.0
C      1  0.5591800000000  0.5590360000000  0.5596730000000 1.0
C      1  0.5591800000000  0.4396380000000  0.4397910000000 1.0
END
