TITL C-3201376-6384-1940 -7.73115385525129e-07 125000 -255.046797821924 0 0 47 (C1) n - 1
REM
REM in /home/nfs/bkarasulu/CARBON/AIRSS/Generating-Clusters/LCBOP/Higher-Symm/SD-CG/FIRE-CG
REM
REM
REM
REM
REM
REM ./C.cell (b20cbc046b6831c77cfcea5457e17084)
REM AIRSS Version 0.9.1 bugfix July 2018 build 013d7b7c2542+ Fri, 06 Jul 2018 19:26:36 +0100
REM compiler GCC version 9.2.1 20190827 (Red Hat 9.2.1-1)
REM options -cpp -mtune=generic -march=x86-64 -g -O0 -fpre-include=/usr/include/finclude/math-vector-fortran.h
REM seed 952591283 924002424 751489116 736625888 -770644341 498397376 469209435 -2099744824 569807080 330797048 -760048427 677890016 -791148213 1056359472 2017882494 -1465495390 -140625751 -1193357699 815187544 2136722437 -888581263 483532465 -907212579 1375713854 -1959236332 -133700110 -651330352 -1417650977 -1447252704 1236369457 -579101265 -567255872 490114644
REM
CELL 1.54180   50.00000   50.00000   50.00000   90.00000   90.00000   90.00000
LATT -1
SFAC C  
C      1  0.4744740000000  0.4902070000000  0.4424130000000 1.0
C      1  0.4755540000000  0.4944270000000  0.5585730000000 1.0
C      1  0.4454460000000  0.4547780000000  0.4747390000000 1.0
C      1  0.4486760000000  0.4546350000000  0.5301790000000 1.0
C      1  0.5661300000000  0.5603860000000  0.5578210000000 1.0
C      1  0.5562740000000  0.5599020000000  0.4439860000000 1.0
C      1  0.5592070000000  0.5463840000000  0.5353360000000 1.0
C      1  0.5532970000000  0.5462760000000  0.4675510000000 1.0
C      1  0.5076200000000  0.5283640000000  0.4569260000000 1.0
C      1  0.5158510000000  0.5274790000000  0.5531780000000 1.0
C      1  0.5322210000000  0.5385400000000  0.5309670000000 1.0
C      1  0.5273790000000  0.5386990000000  0.4765170000000 1.0
C      1  0.5008150000000  0.5005700000000  0.4504050000000 1.0
C      1  0.5040880000000  0.5006790000000  0.5561000000000 1.0
C      1  0.5213190000000  0.4784280000000  0.5579140000000 1.0
C      1  0.5215650000000  0.4815140000000  0.4491110000000 1.0
C      1  0.5108510000000  0.5450210000000  0.5740910000000 1.0
C      1  0.4943010000000  0.5478600000000  0.4423750000000 1.0
C      1  0.6051470000000  0.5308570000000  0.4824230000000 1.0
C      1  0.6077330000000  0.5309590000000  0.5117870000000 1.0
C      1  0.4600620000000  0.5118700000000  0.5733140000000 1.0
C      1  0.4644580000000  0.4996220000000  0.4184160000000 1.0
C      1  0.5782350000000  0.5403110000000  0.5163150000000 1.0
C      1  0.5752830000000  0.5402070000000  0.4830450000000 1.0
C      1  0.4620730000000  0.4711510000000  0.5477940000000 1.0
C      1  0.4585930000000  0.4698900000000  0.4556900000000 1.0
C      1  0.5290560000000  0.4574030000000  0.4577010000000 1.0
C      1  0.5268340000000  0.4546030000000  0.5472630000000 1.0
C      1  0.5234250000000  0.4397460000000  0.4769170000000 1.0
C      1  0.5216950000000  0.4391110000000  0.5261790000000 1.0
C      1  0.5198020000000  0.5417930000000  0.5045070000000 1.0
C      1  0.4834960000000  0.4582650000000  0.5002780000000 1.0
C      1  0.4355520000000  0.5359370000000  0.4611830000000 1.0
C      1  0.4553480000000  0.4447990000000  0.5019030000000 1.0
C      1  0.4982040000000  0.5031680000000  0.5052840000000 1.0
C      1  0.4309140000000  0.4977350000000  0.5161740000000 1.0
C      1  0.5499380000000  0.4872180000000  0.5040040000000 1.0
C      1  0.4460230000000  0.5176170000000  0.4765220000000 1.0
C      1  0.5244650000000  0.4929460000000  0.5048370000000 1.0
C      1  0.4897460000000  0.4114720000000  0.5003570000000 1.0
C      1  0.4719930000000  0.5464900000000  0.5160650000000 1.0
C      1  0.4934920000000  0.5310350000000  0.5082020000000 1.0
C      1  0.4510520000000  0.4995900000000  0.4975610000000 1.0
C      1  0.4625560000000  0.4158760000000  0.5013450000000 1.0
C      1  0.4543510000000  0.5632740000000  0.5253640000000 1.0
C      1  0.5063810000000  0.4368640000000  0.5009020000000 1.0
C      1  0.4768710000000  0.4865350000000  0.5002620000000 1.0
END
