TITL C-3201373-1215-2323 83150.3581830622 125000 -769.694315041506 0 0 132 (C1) n - 1
REM
REM in /home/nfs/bkarasulu/CARBON/AIRSS/Generating-Clusters/LCBOP/Higher-Symm/SD-CG/FIRE-CG
REM
REM
REM
REM
REM
REM ./C.cell (b20cbc046b6831c77cfcea5457e17084)
REM AIRSS Version 0.9.1 bugfix July 2018 build 013d7b7c2542+ Fri, 06 Jul 2018 19:26:36 +0100
REM compiler GCC version 9.2.1 20190827 (Red Hat 9.2.1-1)
REM options -cpp -mtune=generic -march=x86-64 -g -O0 -fpre-include=/usr/include/finclude/math-vector-fortran.h
REM seed 1533483732 -1121203895 -78261408 388626489 1596765634 1372162428 -1575045943 228162387 242506373 -1946252471 206565466 623272350 311734321 862983014 2125333528 144318964 73602862 1710264826 -851984000 1583204668 -550762172 -1967624827 452985458 -341166207 -246290827 1520978926 -1677507234 1814476336 -408768554 -758520650 1841658245 386478676 567836955
REM
CELL 1.54180   50.00000   50.00000   50.00000   90.00000   90.00000   90.00000
LATT -1
SFAC C  
C      1  0.5628080000000  0.3766680000000  0.3771930000000 1.0
C      1  0.4482080000000  0.6191460000000  0.6300980000000 1.0
C      1  0.5976640000000  0.5750730000000  0.4908450000000 1.0
C      1  0.3435900000000  0.4495170000000  0.4320820000000 1.0
C      1  0.4270740000000  0.5718450000000  0.5440070000000 1.0
C      1  0.5752050000000  0.4226660000000  0.4698430000000 1.0
C      1  0.5728390000000  0.4410190000000  0.4491120000000 1.0
C      1  0.4308690000000  0.5521550000000  0.5629060000000 1.0
C      1  0.4990690000000  0.4478500000000  0.6027820000000 1.0
C      1  0.5111630000000  0.5499960000000  0.4039170000000 1.0
C      1  0.4722120000000  0.4533640000000  0.6057300000000 1.0
C      1  0.5375150000000  0.5425640000000  0.4033130000000 1.0
C      1  0.4267220000000  0.4454090000000  0.6207880000000 1.0
C      1  0.5828010000000  0.5460480000000  0.3867270000000 1.0
C      1  0.3736380000000  0.4324940000000  0.3688090000000 1.0
C      1  0.5532270000000  0.6096560000000  0.5257820000000 1.0
C      1  0.4728360000000  0.4945420000000  0.5794110000000 1.0
C      1  0.5329660000000  0.5006460000000  0.4298240000000 1.0
C      1  0.4901570000000  0.5063210000000  0.4696740000000 1.0
C      1  0.5151400000000  0.4941580000000  0.5368250000000 1.0
C      1  0.4766820000000  0.4430520000000  0.5227290000000 1.0
C      1  0.5296330000000  0.5507940000000  0.4878000000000 1.0
C      1  0.5489240000000  0.4619280000000  0.4852490000000 1.0
C      1  0.4590950000000  0.5411800000000  0.5182420000000 1.0
C      1  0.4303020000000  0.4811200000000  0.5871770000000 1.0
C      1  0.5769620000000  0.5114480000000  0.4209390000000 1.0
C      1  0.5610570000000  0.4121620000000  0.5239070000000 1.0
C      1  0.4559130000000  0.5957000000000  0.5092850000000 1.0
C      1  0.5219420000000  0.4415060000000  0.5858270000000 1.0
C      1  0.4842840000000  0.5508150000000  0.4094930000000 1.0
C      1  0.4225270000000  0.5504460000000  0.4644330000000 1.0
C      1  0.5842980000000  0.4544430000000  0.5350630000000 1.0
C      1  0.5355190000000  0.4867940000000  0.4845920000000 1.0
C      1  0.4699440000000  0.5156270000000  0.5160220000000 1.0
C      1  0.3678450000000  0.4526210000000  0.4185730000000 1.0
C      1  0.5801310000000  0.5719650000000  0.5125330000000 1.0
C      1  0.4321120000000  0.5801150000000  0.5163490000000 1.0
C      1  0.5747010000000  0.4221500000000  0.4992210000000 1.0
C      1  0.4837550000000  0.4154750000000  0.5173490000000 1.0
C      1  0.5324490000000  0.5782240000000  0.4954540000000 1.0
C      1  0.4938720000000  0.5056210000000  0.5960350000000 1.0
C      1  0.5136740000000  0.4885760000000  0.4118400000000 1.0
C      1  0.4329280000000  0.5573220000000  0.4993490000000 1.0
C      1  0.5768440000000  0.4505770000000  0.5055970000000 1.0
C      1  0.4629080000000  0.5461750000000  0.5998880000000 1.0
C      1  0.5448040000000  0.4479470000000  0.4095670000000 1.0
C      1  0.4788530000000  0.5864410000000  0.4940750000000 1.0
C      1  0.5327520000000  0.4095880000000  0.5240160000000 1.0
C      1  0.5044030000000  0.4752420000000  0.5538110000000 1.0
C      1  0.5005050000000  0.5255110000000  0.4519770000000 1.0
C      1  0.4020920000000  0.4762260000000  0.5457050000000 1.0
C      1  0.6087270000000  0.5150310000000  0.4588150000000 1.0
C      1  0.5103490000000  0.5380100000000  0.5048090000000 1.0
C      1  0.4913590000000  0.4620680000000  0.5063850000000 1.0
C      1  0.5238380000000  0.5427550000000  0.5502680000000 1.0
C      1  0.4807970000000  0.4555160000000  0.4623820000000 1.0
C      1  0.5009000000000  0.4488550000000  0.4818140000000 1.0
C      1  0.5051650000000  0.5501470000000  0.5308360000000 1.0
C      1  0.5142340000000  0.4252560000000  0.5639820000000 1.0
C      1  0.4755990000000  0.5816330000000  0.4473210000000 1.0
C      1  0.5945380000000  0.5118750000000  0.5091290000000 1.0
C      1  0.4101460000000  0.4856220000000  0.4944610000000 1.0
C      1  0.5069110000000  0.5919730000000  0.4969820000000 1.0
C      1  0.5071270000000  0.4009750000000  0.5142760000000 1.0
C      1  0.4051230000000  0.4771270000000  0.5739370000000 1.0
C      1  0.6036190000000  0.5127630000000  0.4311670000000 1.0
C      1  0.3891000000000  0.4658040000000  0.4309690000000 1.0
C      1  0.5889250000000  0.5561640000000  0.5345760000000 1.0
C      1  0.4437300000000  0.4603190000000  0.6039300000000 1.0
C      1  0.5650520000000  0.5330270000000  0.4043520000000 1.0
C      1  0.4440170000000  0.5339440000000  0.5812720000000 1.0
C      1  0.5617970000000  0.4600400000000  0.4298330000000 1.0
C      1  0.4865730000000  0.5312960000000  0.6054830000000 1.0
C      1  0.5218050000000  0.4630260000000  0.4028220000000 1.0
C      1  0.5350790000000  0.4570620000000  0.5260150000000 1.0
C      1  0.4636080000000  0.5400760000000  0.4740530000000 1.0
C      1  0.5477850000000  0.4545650000000  0.5772120000000 1.0
C      1  0.4603540000000  0.5377670000000  0.4206530000000 1.0
C      1  0.5509310000000  0.4236830000000  0.3974740000000 1.0
C      1  0.4579630000000  0.5709000000000  0.6116630000000 1.0
C      1  0.4883550000000  0.4997240000000  0.4055320000000 1.0
C      1  0.5194120000000  0.4925910000000  0.5993790000000 1.0
C      1  0.5818730000000  0.4820490000000  0.5411620000000 1.0
C      1  0.4176480000000  0.5220750000000  0.4666120000000 1.0
C      1  0.3213340000000  0.4464620000000  0.4452950000000 1.0
C      1  0.6126790000000  0.5808960000000  0.4703540000000 1.0
C      1  0.5289430000000  0.5142620000000  0.5502260000000 1.0
C      1  0.4784250000000  0.4841320000000  0.4573360000000 1.0
C      1  0.4538570000000  0.4466210000000  0.4536890000000 1.0
C      1  0.5463020000000  0.5526550000000  0.5654930000000 1.0
C      1  0.6089960000000  0.5145240000000  0.4855550000000 1.0
C      1  0.3988100000000  0.4783380000000  0.5190500000000 1.0
C      1  0.4377610000000  0.4929560000000  0.4958310000000 1.0
C      1  0.5663740000000  0.5074230000000  0.5069010000000 1.0
C      1  0.4780520000000  0.4732210000000  0.5617170000000 1.0
C      1  0.5276920000000  0.5234940000000  0.4465490000000 1.0
C      1  0.5283610000000  0.4443280000000  0.4889730000000 1.0
C      1  0.4777150000000  0.5566920000000  0.5338540000000 1.0
C      1  0.5565030000000  0.4865690000000  0.5259930000000 1.0
C      1  0.4444780000000  0.5152070000000  0.4777640000000 1.0
C      1  0.4460520000000  0.5047450000000  0.5813490000000 1.0
C      1  0.5597710000000  0.4896920000000  0.4289170000000 1.0
C      1  0.4530480000000  0.5951510000000  0.6211280000000 1.0
C      1  0.5569430000000  0.4000390000000  0.3871430000000 1.0
C      1  0.5667500000000  0.5314780000000  0.5692390000000 1.0
C      1  0.4369030000000  0.4687490000000  0.4428750000000 1.0
C      1  0.4095020000000  0.4765700000000  0.4465130000000 1.0
C      1  0.5888490000000  0.5325490000000  0.5511510000000 1.0
C      1  0.3825030000000  0.4749180000000  0.5893870000000 1.0
C      1  0.6247840000000  0.5107400000000  0.4138500000000 1.0
C      1  0.4387390000000  0.5512730000000  0.4379110000000 1.0
C      1  0.5676370000000  0.4374150000000  0.5512350000000 1.0
C      1  0.4037820000000  0.4957920000000  0.4674630000000 1.0
C      1  0.5973310000000  0.5076660000000  0.5381340000000 1.0
C      1  0.4566460000000  0.4897600000000  0.4384640000000 1.0
C      1  0.5506380000000  0.5069910000000  0.5688930000000 1.0
C      1  0.5512280000000  0.5096410000000  0.4840410000000 1.0
C      1  0.4531600000000  0.4937430000000  0.5185680000000 1.0
C      1  0.4943520000000  0.5125300000000  0.4988170000000 1.0
C      1  0.5083710000000  0.4884050000000  0.5084260000000 1.0
C      1  0.4647450000000  0.4533810000000  0.5464590000000 1.0
C      1  0.5422080000000  0.5319760000000  0.4699080000000 1.0
C      1  0.5551910000000  0.5864170000000  0.5111520000000 1.0
C      1  0.3708620000000  0.4424460000000  0.3927360000000 1.0
C      1  0.4997560000000  0.4024990000000  0.5682750000000 1.0
C      1  0.4777060000000  0.6014990000000  0.4304990000000 1.0
C      1  0.4641380000000  0.5085040000000  0.4187080000000 1.0
C      1  0.5438780000000  0.4840720000000  0.5847300000000 1.0
C      1  0.5255010000000  0.4336820000000  0.5392880000000 1.0
C      1  0.4728020000000  0.5682370000000  0.4719920000000 1.0
C      1  0.4116040000000  0.4311490000000  0.6365140000000 1.0
C      1  0.5984850000000  0.5588740000000  0.3703340000000 1.0
END
