TITL C-3201377-4638-79 -563865.468982427 125000 -469.574098082465 0 0 82 (C1) n - 1
REM
REM in /home/nfs/bkarasulu/CARBON/AIRSS/Generating-Clusters/LCBOP/Higher-Symm/SD-CG/FIRE-CG
REM
REM
REM
REM
REM
REM ./C.cell (b20cbc046b6831c77cfcea5457e17084)
REM AIRSS Version 0.9.1 bugfix July 2018 build 013d7b7c2542+ Fri, 06 Jul 2018 19:26:36 +0100
REM compiler GCC version 9.2.1 20190827 (Red Hat 9.2.1-1)
REM options -cpp -mtune=generic -march=x86-64 -g -O0 -fpre-include=/usr/include/finclude/math-vector-fortran.h
REM seed 1922054953 -1894582422 -20977965 -754800422 -2087732519 143986809 -1484927522 738584286 -308554435 -1016777831 -1362043890 1459621603 618478349 -1989600679 -1463698502 1353601568 -1512233263 518352703 656254533 -1786100439 -163790739 901320885 -1676887700 2125500812 1781505637 928077732 -304928997 -580015880 1079533540 -285267057 -278093787 -1014514756 -2116781716
REM
CELL 1.54180   50.00000   50.00000   50.00000   90.00000   90.00000   90.00000
LATT -1
SFAC C  
C      1  0.5277730000000  0.5255910000000  0.4282480000000 1.0
C      1  0.4723690000000  0.4767810000000  0.4297580000000 1.0
C      1  0.5276740000000  0.5255820000000  0.5698230000000 1.0
C      1  0.4725050000000  0.4769170000000  0.5684380000000 1.0
C      1  0.4735780000000  0.5223710000000  0.4298900000000 1.0
C      1  0.5269670000000  0.4752410000000  0.4285900000000 1.0
C      1  0.4736000000000  0.5226230000000  0.5686500000000 1.0
C      1  0.5269350000000  0.4751040000000  0.5696520000000 1.0
C      1  0.5256600000000  0.4525750000000  0.4709920000000 1.0
C      1  0.4742480000000  0.5473700000000  0.4714660000000 1.0
C      1  0.5254790000000  0.4524490000000  0.5273960000000 1.0
C      1  0.4742060000000  0.5478400000000  0.5272810000000 1.0
C      1  0.4734390000000  0.4499730000000  0.4698060000000 1.0
C      1  0.5263370000000  0.5493110000000  0.4697230000000 1.0
C      1  0.4733320000000  0.4497230000000  0.5284270000000 1.0
C      1  0.5259380000000  0.5496260000000  0.5285430000000 1.0
C      1  0.5558760000000  0.5551860000000  0.5270250000000 1.0
C      1  0.4434200000000  0.4444180000000  0.5277820000000 1.0
C      1  0.5563160000000  0.5553970000000  0.4708450000000 1.0
C      1  0.4435540000000  0.4445000000000  0.4704970000000 1.0
C      1  0.4441720000000  0.5551790000000  0.5274570000000 1.0
C      1  0.5555400000000  0.4449680000000  0.5270050000000 1.0
C      1  0.4442890000000  0.5550940000000  0.4709890000000 1.0
C      1  0.5556820000000  0.4449550000000  0.4711840000000 1.0
C      1  0.4360370000000  0.4457120000000  0.5563600000000 1.0
C      1  0.5638560000000  0.5551320000000  0.5554560000000 1.0
C      1  0.4361270000000  0.4456770000000  0.4419280000000 1.0
C      1  0.5640510000000  0.5551840000000  0.4423890000000 1.0
C      1  0.5627760000000  0.4448310000000  0.5555540000000 1.0
C      1  0.4375760000000  0.5542840000000  0.5561910000000 1.0
C      1  0.5628440000000  0.4448090000000  0.4426350000000 1.0
C      1  0.4378640000000  0.5543230000000  0.4422250000000 1.0
C      1  0.5678920000000  0.5135960000000  0.4610920000000 1.0
C      1  0.4315780000000  0.4864050000000  0.4620650000000 1.0
C      1  0.5676420000000  0.5135490000000  0.5368830000000 1.0
C      1  0.4316790000000  0.4864100000000  0.5361530000000 1.0
C      1  0.4318450000000  0.5134400000000  0.4620380000000 1.0
C      1  0.5679060000000  0.4865020000000  0.4610860000000 1.0
C      1  0.4319970000000  0.5134330000000  0.5362290000000 1.0
C      1  0.5677300000000  0.4864850000000  0.5370330000000 1.0
C      1  0.5684520000000  0.5321960000000  0.4843600000000 1.0
C      1  0.4310200000000  0.4671180000000  0.4845460000000 1.0
C      1  0.5681700000000  0.5321290000000  0.5136090000000 1.0
C      1  0.4310100000000  0.4671050000000  0.5137030000000 1.0
C      1  0.4311180000000  0.5324780000000  0.4846450000000 1.0
C      1  0.5685320000000  0.4680250000000  0.4844470000000 1.0
C      1  0.4311920000000  0.5325100000000  0.5137040000000 1.0
C      1  0.5684000000000  0.4680050000000  0.5137360000000 1.0
C      1  0.5558130000000  0.4729770000000  0.4358280000000 1.0
C      1  0.4446000000000  0.5258420000000  0.4366020000000 1.0
C      1  0.5557070000000  0.4729950000000  0.5623420000000 1.0
C      1  0.4445540000000  0.5258510000000  0.5617490000000 1.0
C      1  0.4434630000000  0.4739700000000  0.4363420000000 1.0
C      1  0.5564700000000  0.5271700000000  0.4356670000000 1.0
C      1  0.4434880000000  0.4739850000000  0.5618640000000 1.0
C      1  0.5563310000000  0.5271460000000  0.5623060000000 1.0
C      1  0.5132310000000  0.5734840000000  0.4793760000000 1.0
C      1  0.4869020000000  0.4260760000000  0.4791460000000 1.0
C      1  0.5130370000000  0.5740310000000  0.5192520000000 1.0
C      1  0.4868320000000  0.4258520000000  0.5190870000000 1.0
C      1  0.4864820000000  0.5706820000000  0.4848620000000 1.0
C      1  0.5134880000000  0.4295750000000  0.4848400000000 1.0
C      1  0.4863040000000  0.5711310000000  0.5136550000000 1.0
C      1  0.5134310000000  0.4294300000000  0.5135010000000 1.0
C      1  0.4830290000000  0.5195100000000  0.5150050000000 1.0
C      1  0.5174950000000  0.4824230000000  0.5164920000000 1.0
C      1  0.4821740000000  0.5186960000000  0.4841750000000 1.0
C      1  0.5182320000000  0.4824810000000  0.4819380000000 1.0
C      1  0.5163140000000  0.5182230000000  0.5161050000000 1.0
C      1  0.4818390000000  0.4804390000000  0.5131670000000 1.0
C      1  0.5182700000000  0.5177880000000  0.4816880000000 1.0
C      1  0.4818410000000  0.4809850000000  0.4850240000000 1.0
C      1  0.5140690000000  0.5457550000000  0.5561390000000 1.0
C      1  0.4854210000000  0.4557740000000  0.5553070000000 1.0
C      1  0.5141100000000  0.5455020000000  0.4422810000000 1.0
C      1  0.4855230000000  0.4559420000000  0.4430200000000 1.0
C      1  0.4859390000000  0.5442760000000  0.5552190000000 1.0
C      1  0.5135440000000  0.4549990000000  0.5552980000000 1.0
C      1  0.4860720000000  0.5436270000000  0.4436230000000 1.0
C      1  0.5136330000000  0.4551950000000  0.4431320000000 1.0
C      1  0.5033440000000  0.5000010000000  0.4247180000000 1.0
C      1  0.5028380000000  0.5000720000000  0.5733250000000 1.0
END
