TITL C-3201373-1215-1502 -71696.1909274577 125000 -872.319891748826 0 0 148 (C1) n - 1
REM
REM in /home/nfs/bkarasulu/CARBON/AIRSS/Generating-Clusters/LCBOP/Higher-Symm/SD-CG/FIRE-CG
REM
REM
REM
REM
REM
REM ./C.cell (b20cbc046b6831c77cfcea5457e17084)
REM AIRSS Version 0.9.1 bugfix July 2018 build 013d7b7c2542+ Fri, 06 Jul 2018 19:26:36 +0100
REM compiler GCC version 9.2.1 20190827 (Red Hat 9.2.1-1)
REM options -cpp -mtune=generic -march=x86-64 -g -O0 -fpre-include=/usr/include/finclude/math-vector-fortran.h
REM seed -1710770418 252905080 -1347240831 207707821 -125469155 1102060857 -2107335606 1418629071 -1367731241 -32457519 -535581086 -1689151654 -543696933 1592571949 -1771907858 -1724482008 -126301583 -1060893997 1372856663 108080100 1768866320 -191366162 -927616563 -1996273544 -682961719 -1499330178 1852124500 -1360894781 1823187286 -208071726 405658957 -891461011 1488983695
REM
CELL 1.54180   50.00000   50.00000   50.00000   90.00000   90.00000   90.00000
LATT -1
SFAC C  
C      1  0.4834070000000  0.5308490000000  0.4718830000000 1.0
C      1  0.4774810000000  0.4951370000000  0.4717380000000 1.0
C      1  0.5085750000000  0.4772770000000  0.4700190000000 1.0
C      1  0.5326500000000  0.5023160000000  0.4696400000000 1.0
C      1  0.4706520000000  0.4395840000000  0.5058660000000 1.0
C      1  0.5593110000000  0.4753620000000  0.5101030000000 1.0
C      1  0.5271280000000  0.5590860000000  0.5113020000000 1.0
C      1  0.4413700000000  0.5322210000000  0.5064110000000 1.0
C      1  0.4587460000000  0.4611620000000  0.5687560000000 1.0
C      1  0.5277110000000  0.4646310000000  0.5662100000000 1.0
C      1  0.5425470000000  0.5425350000000  0.5789250000000 1.0
C      1  0.4724380000000  0.5364280000000  0.5665700000000 1.0
C      1  0.5582660000000  0.4609440000000  0.4358250000000 1.0
C      1  0.5376020000000  0.5543080000000  0.4361130000000 1.0
C      1  0.4409540000000  0.5392460000000  0.4331520000000 1.0
C      1  0.4612590000000  0.4421300000000  0.4327380000000 1.0
C      1  0.4143300000000  0.4865430000000  0.4687500000000 1.0
C      1  0.5140450000000  0.4121350000000  0.4660170000000 1.0
C      1  0.5887270000000  0.5118720000000  0.4665220000000 1.0
C      1  0.4871260000000  0.5892870000000  0.4635490000000 1.0
C      1  0.5152500000000  0.5946950000000  0.4618920000000 1.0
C      1  0.4038440000000  0.5131620000000  0.4654350000000 1.0
C      1  0.4868160000000  0.4038020000000  0.4630370000000 1.0
C      1  0.5978930000000  0.4845570000000  0.4648930000000 1.0
C      1  0.5473880000000  0.5084990000000  0.4462540000000 1.0
C      1  0.4861340000000  0.5456260000000  0.4475600000000 1.0
C      1  0.4566860000000  0.4892670000000  0.4473040000000 1.0
C      1  0.5108530000000  0.4558260000000  0.4463900000000 1.0
C      1  0.5810760000000  0.5054170000000  0.5791430000000 1.0
C      1  0.4981400000000  0.5849170000000  0.5763780000000 1.0
C      1  0.4185250000000  0.4969610000000  0.5766890000000 1.0
C      1  0.5038240000000  0.4172850000000  0.5739490000000 1.0
C      1  0.5836880000000  0.5487590000000  0.5223180000000 1.0
C      1  0.4507840000000  0.5905260000000  0.5236530000000 1.0
C      1  0.4135490000000  0.4504030000000  0.5273070000000 1.0
C      1  0.5521860000000  0.4110120000000  0.5270730000000 1.0
C      1  0.5635460000000  0.3844560000000  0.5724840000000 1.0
C      1  0.5843630000000  0.5511040000000  0.5678640000000 1.0
C      1  0.4512870000000  0.5888650000000  0.5711780000000 1.0
C      1  0.4191910000000  0.4334450000000  0.5725400000000 1.0
C      1  0.5712980000000  0.5394910000000  0.5462540000000 1.0
C      1  0.4630180000000  0.5809620000000  0.5477790000000 1.0
C      1  0.4031810000000  0.4431080000000  0.5528660000000 1.0
C      1  0.5579960000000  0.3945530000000  0.5491030000000 1.0
C      1  0.4748570000000  0.5740320000000  0.4413290000000 1.0
C      1  0.4282320000000  0.4766410000000  0.4443980000000 1.0
C      1  0.5239180000000  0.4274450000000  0.4427800000000 1.0
C      1  0.5747610000000  0.5223810000000  0.4427000000000 1.0
C      1  0.5745320000000  0.4267580000000  0.5150830000000 1.0
C      1  0.5737880000000  0.5748900000000  0.5115180000000 1.0
C      1  0.4255390000000  0.5773970000000  0.5134060000000 1.0
C      1  0.4266770000000  0.4271860000000  0.5128570000000 1.0
C      1  0.4596990000000  0.4845570000000  0.4950520000000 1.0
C      1  0.5168310000000  0.4588370000000  0.4929440000000 1.0
C      1  0.5444190000000  0.5137880000000  0.4932190000000 1.0
C      1  0.4810490000000  0.5491940000000  0.4940090000000 1.0
C      1  0.5313020000000  0.5577720000000  0.4848480000000 1.0
C      1  0.4383770000000  0.5364060000000  0.4805350000000 1.0
C      1  0.4669700000000  0.4402180000000  0.4797210000000 1.0
C      1  0.5612620000000  0.4669400000000  0.4846610000000 1.0
C      1  0.4865030000000  0.5230280000000  0.5422850000000 1.0
C      1  0.4786760000000  0.4668090000000  0.5457300000000 1.0
C      1  0.5085690000000  0.4788900000000  0.5448250000000 1.0
C      1  0.5086720000000  0.5073120000000  0.5358710000000 1.0
C      1  0.5815350000000  0.5719090000000  0.4553820000000 1.0
C      1  0.4261910000000  0.5831240000000  0.4561140000000 1.0
C      1  0.4181240000000  0.4282700000000  0.4563990000000 1.0
C      1  0.5720240000000  0.4178480000000  0.4585620000000 1.0
C      1  0.5269650000000  0.6113930000000  0.4819810000000 1.0
C      1  0.3887860000000  0.5251210000000  0.4866620000000 1.0
C      1  0.4750520000000  0.3882090000000  0.4838330000000 1.0
C      1  0.6125740000000  0.4737520000000  0.4869820000000 1.0
C      1  0.5130060000000  0.6025080000000  0.5560790000000 1.0
C      1  0.4037660000000  0.5149490000000  0.5592900000000 1.0
C      1  0.4864390000000  0.4029820000000  0.5560020000000 1.0
C      1  0.5958710000000  0.4891960000000  0.5590530000000 1.0
C      1  0.4876570000000  0.5661770000000  0.5374670000000 1.0
C      1  0.4418090000000  0.4940160000000  0.5341970000000 1.0
C      1  0.5115030000000  0.4371390000000  0.5304610000000 1.0
C      1  0.5537160000000  0.5155510000000  0.5385630000000 1.0
C      1  0.4754600000000  0.5978930000000  0.5092870000000 1.0
C      1  0.4168450000000  0.4820960000000  0.5214280000000 1.0
C      1  0.5225720000000  0.4133890000000  0.5181580000000 1.0
C      1  0.5931470000000  0.5224560000000  0.5125970000000 1.0
C      1  0.4833060000000  0.5853190000000  0.4146770000000 1.0
C      1  0.4137600000000  0.4859370000000  0.4193440000000 1.0
C      1  0.5161700000000  0.4142060000000  0.4167060000000 1.0
C      1  0.5890520000000  0.5150740000000  0.4172540000000 1.0
C      1  0.6028670000000  0.4980190000000  0.5297220000000 1.0
C      1  0.5041360000000  0.6080770000000  0.5264430000000 1.0
C      1  0.3969440000000  0.5052450000000  0.5312810000000 1.0
C      1  0.4957810000000  0.3933900000000  0.5288840000000 1.0
C      1  0.4865730000000  0.5590320000000  0.5804260000000 1.0
C      1  0.4409670000000  0.4815170000000  0.5793760000000 1.0
C      1  0.5175170000000  0.4405150000000  0.5781690000000 1.0
C      1  0.5589550000000  0.5210320000000  0.5861180000000 1.0
C      1  0.5187790000000  0.4630950000000  0.5202290000000 1.0
C      1  0.5311000000000  0.5176770000000  0.5197010000000 1.0
C      1  0.4805070000000  0.5430320000000  0.5215910000000 1.0
C      1  0.4648860000000  0.4819380000000  0.5237980000000 1.0
C      1  0.4929330000000  0.5330780000000  0.4229850000000 1.0
C      1  0.4670240000000  0.4931500000000  0.4205300000000 1.0
C      1  0.5073220000000  0.4667980000000  0.4198140000000 1.0
C      1  0.5339750000000  0.5066540000000  0.4209830000000 1.0
C      1  0.5861000000000  0.3980130000000  0.4457180000000 1.0
C      1  0.5988860000000  0.5870350000000  0.4404100000000 1.0
C      1  0.4103010000000  0.6008310000000  0.4422400000000 1.0
C      1  0.4006400000000  0.4121580000000  0.4426740000000 1.0
C      1  0.5842090000000  0.4601670000000  0.5568880000000 1.0
C      1  0.5424180000000  0.5917380000000  0.5542320000000 1.0
C      1  0.4153340000000  0.5433020000000  0.5564880000000 1.0
C      1  0.4583230000000  0.4122260000000  0.5536330000000 1.0
C      1  0.5282370000000  0.5693540000000  0.4590840000000 1.0
C      1  0.4259210000000  0.5294600000000  0.4558710000000 1.0
C      1  0.4716480000000  0.4270350000000  0.4548960000000 1.0
C      1  0.5735620000000  0.4700660000000  0.4586960000000 1.0
C      1  0.4477060000000  0.4079260000000  0.5254030000000 1.0
C      1  0.5915140000000  0.4482820000000  0.5294440000000 1.0
C      1  0.5532580000000  0.5947680000000  0.5254200000000 1.0
C      1  0.4079150000000  0.5550420000000  0.5283530000000 1.0
C      1  0.5166930000000  0.5607680000000  0.5378280000000 1.0
C      1  0.4441180000000  0.5216280000000  0.5319740000000 1.0
C      1  0.4831480000000  0.4407790000000  0.5309150000000 1.0
C      1  0.5570320000000  0.4869900000000  0.5362340000000 1.0
C      1  0.5532180000000  0.4333930000000  0.4428300000000 1.0
C      1  0.5664500000000  0.5512540000000  0.4420630000000 1.0
C      1  0.4453870000000  0.5676280000000  0.4406780000000 1.0
C      1  0.4338230000000  0.4473790000000  0.4414800000000 1.0
C      1  0.4220240000000  0.5811140000000  0.4846060000000 1.0
C      1  0.4203980000000  0.4250930000000  0.4847390000000 1.0
C      1  0.5773020000000  0.4221780000000  0.4865260000000 1.0
C      1  0.5788500000000  0.5777850000000  0.4832250000000 1.0
C      1  0.5212380000000  0.4236690000000  0.4898090000000 1.0
C      1  0.5748110000000  0.5171890000000  0.4908460000000 1.0
C      1  0.4800600000000  0.5787220000000  0.4887150000000 1.0
C      1  0.4288400000000  0.4816660000000  0.4924340000000 1.0
C      1  0.3939190000000  0.5301350000000  0.5143530000000 1.0
C      1  0.4712330000000  0.3925320000000  0.5117330000000 1.0
C      1  0.6061980000000  0.4714740000000  0.5149130000000 1.0
C      1  0.5298600000000  0.6081970000000  0.5102790000000 1.0
C      1  0.5334670000000  0.4785570000000  0.4161530000000 1.0
C      1  0.5215880000000  0.5331580000000  0.4198700000000 1.0
C      1  0.4672370000000  0.5212070000000  0.4163410000000 1.0
C      1  0.4790130000000  0.4672820000000  0.4155790000000 1.0
C      1  0.5358320000000  0.5632890000000  0.5594130000000 1.0
C      1  0.4441760000000  0.5370600000000  0.5564920000000 1.0
C      1  0.4475050000000  0.4338580000000  0.5692940000000 1.0
C      1  0.5555370000000  0.4676180000000  0.5574990000000 1.0
END
