TITL C-3201376-6384-1170 -7.48053018786704e-07 125000 -382.206822662052 0 0 60 (Td) n - 1
REM
REM in /home/nfs/bkarasulu/CARBON/AIRSS/Generating-Clusters/LCBOP/Higher-Symm/SD-CG/FIRE-CG
REM
REM
REM
REM
REM
REM ./C.cell (b20cbc046b6831c77cfcea5457e17084)
REM AIRSS Version 0.9.1 bugfix July 2018 build 013d7b7c2542+ Fri, 06 Jul 2018 19:26:36 +0100
REM compiler GCC version 9.2.1 20190827 (Red Hat 9.2.1-1)
REM options -cpp -mtune=generic -march=x86-64 -g -O0 -fpre-include=/usr/include/finclude/math-vector-fortran.h
REM seed -81078151 -1844970218 1452692585 -1948112581 1699439020 585228977 -1148009973 1213695026 1596021451 1869993143 -1593177904 126666908 795772030 1458041121 810624619 1733606456 966639226 2035068981 334833947 -52306086 -187795154 826052577 -1845367303 150151504 629268940 -1759279404 -1565148258 1634836847 -86368441 -1888906073 -1144474937 15187747 -1389915645
REM
CELL 1.54180   50.00000   50.00000   50.00000   90.00000   90.00000   90.00000
LATT -1
SFAC C  
C      1  0.4484510000000  0.4889750000000  0.4692500000000 1.0
C      1  0.4692500000000  0.4484510000000  0.4889750000000 1.0
C      1  0.4889750000000  0.4692500000000  0.4484510000000 1.0
C      1  0.5515490000000  0.5110250000000  0.4692500000000 1.0
C      1  0.5515490000000  0.4889750000000  0.5307500000000 1.0
C      1  0.4484510000000  0.5110250000000  0.5307500000000 1.0
C      1  0.5307500000000  0.5515490000000  0.4889750000000 1.0
C      1  0.5307500000000  0.4484510000000  0.5110250000000 1.0
C      1  0.4692500000000  0.5515490000000  0.5110250000000 1.0
C      1  0.5110250000000  0.5307500000000  0.4484510000000 1.0
C      1  0.5110250000000  0.4692500000000  0.5515490000000 1.0
C      1  0.4889750000000  0.5307500000000  0.5515490000000 1.0
C      1  0.4889750000000  0.4484510000000  0.4692500000000 1.0
C      1  0.4484510000000  0.4692500000000  0.4889750000000 1.0
C      1  0.4692500000000  0.4889750000000  0.4484510000000 1.0
C      1  0.5110250000000  0.5515490000000  0.4692500000000 1.0
C      1  0.4889750000000  0.5515490000000  0.5307500000000 1.0
C      1  0.5110250000000  0.4484510000000  0.5307500000000 1.0
C      1  0.5515490000000  0.5307500000000  0.4889750000000 1.0
C      1  0.4484510000000  0.5307500000000  0.5110250000000 1.0
C      1  0.5515490000000  0.4692500000000  0.5110250000000 1.0
C      1  0.5307500000000  0.5110250000000  0.4484510000000 1.0
C      1  0.4692500000000  0.5110250000000  0.5515490000000 1.0
C      1  0.5307500000000  0.4889750000000  0.5515490000000 1.0
C      1  0.5673530000000  0.4865670000000  0.4665980000000 1.0
C      1  0.4665980000000  0.5673530000000  0.4865670000000 1.0
C      1  0.4865670000000  0.4665980000000  0.5673530000000 1.0
C      1  0.4326470000000  0.5134330000000  0.4665980000000 1.0
C      1  0.4326470000000  0.4865670000000  0.5334020000000 1.0
C      1  0.5673530000000  0.5134330000000  0.5334020000000 1.0
C      1  0.5334020000000  0.4326470000000  0.4865670000000 1.0
C      1  0.5334020000000  0.5673530000000  0.5134330000000 1.0
C      1  0.4665980000000  0.4326470000000  0.5134330000000 1.0
C      1  0.5134330000000  0.5334020000000  0.5673530000000 1.0
C      1  0.5134330000000  0.4665980000000  0.4326470000000 1.0
C      1  0.4865670000000  0.5334020000000  0.4326470000000 1.0
C      1  0.4865670000000  0.5673530000000  0.4665980000000 1.0
C      1  0.5673530000000  0.4665980000000  0.4865670000000 1.0
C      1  0.4665980000000  0.4865670000000  0.5673530000000 1.0
C      1  0.5134330000000  0.4326470000000  0.4665980000000 1.0
C      1  0.4865670000000  0.4326470000000  0.5334020000000 1.0
C      1  0.5134330000000  0.5673530000000  0.5334020000000 1.0
C      1  0.4326470000000  0.5334020000000  0.4865670000000 1.0
C      1  0.5673530000000  0.5334020000000  0.5134330000000 1.0
C      1  0.4326470000000  0.4665980000000  0.5134330000000 1.0
C      1  0.5334020000000  0.5134330000000  0.5673530000000 1.0
C      1  0.4665980000000  0.5134330000000  0.4326470000000 1.0
C      1  0.5334020000000  0.4865670000000  0.4326470000000 1.0
C      1  0.5606200000000  0.4780780000000  0.4393800000000 1.0
C      1  0.4393800000000  0.5606200000000  0.4780780000000 1.0
C      1  0.4393800000000  0.4780780000000  0.5606200000000 1.0
C      1  0.5606200000000  0.4393800000000  0.4780780000000 1.0
C      1  0.5606200000000  0.5606200000000  0.5219220000000 1.0
C      1  0.4393800000000  0.4393800000000  0.5219220000000 1.0
C      1  0.5219220000000  0.4393800000000  0.4393800000000 1.0
C      1  0.4780780000000  0.5606200000000  0.4393800000000 1.0
C      1  0.4780780000000  0.4393800000000  0.5606200000000 1.0
C      1  0.4393800000000  0.5219220000000  0.4393800000000 1.0
C      1  0.5606200000000  0.5219220000000  0.5606200000000 1.0
C      1  0.5219220000000  0.5606200000000  0.5606200000000 1.0
END
