TITL C-3201373-1215-1983 1698.6127614623 125000 -1091.00587262519 0 0 179 (C1) n - 1
REM
REM in /home/nfs/bkarasulu/CARBON/AIRSS/Generating-Clusters/LCBOP/Higher-Symm/SD-CG/FIRE-CG
REM
REM
REM
REM
REM
REM ./C.cell (b20cbc046b6831c77cfcea5457e17084)
REM AIRSS Version 0.9.1 bugfix July 2018 build 013d7b7c2542+ Fri, 06 Jul 2018 19:26:36 +0100
REM compiler GCC version 9.2.1 20190827 (Red Hat 9.2.1-1)
REM options -cpp -mtune=generic -march=x86-64 -g -O0 -fpre-include=/usr/include/finclude/math-vector-fortran.h
REM seed 1557682635 1274260849 205697950 -1183302771 1887008245 1293475376 -1694480300 -1333798069 125623787 1762975731 -1596459596 2037236910 -1596604609 747161630 2034797784 -1542101747 -1899983247 -487675412 830738945 1161564902 458046812 -568264050 -1068857714 50919283 -502145342 -1211352346 1422598321 -1454073041 -1251255767 -243009365 -1441596558 -1310681485 -1057346740
REM
CELL 1.54180   50.00000   50.00000   50.00000   90.00000   90.00000   90.00000
LATT -1
SFAC C  
C      1  0.5548660000000  0.5100950000000  0.4609600000000 1.0
C      1  0.5047320000000  0.5150490000000  0.5516350000000 1.0
C      1  0.4508920000000  0.5076020000000  0.4687210000000 1.0
C      1  0.3492890000000  0.5288750000000  0.5193420000000 1.0
C      1  0.5638860000000  0.5063400000000  0.3633320000000 1.0
C      1  0.6004880000000  0.4882750000000  0.5973330000000 1.0
C      1  0.5002210000000  0.5319470000000  0.6012170000000 1.0
C      1  0.4071590000000  0.5448160000000  0.4482000000000 1.0
C      1  0.5887770000000  0.5440090000000  0.4545880000000 1.0
C      1  0.4468460000000  0.5722830000000  0.4368770000000 1.0
C      1  0.5968750000000  0.5821080000000  0.4938430000000 1.0
C      1  0.4678200000000  0.5722770000000  0.5837230000000 1.0
C      1  0.4543350000000  0.5235690000000  0.4430490000000 1.0
C      1  0.5699920000000  0.5463480000000  0.4973110000000 1.0
C      1  0.4815900000000  0.5355140000000  0.5559210000000 1.0
C      1  0.5494020000000  0.5033950000000  0.5758770000000 1.0
C      1  0.4054450000000  0.5004430000000  0.5120090000000 1.0
C      1  0.5270240000000  0.4895770000000  0.4209550000000 1.0
C      1  0.6147280000000  0.5424470000000  0.5163640000000 1.0
C      1  0.4336780000000  0.5385340000000  0.5797790000000 1.0
C      1  0.4613840000000  0.5478000000000  0.4000290000000 1.0
C      1  0.4737110000000  0.5299430000000  0.4196110000000 1.0
C      1  0.5860870000000  0.5385060000000  0.5204330000000 1.0
C      1  0.4461440000000  0.5344810000000  0.5544640000000 1.0
C      1  0.5642320000000  0.4078050000000  0.4608200000000 1.0
C      1  0.5237410000000  0.4008260000000  0.5682410000000 1.0
C      1  0.4203300000000  0.4173860000000  0.4608040000000 1.0
C      1  0.6190290000000  0.5699210000000  0.5084230000000 1.0
C      1  0.4422410000000  0.5626140000000  0.5921270000000 1.0
C      1  0.4532460000000  0.5722610000000  0.4093280000000 1.0
C      1  0.4822470000000  0.5499720000000  0.4775960000000 1.0
C      1  0.5428300000000  0.5540540000000  0.4935310000000 1.0
C      1  0.4920970000000  0.5572020000000  0.5374080000000 1.0
C      1  0.3979740000000  0.5018250000000  0.5967850000000 1.0
C      1  0.3655090000000  0.3648920000000  0.3995610000000 1.0
C      1  0.6386640000000  0.4963450000000  0.5007750000000 1.0
C      1  0.5900620000000  0.5567070000000  0.4289720000000 1.0
C      1  0.5228970000000  0.5401180000000  0.6173760000000 1.0
C      1  0.3930680000000  0.5679080000000  0.4572870000000 1.0
C      1  0.4658410000000  0.4687990000000  0.5328650000000 1.0
C      1  0.5080330000000  0.4706860000000  0.4316650000000 1.0
C      1  0.5674980000000  0.4764010000000  0.5242210000000 1.0
C      1  0.5267410000000  0.4340200000000  0.4050340000000 1.0
C      1  0.5812420000000  0.4492110000000  0.5647120000000 1.0
C      1  0.4382260000000  0.4308600000000  0.5230590000000 1.0
C      1  0.4825960000000  0.6165810000000  0.5230050000000 1.0
C      1  0.4946770000000  0.6150020000000  0.4753130000000 1.0
C      1  0.5308610000000  0.6176700000000  0.5090230000000 1.0
C      1  0.3758490000000  0.4632060000000  0.4974590000000 1.0
C      1  0.5739090000000  0.4684090000000  0.4196460000000 1.0
C      1  0.5412470000000  0.4597550000000  0.6029410000000 1.0
C      1  0.5359790000000  0.5709250000000  0.5153940000000 1.0
C      1  0.4724200000000  0.5689080000000  0.5229530000000 1.0
C      1  0.5023720000000  0.5660440000000  0.4660550000000 1.0
C      1  0.3647720000000  0.3469640000000  0.3806480000000 1.0
C      1  0.6317450000000  0.5203590000000  0.5111780000000 1.0
C      1  0.4154010000000  0.5208490000000  0.5907880000000 1.0
C      1  0.5204540000000  0.5585280000000  0.5356120000000 1.0
C      1  0.4667470000000  0.5406810000000  0.5002700000000 1.0
C      1  0.5285200000000  0.5523350000000  0.4677280000000 1.0
C      1  0.3662890000000  0.3832210000000  0.4186920000000 1.0
C      1  0.6353370000000  0.4728120000000  0.4877670000000 1.0
C      1  0.3806750000000  0.4820350000000  0.6001870000000 1.0
C      1  0.5140570000000  0.4145330000000  0.5191390000000 1.0
C      1  0.4614930000000  0.4278030000000  0.4359980000000 1.0
C      1  0.5410540000000  0.4182370000000  0.5074560000000 1.0
C      1  0.6230370000000  0.4527570000000  0.4744120000000 1.0
C      1  0.3637450000000  0.4623890000000  0.6028460000000 1.0
C      1  0.3674600000000  0.4018150000000  0.4375170000000 1.0
C      1  0.5538530000000  0.4885300000000  0.3804390000000 1.0
C      1  0.5832850000000  0.4722840000000  0.5817160000000 1.0
C      1  0.3584500000000  0.5038480000000  0.5184810000000 1.0
C      1  0.3948150000000  0.4417800000000  0.4950580000000 1.0
C      1  0.5722290000000  0.4401590000000  0.4244500000000 1.0
C      1  0.5464860000000  0.4323360000000  0.5959100000000 1.0
C      1  0.5764680000000  0.5551940000000  0.5672890000000 1.0
C      1  0.4232910000000  0.5669680000000  0.5228700000000 1.0
C      1  0.5158820000000  0.5576230000000  0.4087460000000 1.0
C      1  0.5218520000000  0.5168690000000  0.4285640000000 1.0
C      1  0.5525470000000  0.5180920000000  0.5497830000000 1.0
C      1  0.4240620000000  0.5211060000000  0.5116530000000 1.0
C      1  0.3750800000000  0.4784340000000  0.4184300000000 1.0
C      1  0.5861040000000  0.4848460000000  0.5037270000000 1.0
C      1  0.4672160000000  0.4755560000000  0.5609100000000 1.0
C      1  0.3705950000000  0.4217350000000  0.4566190000000 1.0
C      1  0.6056290000000  0.4368090000000  0.4613170000000 1.0
C      1  0.5115300000000  0.4037180000000  0.6160410000000 1.0
C      1  0.3933640000000  0.5212540000000  0.4424800000000 1.0
C      1  0.5825990000000  0.5162130000000  0.4614960000000 1.0
C      1  0.4900690000000  0.5049470000000  0.5991590000000 1.0
C      1  0.3802710000000  0.4880950000000  0.5102620000000 1.0
C      1  0.5511840000000  0.4818640000000  0.4076560000000 1.0
C      1  0.5557770000000  0.4793250000000  0.5880660000000 1.0
C      1  0.6219630000000  0.4924520000000  0.4172370000000 1.0
C      1  0.4971640000000  0.3964830000000  0.6365430000000 1.0
C      1  0.3496980000000  0.4393920000000  0.4638170000000 1.0
C      1  0.5165890000000  0.4903230000000  0.5408810000000 1.0
C      1  0.4606960000000  0.4830100000000  0.4844160000000 1.0
C      1  0.5443670000000  0.4926590000000  0.4806030000000 1.0
C      1  0.4662990000000  0.4904310000000  0.5132180000000 1.0
C      1  0.4959790000000  0.4800740000000  0.4554550000000 1.0
C      1  0.5446550000000  0.4970230000000  0.5292390000000 1.0
C      1  0.4316160000000  0.3931280000000  0.4693620000000 1.0
C      1  0.5503880000000  0.3870520000000  0.4474350000000 1.0
C      1  0.5408520000000  0.3794060000000  0.5612850000000 1.0
C      1  0.5986050000000  0.4814170000000  0.4207300000000 1.0
C      1  0.5253810000000  0.4663590000000  0.6241450000000 1.0
C      1  0.3520840000000  0.4587040000000  0.4825990000000 1.0
C      1  0.5781760000000  0.6005530000000  0.5070040000000 1.0
C      1  0.4675730000000  0.5951770000000  0.5655460000000 1.0
C      1  0.4578880000000  0.5873800000000  0.4583500000000 1.0
C      1  0.5495400000000  0.5964590000000  0.5130870000000 1.0
C      1  0.4694010000000  0.5945480000000  0.5359920000000 1.0
C      1  0.4872890000000  0.5911730000000  0.4614760000000 1.0
C      1  0.5394120000000  0.4453740000000  0.4695530000000 1.0
C      1  0.5088200000000  0.4453910000000  0.5500910000000 1.0
C      1  0.4359880000000  0.4626090000000  0.4567460000000 1.0
C      1  0.5477410000000  0.4210400000000  0.4799550000000 1.0
C      1  0.5143330000000  0.4179200000000  0.5479740000000 1.0
C      1  0.4384630000000  0.4363430000000  0.4495530000000 1.0
C      1  0.4846050000000  0.4667260000000  0.4785480000000 1.0
C      1  0.5315670000000  0.4674040000000  0.4836080000000 1.0
C      1  0.5089840000000  0.4653500000000  0.5297090000000 1.0
C      1  0.4823500000000  0.5157210000000  0.5103000000000 1.0
C      1  0.5015270000000  0.5060200000000  0.4673220000000 1.0
C      1  0.5342620000000  0.5075270000000  0.5029740000000 1.0
C      1  0.5920910000000  0.5078470000000  0.6143250000000 1.0
C      1  0.3543610000000  0.5541790000000  0.5127030000000 1.0
C      1  0.5744180000000  0.5308520000000  0.3644300000000 1.0
C      1  0.5243510000000  0.3851260000000  0.4404760000000 1.0
C      1  0.5646710000000  0.3801880000000  0.5486080000000 1.0
C      1  0.4538560000000  0.3871890000000  0.4829750000000 1.0
C      1  0.5695040000000  0.5579750000000  0.4087040000000 1.0
C      1  0.5510030000000  0.5410620000000  0.6099470000000 1.0
C      1  0.3939950000000  0.5745870000000  0.4849570000000 1.0
C      1  0.5860420000000  0.5605910000000  0.4775530000000 1.0
C      1  0.4863340000000  0.5496670000000  0.5830730000000 1.0
C      1  0.4351140000000  0.5466310000000  0.4439430000000 1.0
C      1  0.5753110000000  0.5361530000000  0.5463320000000 1.0
C      1  0.4291570000000  0.5404310000000  0.5321920000000 1.0
C      1  0.5024490000000  0.5337330000000  0.4175510000000 1.0
C      1  0.5888780000000  0.6248280000000  0.5149610000000 1.0
C      1  0.4648640000000  0.6200650000000  0.5773070000000 1.0
C      1  0.4402510000000  0.5898750000000  0.4810130000000 1.0
C      1  0.4737540000000  0.3988990000000  0.4962250000000 1.0
C      1  0.5013930000000  0.3986430000000  0.4369930000000 1.0
C      1  0.5758980000000  0.4007370000000  0.5351390000000 1.0
C      1  0.5059190000000  0.4439620000000  0.4214380000000 1.0
C      1  0.5711570000000  0.4503780000000  0.5371400000000 1.0
C      1  0.4653330000000  0.4400480000000  0.5233890000000 1.0
C      1  0.5215640000000  0.6213660000000  0.4821110000000 1.0
C      1  0.5102990000000  0.6220190000000  0.5286360000000 1.0
C      1  0.4763390000000  0.6231060000000  0.4959870000000 1.0
C      1  0.5828390000000  0.4263900000000  0.4476990000000 1.0
C      1  0.5266570000000  0.4121230000000  0.5943210000000 1.0
C      1  0.3951590000000  0.4261480000000  0.4706100000000 1.0
C      1  0.5705620000000  0.4282060000000  0.5810780000000 1.0
C      1  0.4132770000000  0.4351650000000  0.5149380000000 1.0
C      1  0.5526850000000  0.4277840000000  0.4082110000000 1.0
C      1  0.5634590000000  0.4244540000000  0.5254030000000 1.0
C      1  0.4853860000000  0.4196610000000  0.5117560000000 1.0
C      1  0.4887300000000  0.4234660000000  0.4317120000000 1.0
C      1  0.5709160000000  0.5235020000000  0.6205950000000 1.0
C      1  0.3709250000000  0.5710520000000  0.5004580000000 1.0
C      1  0.5774190000000  0.5499820000000  0.3827670000000 1.0
C      1  0.3791570000000  0.5835320000000  0.4396390000000 1.0
C      1  0.6138010000000  0.5695240000000  0.4230240000000 1.0
C      1  0.5169810000000  0.5482300000000  0.6431310000000 1.0
C      1  0.3831380000000  0.4991590000000  0.4320350000000 1.0
C      1  0.5936640000000  0.4992580000000  0.4818110000000 1.0
C      1  0.4768190000000  0.4868700000000  0.5836730000000 1.0
C      1  0.4422730000000  0.5259110000000  0.4904460000000 1.0
C      1  0.5361940000000  0.5288090000000  0.4504930000000 1.0
C      1  0.5278150000000  0.5345080000000  0.5490970000000 1.0
C      1  0.5614580000000  0.5579910000000  0.5896530000000 1.0
C      1  0.4193380000000  0.5795000000000  0.4974100000000 1.0
C      1  0.5420130000000  0.5649840000000  0.4108280000000 1.0
C      1  0.5068130000000  0.4637830000000  0.4994720000000 1.0
C      1  0.5068270000000  0.5129610000000  0.4953160000000 1.0
END
