TITL C-3201375-1262-1740 -3.82778898229766e-07 125000 -641.609495004477 0 0 102 (C1) n - 1
REM
REM in /home/nfs/bkarasulu/CARBON/AIRSS/Generating-Clusters/LCBOP/Higher-Symm/SD-CG/FIRE-CG
REM
REM
REM
REM
REM
REM ./C.cell (b20cbc046b6831c77cfcea5457e17084)
REM AIRSS Version 0.9.1 bugfix July 2018 build 013d7b7c2542+ Fri, 06 Jul 2018 19:26:36 +0100
REM compiler GCC version 9.2.1 20190827 (Red Hat 9.2.1-1)
REM options -cpp -mtune=generic -march=x86-64 -g -O0 -fpre-include=/usr/include/finclude/math-vector-fortran.h
REM seed -2146713437 1169302376 -1681022003 -1286427547 -89569899 -990953820 -1060383751 1088674159 2055955479 -445259871 2069431777 1216630018 1801293232 -830768681 -1970456675 -1385697996 1203027661 236748460 1478064784 -823470761 -1055817216 955261175 -306750116 1960631826 -371966886 1524740651 -1666486916 -194039953 1862205323 -1428000214 268417662 2003472213 1933738744
REM
CELL 1.54180   50.00000   50.00000   50.00000   90.00000   90.00000   90.00000
LATT -1
SFAC C  
C      1  0.4779670000000  0.5440620000000  0.5154000000000 1.0
C      1  0.4936920000000  0.5381780000000  0.4702910000000 1.0
C      1  0.5227720000000  0.5444360000000  0.5133030000000 1.0
C      1  0.5337810000000  0.4300250000000  0.5224480000000 1.0
C      1  0.4578180000000  0.4221040000000  0.5152810000000 1.0
C      1  0.5129350000000  0.4119310000000  0.4563810000000 1.0
C      1  0.4959670000000  0.4331790000000  0.4474960000000 1.0
C      1  0.5610070000000  0.4351950000000  0.5301960000000 1.0
C      1  0.4347660000000  0.4258130000000  0.5314410000000 1.0
C      1  0.5374690000000  0.5690020000000  0.5182950000000 1.0
C      1  0.4735180000000  0.5702850000000  0.5261670000000 1.0
C      1  0.4887170000000  0.5672130000000  0.4631810000000 1.0
C      1  0.5155640000000  0.4962080000000  0.5893610000000 1.0
C      1  0.4228720000000  0.4960720000000  0.4674120000000 1.0
C      1  0.5613290000000  0.4949430000000  0.4374450000000 1.0
C      1  0.4862650000000  0.4835340000000  0.5017150000000 1.0
C      1  0.5419890000000  0.4928080000000  0.4998680000000 1.0
C      1  0.4920980000000  0.4850800000000  0.5298860000000 1.0
C      1  0.4228880000000  0.4838880000000  0.4931140000000 1.0
C      1  0.5347900000000  0.4846460000000  0.4381790000000 1.0
C      1  0.5367830000000  0.4891940000000  0.5705260000000 1.0
C      1  0.4994440000000  0.5179190000000  0.4492630000000 1.0
C      1  0.5519940000000  0.5062770000000  0.5233930000000 1.0
C      1  0.4315310000000  0.5246870000000  0.5194800000000 1.0
C      1  0.4429150000000  0.4996220000000  0.5614410000000 1.0
C      1  0.4801840000000  0.5063510000000  0.4117440000000 1.0
C      1  0.5941950000000  0.4999590000000  0.5061180000000 1.0
C      1  0.5311830000000  0.5434510000000  0.5942800000000 1.0
C      1  0.4208490000000  0.5391960000000  0.4949250000000 1.0
C      1  0.5363530000000  0.5358360000000  0.4238850000000 1.0
C      1  0.4771570000000  0.5654150000000  0.5556520000000 1.0
C      1  0.4630080000000  0.5727730000000  0.4531400000000 1.0
C      1  0.5568100000000  0.5671830000000  0.4948490000000 1.0
C      1  0.6084500000000  0.4684000000000  0.5711680000000 1.0
C      1  0.3791010000000  0.4621170000000  0.5496370000000 1.0
C      1  0.4892020000000  0.4369280000000  0.3816790000000 1.0
C      1  0.4169570000000  0.5353200000000  0.4436800000000 1.0
C      1  0.5818340000000  0.5367530000000  0.4437510000000 1.0
C      1  0.4878510000000  0.5309740000000  0.6072520000000 1.0
C      1  0.5667740000000  0.4539820000000  0.5509780000000 1.0
C      1  0.4170130000000  0.4466420000000  0.5235110000000 1.0
C      1  0.5074330000000  0.4472160000000  0.4253000000000 1.0
C      1  0.5400090000000  0.4161680000000  0.4568300000000 1.0
C      1  0.5200020000000  0.4238220000000  0.5467040000000 1.0
C      1  0.4498170000000  0.4190540000000  0.4878490000000 1.0
C      1  0.4930700000000  0.5904790000000  0.5192790000000 1.0
C      1  0.5121500000000  0.5822050000000  0.4698570000000 1.0
C      1  0.5181260000000  0.5849600000000  0.5336520000000 1.0
C      1  0.5622490000000  0.5218630000000  0.4286410000000 1.0
C      1  0.5143610000000  0.5221280000000  0.6017350000000 1.0
C      1  0.4156080000000  0.5238470000000  0.4694620000000 1.0
C      1  0.5915750000000  0.5020700000000  0.4769920000000 1.0
C      1  0.4656070000000  0.4986450000000  0.5799290000000 1.0
C      1  0.4549950000000  0.5070790000000  0.4284820000000 1.0
C      1  0.4790560000000  0.4403560000000  0.5197550000000 1.0
C      1  0.4933440000000  0.4541680000000  0.4944880000000 1.0
C      1  0.5240070000000  0.4473550000000  0.5012400000000 1.0
C      1  0.5346770000000  0.5034080000000  0.5458100000000 1.0
C      1  0.4412340000000  0.4998780000000  0.5075250000000 1.0
C      1  0.5185450000000  0.4982830000000  0.4571350000000 1.0
C      1  0.4412510000000  0.5266540000000  0.5475540000000 1.0
C      1  0.5026810000000  0.5228320000000  0.4219320000000 1.0
C      1  0.5756190000000  0.5215730000000  0.5158060000000 1.0
C      1  0.5070590000000  0.5073930000000  0.5382690000000 1.0
C      1  0.4669390000000  0.5026450000000  0.4951260000000 1.0
C      1  0.5303950000000  0.5092470000000  0.4804510000000 1.0
C      1  0.5869070000000  0.5310670000000  0.4711650000000 1.0
C      1  0.4686130000000  0.5269540000000  0.5873450000000 1.0
C      1  0.4415630000000  0.5335040000000  0.4293830000000 1.0
C      1  0.4057680000000  0.4629690000000  0.5438640000000 1.0
C      1  0.4941060000000  0.4550300000000  0.4015570000000 1.0
C      1  0.5919150000000  0.4674680000000  0.5493840000000 1.0
C      1  0.4860570000000  0.4819200000000  0.3989050000000 1.0
C      1  0.5996570000000  0.4799050000000  0.5250140000000 1.0
C      1  0.4233190000000  0.4800720000000  0.5577030000000 1.0
C      1  0.4557350000000  0.5580660000000  0.4298770000000 1.0
C      1  0.5758280000000  0.5443230000000  0.4956500000000 1.0
C      1  0.4600440000000  0.5438590000000  0.5650580000000 1.0
C      1  0.5243310000000  0.5648240000000  0.5794650000000 1.0
C      1  0.4273820000000  0.5665100000000  0.4899910000000 1.0
C      1  0.5391040000000  0.5582520000000  0.4413160000000 1.0
C      1  0.5623990000000  0.4598040000000  0.4703110000000 1.0
C      1  0.4940250000000  0.4579060000000  0.5680890000000 1.0
C      1  0.4549210000000  0.4594220000000  0.4598620000000 1.0
C      1  0.4745560000000  0.5295750000000  0.4911480000000 1.0
C      1  0.5220710000000  0.5377720000000  0.4840270000000 1.0
C      1  0.5017230000000  0.5325180000000  0.5275820000000 1.0
C      1  0.5195680000000  0.4440490000000  0.5671530000000 1.0
C      1  0.4370810000000  0.4423250000000  0.4767980000000 1.0
C      1  0.5502820000000  0.4419840000000  0.4506280000000 1.0
C      1  0.4447210000000  0.4861310000000  0.4492650000000 1.0
C      1  0.5769030000000  0.4835810000000  0.4598810000000 1.0
C      1  0.4898980000000  0.4822110000000  0.5834310000000 1.0
C      1  0.5436250000000  0.4613700000000  0.5674490000000 1.0
C      1  0.4209140000000  0.4563570000000  0.4964500000000 1.0
C      1  0.5329600000000  0.4572500000000  0.4326440000000 1.0
C      1  0.5067530000000  0.5738940000000  0.5595420000000 1.0
C      1  0.4428670000000  0.5793890000000  0.4719850000000 1.0
C      1  0.5363490000000  0.5635260000000  0.4710830000000 1.0
C      1  0.4819990000000  0.4496210000000  0.4661390000000 1.0
C      1  0.5444140000000  0.4656420000000  0.4922640000000 1.0
C      1  0.4840380000000  0.4600400000000  0.5415800000000 1.0
END
