TITL C-3201378-2706-282 -7.59406615860188e-08 125000 -46.6024021146555 0 0 8 (D8h) n - 1
REM
REM in /home/nfs/bkarasulu/CARBON/AIRSS/Generating-Clusters/LCBOP/Higher-Symm/SD-CG/FIRE-CG
REM
REM
REM
REM
REM
REM ./C.cell (b20cbc046b6831c77cfcea5457e17084)
REM AIRSS Version 0.9.1 bugfix July 2018 build 013d7b7c2542+ Fri, 06 Jul 2018 19:26:36 +0100
REM compiler GCC version 9.2.1 20190827 (Red Hat 9.2.1-1)
REM options -cpp -mtune=generic -march=x86-64 -g -O0 -fpre-include=/usr/include/finclude/math-vector-fortran.h
REM seed -913753795 -2074008615 80509000 1730647846 -723961119 -1446305392 -161298393 1732259794 -512656069 -1649049554 -1182095400 -2020584528 1596567000 -237480710 1188485511 955901109 -74201203 152396100 1883142402 -371920135 -638499358 -1910876894 -1966049752 1389871115 -1248470357 31858572 1826166787 1899117389 274677478 -212686944 -1048062000 1889704474 1816043263
REM
CELL 1.54180   50.00000   50.00000   50.00000   90.00000   90.00000   90.00000
LATT -1
SFAC C  
C      1  0.5000000000000  0.5327890000000  0.5126730000000 1.0
C      1  0.5000000000000  0.5321470000000  0.4857750000000 1.0
C      1  0.5000000000000  0.5126730000000  0.4672110000000 1.0
C      1  0.5000000000000  0.4857750000000  0.4678530000000 1.0
C      1  0.5000000000000  0.4672110000000  0.4873270000000 1.0
C      1  0.5000000000000  0.4678530000000  0.5142250000000 1.0
C      1  0.5000000000000  0.4873270000000  0.5327890000000 1.0
C      1  0.5000000000000  0.5142250000000  0.5321470000000 1.0
END
