TITL C-3201375-1262-988 -12357.3512374758 125000 -850.484444751777 0 0 140 (C1) n - 1
REM
REM in /home/nfs/bkarasulu/CARBON/AIRSS/Generating-Clusters/LCBOP/Higher-Symm/SD-CG/FIRE-CG
REM
REM
REM
REM
REM
REM ./C.cell (b20cbc046b6831c77cfcea5457e17084)
REM AIRSS Version 0.9.1 bugfix July 2018 build 013d7b7c2542+ Fri, 06 Jul 2018 19:26:36 +0100
REM compiler GCC version 9.2.1 20190827 (Red Hat 9.2.1-1)
REM options -cpp -mtune=generic -march=x86-64 -g -O0 -fpre-include=/usr/include/finclude/math-vector-fortran.h
REM seed -211605944 1067158782 -1595059192 -1095404640 1868101711 -1405857494 -658751511 -1008024161 1074067809 28770471 -1612087510 -1855252445 -640124646 -2026388545 347276527 -304445749 91096431 -2142679928 415704816 -1103646983 -1420003303 1181350880 612921783 -866104238 -78210983 1235037304 -2031973175 -1781576517 -1475486974 -1940690344 212062081 -231309065 1503707702
REM
CELL 1.54180   50.00000   50.00000   50.00000   90.00000   90.00000   90.00000
LATT -1
SFAC C  
C      1  0.4563360000000  0.5405280000000  0.5792800000000 1.0
C      1  0.5404660000000  0.5871470000000  0.4991070000000 1.0
C      1  0.4589920000000  0.5388450000000  0.4211860000000 1.0
C      1  0.5307590000000  0.4671040000000  0.4310170000000 1.0
C      1  0.4652660000000  0.4167730000000  0.5008520000000 1.0
C      1  0.5470610000000  0.4562140000000  0.5757200000000 1.0
C      1  0.5919360000000  0.5097210000000  0.5245530000000 1.0
C      1  0.3996900000000  0.5305860000000  0.4917360000000 1.0
C      1  0.5932050000000  0.5081110000000  0.4769120000000 1.0
C      1  0.4075640000000  0.4867260000000  0.4719900000000 1.0
C      1  0.6008960000000  0.4661880000000  0.5031860000000 1.0
C      1  0.4072120000000  0.4892760000000  0.5197100000000 1.0
C      1  0.4851440000000  0.3981680000000  0.5072540000000 1.0
C      1  0.5196680000000  0.4528600000000  0.5837600000000 1.0
C      1  0.4734390000000  0.5394250000000  0.6013800000000 1.0
C      1  0.5142530000000  0.5990320000000  0.5013130000000 1.0
C      1  0.4845220000000  0.5447120000000  0.4106300000000 1.0
C      1  0.5175270000000  0.4649770000000  0.4045480000000 1.0
C      1  0.4946090000000  0.6223420000000  0.4351170000000 1.0
C      1  0.5102900000000  0.4837430000000  0.3866850000000 1.0
C      1  0.4920770000000  0.3831740000000  0.4838870000000 1.0
C      1  0.5073940000000  0.4283770000000  0.5752670000000 1.0
C      1  0.4900650000000  0.5223480000000  0.6138770000000 1.0
C      1  0.5080840000000  0.6098850000000  0.5266660000000 1.0
C      1  0.4015230000000  0.5533170000000  0.4722430000000 1.0
C      1  0.5952060000000  0.5060390000000  0.4475690000000 1.0
C      1  0.4080440000000  0.4578370000000  0.4646440000000 1.0
C      1  0.5998900000000  0.4427050000000  0.5214380000000 1.0
C      1  0.4076710000000  0.4885580000000  0.5495040000000 1.0
C      1  0.5909850000000  0.5380940000000  0.5336250000000 1.0
C      1  0.4292070000000  0.5833920000000  0.5053950000000 1.0
C      1  0.5744530000000  0.5520970000000  0.4302940000000 1.0
C      1  0.4363600000000  0.4547030000000  0.4221620000000 1.0
C      1  0.5689580000000  0.4121970000000  0.4910110000000 1.0
C      1  0.4360370000000  0.4610470000000  0.5830900000000 1.0
C      1  0.5613970000000  0.5382110000000  0.5759950000000 1.0
C      1  0.4664350000000  0.5004060000000  0.5554810000000 1.0
C      1  0.5345350000000  0.5458770000000  0.5234710000000 1.0
C      1  0.4610540000000  0.5519210000000  0.4670940000000 1.0
C      1  0.5439200000000  0.5121600000000  0.4364040000000 1.0
C      1  0.4617840000000  0.4518000000000  0.4745920000000 1.0
C      1  0.5402370000000  0.4469490000000  0.5293080000000 1.0
C      1  0.5487120000000  0.5193020000000  0.5144450000000 1.0
C      1  0.4470260000000  0.5305740000000  0.4851550000000 1.0
C      1  0.5473080000000  0.5163520000000  0.4640930000000 1.0
C      1  0.4511430000000  0.4788950000000  0.4814030000000 1.0
C      1  0.5533700000000  0.4670000000000  0.5102430000000 1.0
C      1  0.4541120000000  0.4875640000000  0.5312710000000 1.0
C      1  0.4755690000000  0.4436110000000  0.4482720000000 1.0
C      1  0.5292670000000  0.4214480000000  0.5153940000000 1.0
C      1  0.4789460000000  0.4796670000000  0.5733590000000 1.0
C      1  0.5214220000000  0.5489140000000  0.5513750000000 1.0
C      1  0.4711550000000  0.5759200000000  0.4847810000000 1.0
C      1  0.5318900000000  0.5335530000000  0.4216540000000 1.0
C      1  0.5234820000000  0.5169230000000  0.4781610000000 1.0
C      1  0.4754990000000  0.4934170000000  0.4892470000000 1.0
C      1  0.5297250000000  0.4762400000000  0.4963550000000 1.0
C      1  0.4774300000000  0.4820410000000  0.5163400000000 1.0
C      1  0.5251980000000  0.5036080000000  0.5053660000000 1.0
C      1  0.4708430000000  0.5206790000000  0.4967490000000 1.0
C      1  0.5030070000000  0.4988030000000  0.6106320000000 1.0
C      1  0.5040800000000  0.5962710000000  0.5496230000000 1.0
C      1  0.4935810000000  0.6101980000000  0.4581500000000 1.0
C      1  0.5084950000000  0.5104900000000  0.3864100000000 1.0
C      1  0.4923500000000  0.3946610000000  0.4590480000000 1.0
C      1  0.5029220000000  0.4111800000000  0.5545860000000 1.0
C      1  0.4223580000000  0.5610550000000  0.5536690000000 1.0
C      1  0.5791050000000  0.5813780000000  0.4727440000000 1.0
C      1  0.4222700000000  0.5094710000000  0.4170620000000 1.0
C      1  0.5695220000000  0.4364580000000  0.4384560000000 1.0
C      1  0.4126240000000  0.4257350000000  0.5291460000000 1.0
C      1  0.5824930000000  0.4873210000000  0.5761510000000 1.0
C      1  0.5748020000000  0.4628170000000  0.4912300000000 1.0
C      1  0.4339450000000  0.4808710000000  0.5140470000000 1.0
C      1  0.5657240000000  0.4980870000000  0.5261100000000 1.0
C      1  0.4256700000000  0.5341940000000  0.5040810000000 1.0
C      1  0.5677300000000  0.5201410000000  0.4821100000000 1.0
C      1  0.4336110000000  0.4988540000000  0.4690590000000 1.0
C      1  0.5815860000000  0.4831610000000  0.4349090000000 1.0
C      1  0.4169160000000  0.4360290000000  0.4826930000000 1.0
C      1  0.5878600000000  0.4477660000000  0.5475900000000 1.0
C      1  0.4175900000000  0.5131700000000  0.5617680000000 1.0
C      1  0.5814820000000  0.5603670000000  0.5166470000000 1.0
C      1  0.4152290000000  0.5482270000000  0.4464740000000 1.0
C      1  0.4019870000000  0.4263750000000  0.5044320000000 1.0
C      1  0.5984400000000  0.4684090000000  0.5644440000000 1.0
C      1  0.4063500000000  0.5389950000000  0.5567570000000 1.0
C      1  0.5939020000000  0.5708890000000  0.4932510000000 1.0
C      1  0.4056800000000  0.5279150000000  0.4286200000000 1.0
C      1  0.5884840000000  0.4557620000000  0.4356080000000 1.0
C      1  0.4869150000000  0.5352270000000  0.4629310000000 1.0
C      1  0.5099040000000  0.4767220000000  0.4538120000000 1.0
C      1  0.4898280000000  0.4457070000000  0.4961230000000 1.0
C      1  0.5136000000000  0.4635050000000  0.5359880000000 1.0
C      1  0.4898710000000  0.5135990000000  0.5408820000000 1.0
C      1  0.5085630000000  0.5481000000000  0.5058550000000 1.0
C      1  0.4450920000000  0.4294460000000  0.4853050000000 1.0
C      1  0.5588740000000  0.4434240000000  0.5526300000000 1.0
C      1  0.4456950000000  0.5155040000000  0.5697890000000 1.0
C      1  0.5529890000000  0.5685260000000  0.5178700000000 1.0
C      1  0.4445530000000  0.5530390000000  0.4424410000000 1.0
C      1  0.5533490000000  0.4871490000000  0.4289970000000 1.0
C      1  0.5839560000000  0.5411760000000  0.5612690000000 1.0
C      1  0.4098060000000  0.5772620000000  0.4868730000000 1.0
C      1  0.5924840000000  0.5317700000000  0.4342100000000 1.0
C      1  0.4137700000000  0.4529870000000  0.4370150000000 1.0
C      1  0.5901600000000  0.4192090000000  0.5070390000000 1.0
C      1  0.4178160000000  0.4630230000000  0.5605980000000 1.0
C      1  0.4569000000000  0.5768960000000  0.5102440000000 1.0
C      1  0.5456550000000  0.5559090000000  0.4330130000000 1.0
C      1  0.4629580000000  0.4622320000000  0.4292890000000 1.0
C      1  0.5406990000000  0.4177900000000  0.4888020000000 1.0
C      1  0.4629550000000  0.4563220000000  0.5729590000000 1.0
C      1  0.5343280000000  0.5308190000000  0.5700840000000 1.0
C      1  0.4872470000000  0.4556650000000  0.5230820000000 1.0
C      1  0.5149410000000  0.4958270000000  0.5387700000000 1.0
C      1  0.4833940000000  0.5349380000000  0.5198710000000 1.0
C      1  0.5112470000000  0.5433740000000  0.4758220000000 1.0
C      1  0.4868970000000  0.5000340000000  0.4565960000000 1.0
C      1  0.5128450000000  0.4582360000000  0.4795450000000 1.0
C      1  0.5345140000000  0.5642290000000  0.4580210000000 1.0
C      1  0.4675130000000  0.4913710000000  0.4328600000000 1.0
C      1  0.5246910000000  0.4322030000000  0.4657910000000 1.0
C      1  0.4610220000000  0.4444950000000  0.5455820000000 1.0
C      1  0.5287220000000  0.5004270000000  0.5679700000000 1.0
C      1  0.4712370000000  0.5605800000000  0.5349010000000 1.0
C      1  0.4988720000000  0.5685790000000  0.5507690000000 1.0
C      1  0.4931270000000  0.5946670000000  0.4814880000000 1.0
C      1  0.5091710000000  0.5318600000000  0.4048960000000 1.0
C      1  0.4970920000000  0.4221530000000  0.4526480000000 1.0
C      1  0.5061660000000  0.4071280000000  0.5263050000000 1.0
C      1  0.5060500000000  0.4819540000000  0.5861650000000 1.0
C      1  0.4506400000000  0.5110910000000  0.4198720000000 1.0
C      1  0.5418740000000  0.4411180000000  0.4427260000000 1.0
C      1  0.4306190000000  0.4425400000000  0.5425290000000 1.0
C      1  0.5543310000000  0.4844280000000  0.5760600000000 1.0
C      1  0.4506670000000  0.5592830000000  0.5580340000000 1.0
C      1  0.5504610000000  0.5819080000000  0.4730660000000 1.0
C      1  0.6044170000000  0.4957520000000  0.5014850000000 1.0
C      1  0.3954770000000  0.5011980000000  0.4949480000000 1.0
END
