TITL C-3201379-3821-84 2.27995595689543e-07 125000 -702.682324757673 0 0 110 (C1) n - 1
REM
REM in /home/nfs/bkarasulu/CARBON/AIRSS/Generating-Clusters/LCBOP/Higher-Symm/SD-CG/FIRE-CG
REM
REM
REM
REM
REM
REM ./C.cell (b20cbc046b6831c77cfcea5457e17084)
REM AIRSS Version 0.9.1 bugfix July 2018 build 013d7b7c2542+ Fri, 06 Jul 2018 19:26:36 +0100
REM compiler GCC version 9.2.1 20190827 (Red Hat 9.2.1-1)
REM options -cpp -mtune=generic -march=x86-64 -g -O0 -fpre-include=/usr/include/finclude/math-vector-fortran.h
REM seed -1969216118 -1009982317 -1892239926 -25579025 -187494140 2136065563 -176711372 -410180048 -1035498670 -501207397 818770350 2007943893 768275308 -181787740 1199561292 -1825161895 -499251299 973625758 751471209 -1221720387 -1069475726 -1662956293 -1431739967 -1336732963 -929967030 1504284814 1251302634 747740434 -252614517 -326424797 1924838781 446329355 -834291010
REM
CELL 1.54180   50.00000   50.00000   50.00000   90.00000   90.00000   90.00000
LATT -1
SFAC C  
C      1  0.4861770000000  0.6142360000000  0.4881690000000 1.0
C      1  0.4846030000000  0.5507850000000  0.3978920000000 1.0
C      1  0.4894700000000  0.4370550000000  0.4041720000000 1.0
C      1  0.4891750000000  0.3850270000000  0.5060980000000 1.0
C      1  0.4848440000000  0.4532440000000  0.6027630000000 1.0
C      1  0.4892180000000  0.5602610000000  0.5989040000000 1.0
C      1  0.5129890000000  0.6145700000000  0.4891130000000 1.0
C      1  0.5113940000000  0.5511700000000  0.3979060000000 1.0
C      1  0.5162680000000  0.4369790000000  0.4046080000000 1.0
C      1  0.5159770000000  0.3850150000000  0.5052350000000 1.0
C      1  0.5116380000000  0.4525400000000  0.6032070000000 1.0
C      1  0.5159130000000  0.5621750000000  0.5970580000000 1.0
C      1  0.4700070000000  0.4054050000000  0.5043000000000 1.0
C      1  0.4655020000000  0.4591010000000  0.5832960000000 1.0
C      1  0.4689740000000  0.5514660000000  0.5815400000000 1.0
C      1  0.4668550000000  0.5947430000000  0.4940580000000 1.0
C      1  0.4646850000000  0.5427500000000  0.4159620000000 1.0
C      1  0.4695490000000  0.4486470000000  0.4201340000000 1.0
C      1  0.5352520000000  0.4054070000000  0.5044610000000 1.0
C      1  0.5321950000000  0.4579870000000  0.5849160000000 1.0
C      1  0.5344460000000  0.5510420000000  0.5791870000000 1.0
C      1  0.5332240000000  0.5956030000000  0.4935270000000 1.0
C      1  0.5317700000000  0.5439390000000  0.4157570000000 1.0
C      1  0.5353850000000  0.4495230000000  0.4208470000000 1.0
C      1  0.4870700000000  0.4861590000000  0.4478150000000 1.0
C      1  0.4887030000000  0.4481100000000  0.4867830000000 1.0
C      1  0.4866970000000  0.4636990000000  0.5385900000000 1.0
C      1  0.4859100000000  0.5151290000000  0.5519660000000 1.0
C      1  0.4866780000000  0.5535630000000  0.5124490000000 1.0
C      1  0.4850050000000  0.5384170000000  0.4612660000000 1.0
C      1  0.5150410000000  0.4856910000000  0.4483850000000 1.0
C      1  0.5167380000000  0.4481690000000  0.4871630000000 1.0
C      1  0.5145980000000  0.4631880000000  0.5388060000000 1.0
C      1  0.5142470000000  0.5146220000000  0.5520280000000 1.0
C      1  0.5142810000000  0.5536230000000  0.5125070000000 1.0
C      1  0.5131520000000  0.5385160000000  0.4615080000000 1.0
C      1  0.5480900000000  0.5211540000000  0.4112370000000 1.0
C      1  0.5515720000000  0.4347790000000  0.4389130000000 1.0
C      1  0.5485990000000  0.4129830000000  0.5282970000000 1.0
C      1  0.5495420000000  0.4802190000000  0.5883070000000 1.0
C      1  0.5491850000000  0.5665110000000  0.5604470000000 1.0
C      1  0.5496450000000  0.5869160000000  0.4720360000000 1.0
C      1  0.4499630000000  0.5188610000000  0.4117230000000 1.0
C      1  0.4543750000000  0.4328600000000  0.4381880000000 1.0
C      1  0.4542580000000  0.4134120000000  0.5264990000000 1.0
C      1  0.4480280000000  0.4814120000000  0.5856470000000 1.0
C      1  0.4570320000000  0.5705450000000  0.5643070000000 1.0
C      1  0.4485720000000  0.5846710000000  0.4747100000000 1.0
C      1  0.5350020000000  0.4726170000000  0.4915370000000 1.0
C      1  0.5344510000000  0.4783610000000  0.5207860000000 1.0
C      1  0.5330730000000  0.5066000000000  0.5290570000000 1.0
C      1  0.5332310000000  0.5294650000000  0.5090950000000 1.0
C      1  0.5317210000000  0.5226060000000  0.4799390000000 1.0
C      1  0.5328180000000  0.4945310000000  0.4713070000000 1.0
C      1  0.4698810000000  0.4717510000000  0.4908610000000 1.0
C      1  0.4689640000000  0.4788140000000  0.5194050000000 1.0
C      1  0.4673570000000  0.5076730000000  0.5281870000000 1.0
C      1  0.4675780000000  0.5307020000000  0.5097420000000 1.0
C      1  0.4656970000000  0.5226530000000  0.4804990000000 1.0
C      1  0.4687080000000  0.4935960000000  0.4708900000000 1.0
C      1  0.4172000000000  0.4933130000000  0.4696850000000 1.0
C      1  0.4185310000000  0.4705150000000  0.4868470000000 1.0
C      1  0.4178940000000  0.4735780000000  0.5152790000000 1.0
C      1  0.4152650000000  0.4995160000000  0.5265360000000 1.0
C      1  0.4121620000000  0.5457890000000  0.5201560000000 1.0
C      1  0.4151500000000  0.5189570000000  0.4816330000000 1.0
C      1  0.5841670000000  0.4990940000000  0.4695100000000 1.0
C      1  0.5880900000000  0.4739360000000  0.4818010000000 1.0
C      1  0.5913020000000  0.4620990000000  0.5273200000000 1.0
C      1  0.5870990000000  0.5121650000000  0.5337450000000 1.0
C      1  0.5831270000000  0.5286950000000  0.5111140000000 1.0
C      1  0.5831970000000  0.5244370000000  0.4828460000000 1.0
C      1  0.4709820000000  0.4766650000000  0.4253640000000 1.0
C      1  0.4727390000000  0.4239930000000  0.4828500000000 1.0
C      1  0.4699810000000  0.4486170000000  0.5571340000000 1.0
C      1  0.4680530000000  0.5240980000000  0.5736060000000 1.0
C      1  0.4721740000000  0.5783700000000  0.5168680000000 1.0
C      1  0.4666890000000  0.5522710000000  0.4426940000000 1.0
C      1  0.5318010000000  0.4773220000000  0.4260150000000 1.0
C      1  0.5337710000000  0.4246030000000  0.4834800000000 1.0
C      1  0.5295840000000  0.4475780000000  0.5584770000000 1.0
C      1  0.5315330000000  0.5231360000000  0.5739870000000 1.0
C      1  0.5305660000000  0.5779520000000  0.5157620000000 1.0
C      1  0.5299040000000  0.5533040000000  0.4426390000000 1.0
C      1  0.5599050000000  0.5442120000000  0.5179300000000 1.0
C      1  0.5640080000000  0.5407860000000  0.4704100000000 1.0
C      1  0.5644190000000  0.4975540000000  0.4501300000000 1.0
C      1  0.5658170000000  0.4572830000000  0.4792120000000 1.0
C      1  0.5643960000000  0.4584120000000  0.5318480000000 1.0
C      1  0.5657790000000  0.5056560000000  0.5499470000000 1.0
C      1  0.4383500000000  0.5513390000000  0.5250240000000 1.0
C      1  0.4372180000000  0.5358170000000  0.4736420000000 1.0
C      1  0.4366680000000  0.4927360000000  0.4501550000000 1.0
C      1  0.4386310000000  0.4532970000000  0.4790480000000 1.0
C      1  0.4374430000000  0.4588060000000  0.5277230000000 1.0
C      1  0.4355650000000  0.5057340000000  0.5454040000000 1.0
C      1  0.5515440000000  0.4364140000000  0.5435550000000 1.0
C      1  0.5537730000000  0.5047240000000  0.5749210000000 1.0
C      1  0.5524630000000  0.5682250000000  0.5324600000000 1.0
C      1  0.5526290000000  0.5626540000000  0.4578510000000 1.0
C      1  0.5529630000000  0.4969490000000  0.4249410000000 1.0
C      1  0.5554920000000  0.4343220000000  0.4669310000000 1.0
C      1  0.4491080000000  0.4372620000000  0.5406740000000 1.0
C      1  0.4450620000000  0.5061370000000  0.5719830000000 1.0
C      1  0.4524390000000  0.5721470000000  0.5367470000000 1.0
C      1  0.4446760000000  0.5608160000000  0.4599810000000 1.0
C      1  0.4478480000000  0.4939760000000  0.4248710000000 1.0
C      1  0.4506460000000  0.4320000000000  0.4661230000000 1.0
C      1  0.6037490000000  0.4691030000000  0.5044900000000 1.0
C      1  0.4068960000000  0.5207050000000  0.5090000000000 1.0
END
