TITL C-3201379-3821-2095 1.02649954743234e-06 125000 -1229.58925944881 0 0 195 (C1) n - 1
REM
REM in /home/nfs/bkarasulu/CARBON/AIRSS/Generating-Clusters/LCBOP/Higher-Symm/SD-CG/FIRE-CG
REM
REM
REM
REM
REM
REM ./C.cell (b20cbc046b6831c77cfcea5457e17084)
REM AIRSS Version 0.9.1 bugfix July 2018 build 013d7b7c2542+ Fri, 06 Jul 2018 19:26:36 +0100
REM compiler GCC version 9.2.1 20190827 (Red Hat 9.2.1-1)
REM options -cpp -mtune=generic -march=x86-64 -g -O0 -fpre-include=/usr/include/finclude/math-vector-fortran.h
REM seed -131832991 1333147428 -1262931695 1879658049 -1542785076 1844924997 133162454 425991006 -1485306667 -1841206115 -1110151575 401569444 753121445 158261278 786498553 32487866 1774089035 -957674521 1562908981 -1295862134 1757501176 222396970 -445642749 1934546542 -2088684662 1218543581 -2118972441 -809388410 -852766576 -648562009 95245631 1986462798 -1835808531
REM
CELL 1.54180   50.00000   50.00000   50.00000   90.00000   90.00000   90.00000
LATT -1
SFAC C  
C      1  0.5150130000000  0.4892320000000  0.4346450000000 1.0
C      1  0.4393080000000  0.4926230000000  0.4511040000000 1.0
C      1  0.4507870000000  0.4899110000000  0.5520810000000 1.0
C      1  0.5258140000000  0.4901150000000  0.5586500000000 1.0
C      1  0.5630700000000  0.4904800000000  0.4928970000000 1.0
C      1  0.5307900000000  0.5131470000000  0.4385700000000 1.0
C      1  0.4517800000000  0.5172880000000  0.4452440000000 1.0
C      1  0.4383710000000  0.5128930000000  0.5391120000000 1.0
C      1  0.5117530000000  0.5134130000000  0.5679240000000 1.0
C      1  0.5665970000000  0.5134170000000  0.5096490000000 1.0
C      1  0.4007830000000  0.5161600000000  0.5840070000000 1.0
C      1  0.5487810000000  0.5171140000000  0.6203420000000 1.0
C      1  0.6279790000000  0.5169530000000  0.4942010000000 1.0
C      1  0.5389030000000  0.5168140000000  0.3749020000000 1.0
C      1  0.3994180000000  0.5134100000000  0.4257950000000 1.0
C      1  0.4006680000000  0.4864420000000  0.5881930000000 1.0
C      1  0.5482670000000  0.4869200000000  0.6200820000000 1.0
C      1  0.6277220000000  0.4868000000000  0.4940930000000 1.0
C      1  0.5389900000000  0.4866100000000  0.3746610000000 1.0
C      1  0.3989510000000  0.4833200000000  0.4259970000000 1.0
C      1  0.5180520000000  0.5677630000000  0.5192490000000 1.0
C      1  0.5232220000000  0.5676740000000  0.4884410000000 1.0
C      1  0.4957990000000  0.5671390000000  0.4739600000000 1.0
C      1  0.4735520000000  0.5667860000000  0.4956050000000 1.0
C      1  0.4870780000000  0.5674700000000  0.5238610000000 1.0
C      1  0.5176280000000  0.4323940000000  0.5148090000000 1.0
C      1  0.5200720000000  0.4316430000000  0.4835810000000 1.0
C      1  0.4923780000000  0.4304020000000  0.4715510000000 1.0
C      1  0.4742470000000  0.4299550000000  0.4956320000000 1.0
C      1  0.4876740000000  0.4320060000000  0.5229130000000 1.0
C      1  0.4760560000000  0.5416850000000  0.5349970000000 1.0
C      1  0.5252740000000  0.5418840000000  0.5321530000000 1.0
C      1  0.5376060000000  0.5417740000000  0.4850340000000 1.0
C      1  0.4971440000000  0.5412250000000  0.4588260000000 1.0
C      1  0.4595390000000  0.5407590000000  0.4879660000000 1.0
C      1  0.4812190000000  0.4572580000000  0.5364480000000 1.0
C      1  0.5295270000000  0.4597040000000  0.5212750000000 1.0
C      1  0.5304910000000  0.4591870000000  0.4721910000000 1.0
C      1  0.4877910000000  0.4550460000000  0.4554310000000 1.0
C      1  0.4410650000000  0.4715240000000  0.4919450000000 1.0
C      1  0.4717400000000  0.5144640000000  0.4237940000000 1.0
C      1  0.4207810000000  0.5083660000000  0.5152620000000 1.0
C      1  0.4852780000000  0.5132320000000  0.5802080000000 1.0
C      1  0.5670130000000  0.5134420000000  0.5388300000000 1.0
C      1  0.5584210000000  0.5136070000000  0.4479700000000 1.0
C      1  0.4887900000000  0.4916970000000  0.4226290000000 1.0
C      1  0.4195160000000  0.4811500000000  0.5066310000000 1.0
C      1  0.4681010000000  0.4916520000000  0.5748530000000 1.0
C      1  0.5539800000000  0.4924510000000  0.5523780000000 1.0
C      1  0.5667040000000  0.4923110000000  0.4644520000000 1.0
C      1  0.6109900000000  0.4762700000000  0.5164000000000 1.0
C      1  0.5543200000000  0.4756350000000  0.3978150000000 1.0
C      1  0.4230230000000  0.4725900000000  0.4111470000000 1.0
C      1  0.3978840000000  0.4723610000000  0.5624520000000 1.0
C      1  0.5213360000000  0.4768130000000  0.6120430000000 1.0
C      1  0.6140440000000  0.5278130000000  0.5178160000000 1.0
C      1  0.5549230000000  0.5276130000000  0.3972450000000 1.0
C      1  0.4215740000000  0.5237480000000  0.4089780000000 1.0
C      1  0.3933250000000  0.5229880000000  0.5562850000000 1.0
C      1  0.5220460000000  0.5284810000000  0.6153170000000 1.0
C      1  0.4852150000000  0.5576500000000  0.4073510000000 1.0
C      1  0.4102480000000  0.5530050000000  0.4939820000000 1.0
C      1  0.4671850000000  0.5575930000000  0.5882670000000 1.0
C      1  0.5706220000000  0.5564780000000  0.5607080000000 1.0
C      1  0.5798650000000  0.5568830000000  0.4526880000000 1.0
C      1  0.4883980000000  0.4460840000000  0.4074960000000 1.0
C      1  0.3909870000000  0.4438170000000  0.5088710000000 1.0
C      1  0.4611950000000  0.4454130000000  0.5879180000000 1.0
C      1  0.5642020000000  0.4469220000000  0.5615560000000 1.0
C      1  0.5791300000000  0.4469640000000  0.4579190000000 1.0
C      1  0.5337530000000  0.4425510000000  0.5694210000000 1.0
C      1  0.5756520000000  0.4426930000000  0.4894460000000 1.0
C      1  0.5178020000000  0.4410230000000  0.4200080000000 1.0
C      1  0.4331390000000  0.4438390000000  0.4507850000000 1.0
C      1  0.4426070000000  0.4406240000000  0.5625370000000 1.0
C      1  0.5377460000000  0.5598350000000  0.5747070000000 1.0
C      1  0.5816720000000  0.5598110000000  0.4888320000000 1.0
C      1  0.5153900000000  0.5599560000000  0.4180340000000 1.0
C      1  0.4247130000000  0.5604830000000  0.4692170000000 1.0
C      1  0.4494890000000  0.5616660000000  0.5649580000000 1.0
C      1  0.5626930000000  0.5886320000000  0.5237740000000 1.0
C      1  0.5419240000000  0.5885800000000  0.4482330000000 1.0
C      1  0.4616330000000  0.5851120000000  0.4442220000000 1.0
C      1  0.4353000000000  0.5845320000000  0.5221890000000 1.0
C      1  0.4987370000000  0.5889130000000  0.5679700000000 1.0
C      1  0.5605230000000  0.4131330000000  0.5241080000000 1.0
C      1  0.5439390000000  0.4116030000000  0.4475360000000 1.0
C      1  0.4650320000000  0.4116320000000  0.4390990000000 1.0
C      1  0.4327130000000  0.4155700000000  0.5207080000000 1.0
C      1  0.4951160000000  0.4134770000000  0.5666270000000 1.0
C      1  0.5146310000000  0.5369820000000  0.4376990000000 1.0
C      1  0.4442150000000  0.5388140000000  0.4637590000000 1.0
C      1  0.4504700000000  0.5381760000000  0.5470560000000 1.0
C      1  0.5252480000000  0.5374040000000  0.5594110000000 1.0
C      1  0.5632160000000  0.5374710000000  0.4944410000000 1.0
C      1  0.5170170000000  0.4602850000000  0.4441890000000 1.0
C      1  0.4352310000000  0.4683750000000  0.4647520000000 1.0
C      1  0.4547430000000  0.4624990000000  0.5454290000000 1.0
C      1  0.5207550000000  0.4630200000000  0.5499400000000 1.0
C      1  0.5523080000000  0.4627130000000  0.4955520000000 1.0
C      1  0.4424280000000  0.4883560000000  0.6127000000000 1.0
C      1  0.5838840000000  0.4864080000000  0.5878350000000 1.0
C      1  0.6103890000000  0.4867970000000  0.4492040000000 1.0
C      1  0.4907390000000  0.4867510000000  0.3760910000000 1.0
C      1  0.3843530000000  0.4835290000000  0.4752330000000 1.0
C      1  0.4444460000000  0.5178520000000  0.6088090000000 1.0
C      1  0.5841500000000  0.5158830000000  0.5861000000000 1.0
C      1  0.6086210000000  0.5163290000000  0.4488610000000 1.0
C      1  0.4900240000000  0.5163600000000  0.3773890000000 1.0
C      1  0.3890660000000  0.5124710000000  0.4755710000000 1.0
C      1  0.5208100000000  0.3844200000000  0.4874250000000 1.0
C      1  0.4940210000000  0.3837550000000  0.4734860000000 1.0
C      1  0.4711480000000  0.3841050000000  0.4948590000000 1.0
C      1  0.4863960000000  0.3849530000000  0.5220290000000 1.0
C      1  0.5160670000000  0.3850760000000  0.5168370000000 1.0
C      1  0.5217850000000  0.6147220000000  0.4882800000000 1.0
C      1  0.4945530000000  0.6141310000000  0.4752640000000 1.0
C      1  0.4739950000000  0.6140440000000  0.4973180000000 1.0
C      1  0.4886050000000  0.6146570000000  0.5234540000000 1.0
C      1  0.5179990000000  0.6148990000000  0.5179440000000 1.0
C      1  0.4969650000000  0.5196110000000  0.4763310000000 1.0
C      1  0.4751970000000  0.5191140000000  0.4945040000000 1.0
C      1  0.4859880000000  0.5201310000000  0.5207240000000 1.0
C      1  0.5142120000000  0.5208170000000  0.5181670000000 1.0
C      1  0.5208230000000  0.5205720000000  0.4910120000000 1.0
C      1  0.4845240000000  0.4768200000000  0.4729330000000 1.0
C      1  0.4676200000000  0.4771090000000  0.4959340000000 1.0
C      1  0.4850830000000  0.4776140000000  0.5182860000000 1.0
C      1  0.5112860000000  0.4793090000000  0.5102950000000 1.0
C      1  0.5117050000000  0.4797490000000  0.4830650000000 1.0
C      1  0.3849550000000  0.4725850000000  0.4486110000000 1.0
C      1  0.4156450000000  0.4785030000000  0.6108860000000 1.0
C      1  0.5734790000000  0.4763090000000  0.6125070000000 1.0
C      1  0.6297060000000  0.4765770000000  0.4676950000000 1.0
C      1  0.5146520000000  0.4763530000000  0.3642170000000 1.0
C      1  0.3884610000000  0.5244950000000  0.4495360000000 1.0
C      1  0.4191610000000  0.5293610000000  0.6011490000000 1.0
C      1  0.5727000000000  0.5279080000000  0.6094650000000 1.0
C      1  0.6262090000000  0.5281580000000  0.4681700000000 1.0
C      1  0.5140440000000  0.5279610000000  0.3669970000000 1.0
C      1  0.5334420000000  0.5919910000000  0.5322990000000 1.0
C      1  0.5406150000000  0.5920210000000  0.4786230000000 1.0
C      1  0.4912680000000  0.5910730000000  0.4545050000000 1.0
C      1  0.4533150000000  0.5910500000000  0.4950830000000 1.0
C      1  0.4804210000000  0.5921840000000  0.5427890000000 1.0
C      1  0.5311720000000  0.4084040000000  0.5309010000000 1.0
C      1  0.5397430000000  0.4073720000000  0.4775190000000 1.0
C      1  0.4919070000000  0.4060430000000  0.4519790000000 1.0
C      1  0.4515590000000  0.4096610000000  0.4917210000000 1.0
C      1  0.4782640000000  0.4081890000000  0.5412550000000 1.0
C      1  0.4355390000000  0.5499430000000  0.4123360000000 1.0
C      1  0.3998080000000  0.5482480000000  0.5419160000000 1.0
C      1  0.5183840000000  0.5559150000000  0.6008370000000 1.0
C      1  0.5994330000000  0.5552640000000  0.5166240000000 1.0
C      1  0.5477710000000  0.5553330000000  0.4108380000000 1.0
C      1  0.4379970000000  0.4488650000000  0.4215070000000 1.0
C      1  0.4117650000000  0.4466830000000  0.5546500000000 1.0
C      1  0.5149420000000  0.4506140000000  0.5955200000000 1.0
C      1  0.5933730000000  0.4506000000000  0.5161940000000 1.0
C      1  0.5489010000000  0.4484100000000  0.4126860000000 1.0
C      1  0.5154000000000  0.5863440000000  0.4354530000000 1.0
C      1  0.4410100000000  0.5852180000000  0.4668080000000 1.0
C      1  0.4508490000000  0.5855870000000  0.5476690000000 1.0
C      1  0.5273040000000  0.5865230000000  0.5616280000000 1.0
C      1  0.5662490000000  0.5865070000000  0.4946380000000 1.0
C      1  0.5173760000000  0.4128640000000  0.4341810000000 1.0
C      1  0.4437820000000  0.4176520000000  0.4607530000000 1.0
C      1  0.4489030000000  0.4152270000000  0.5444560000000 1.0
C      1  0.5234450000000  0.4152590000000  0.5596260000000 1.0
C      1  0.5637890000000  0.4147430000000  0.4950950000000 1.0
C      1  0.4128830000000  0.5651110000000  0.5202800000000 1.0
C      1  0.4926830000000  0.5708250000000  0.5905410000000 1.0
C      1  0.5808560000000  0.5700820000000  0.5375040000000 1.0
C      1  0.5610680000000  0.5702750000000  0.4355060000000 1.0
C      1  0.4594550000000  0.5677180000000  0.4198450000000 1.0
C      1  0.4088950000000  0.4320150000000  0.5276390000000 1.0
C      1  0.4885960000000  0.4340920000000  0.5877690000000 1.0
C      1  0.5764300000000  0.4345980000000  0.5377260000000 1.0
C      1  0.5625550000000  0.4333460000000  0.4373530000000 1.0
C      1  0.4636980000000  0.4326140000000  0.4172470000000 1.0
C      1  0.5830670000000  0.5298150000000  0.4455960000000 1.0
C      1  0.4788420000000  0.5301190000000  0.4001220000000 1.0
C      1  0.4048930000000  0.5248390000000  0.4964020000000 1.0
C      1  0.4679600000000  0.5304420000000  0.5968660000000 1.0
C      1  0.5781820000000  0.5293800000000  0.5610860000000 1.0
C      1  0.5852870000000  0.4742510000000  0.4526300000000 1.0
C      1  0.4847520000000  0.4738300000000  0.4006280000000 1.0
C      1  0.3945600000000  0.4695620000000  0.4979640000000 1.0
C      1  0.4604360000000  0.4735960000000  0.5960980000000 1.0
C      1  0.5714020000000  0.4741530000000  0.5656910000000 1.0
C      1  0.5058680000000  0.5026160000000  0.6157380000000 1.0
C      1  0.6091580000000  0.5016220000000  0.5327610000000 1.0
C      1  0.4321090000000  0.4977080000000  0.3975390000000 1.0
C      1  0.3876350000000  0.4951940000000  0.5456270000000 1.0
C      1  0.5677100000000  0.5013490000000  0.4066680000000 1.0
END
