TITL C-3201373-1215-401 61444.5077679254 125000 -610.9284474036 0 0 101 (C1) n - 1
REM
REM in /home/nfs/bkarasulu/CARBON/AIRSS/Generating-Clusters/LCBOP/Higher-Symm/SD-CG/FIRE-CG
REM
REM
REM
REM
REM
REM ./C.cell (b20cbc046b6831c77cfcea5457e17084)
REM AIRSS Version 0.9.1 bugfix July 2018 build 013d7b7c2542+ Fri, 06 Jul 2018 19:26:36 +0100
REM compiler GCC version 9.2.1 20190827 (Red Hat 9.2.1-1)
REM options -cpp -mtune=generic -march=x86-64 -g -O0 -fpre-include=/usr/include/finclude/math-vector-fortran.h
REM seed -762318221 1742429670 1988391713 -725065907 570444941 -880274263 -186256113 -1933562865 1298109136 -214290307 1513527273 -1525653359 1669973751 1171704670 1598687426 1942350063 -1159323368 -339232217 1734265630 1039424916 2144971372 -323965779 -1801000500 -1157636409 112153963 113420212 242940966 -3905781 -1309746434 1269481669 -992170012 149136595 644409972
REM
CELL 1.54180   50.00000   50.00000   50.00000   90.00000   90.00000   90.00000
LATT -1
SFAC C  
C      1  0.4654710000000  0.5659760000000  0.5592630000000 1.0
C      1  0.5702440000000  0.4931310000000  0.5580960000000 1.0
C      1  0.4595740000000  0.4417010000000  0.5647560000000 1.0
C      1  0.5326620000000  0.4069830000000  0.5196140000000 1.0
C      1  0.4044890000000  0.5048920000000  0.5175480000000 1.0
C      1  0.5592930000000  0.5803580000000  0.5242560000000 1.0
C      1  0.4363140000000  0.5066340000000  0.4855930000000 1.0
C      1  0.5444760000000  0.5599630000000  0.4874560000000 1.0
C      1  0.5294270000000  0.4318280000000  0.4818790000000 1.0
C      1  0.5722940000000  0.4732660000000  0.4660580000000 1.0
C      1  0.4331840000000  0.4491720000000  0.4700390000000 1.0
C      1  0.4785690000000  0.5851790000000  0.4611580000000 1.0
C      1  0.5737930000000  0.4947790000000  0.4885220000000 1.0
C      1  0.4542800000000  0.4325110000000  0.4830230000000 1.0
C      1  0.4581460000000  0.5746790000000  0.4789250000000 1.0
C      1  0.4981910000000  0.4525660000000  0.4217280000000 1.0
C      1  0.4560140000000  0.5294150000000  0.4191550000000 1.0
C      1  0.5453290000000  0.5225730000000  0.4246500000000 1.0
C      1  0.4296250000000  0.5348000000000  0.4857850000000 1.0
C      1  0.5689500000000  0.5442190000000  0.4882490000000 1.0
C      1  0.5030590000000  0.4179870000000  0.4828930000000 1.0
C      1  0.5546520000000  0.5371560000000  0.5375940000000 1.0
C      1  0.5047220000000  0.4341690000000  0.5479210000000 1.0
C      1  0.4371770000000  0.5293850000000  0.5371950000000 1.0
C      1  0.5392790000000  0.4679720000000  0.5154030000000 1.0
C      1  0.4553860000000  0.4779250000000  0.5210820000000 1.0
C      1  0.5040210000000  0.5570740000000  0.5176680000000 1.0
C      1  0.5069420000000  0.4006740000000  0.5060530000000 1.0
C      1  0.4172810000000  0.5396090000000  0.5100020000000 1.0
C      1  0.5774450000000  0.5476330000000  0.5149800000000 1.0
C      1  0.4890370000000  0.4397880000000  0.5712820000000 1.0
C      1  0.4467620000000  0.5410100000000  0.5642510000000 1.0
C      1  0.5589880000000  0.5216210000000  0.5634200000000 1.0
C      1  0.5430220000000  0.6100860000000  0.4875430000000 1.0
C      1  0.5747990000000  0.4101740000000  0.4907470000000 1.0
C      1  0.4143270000000  0.4635430000000  0.4861540000000 1.0
C      1  0.4883680000000  0.5317360000000  0.4516380000000 1.0
C      1  0.5223930000000  0.5000280000000  0.4609710000000 1.0
C      1  0.4774600000000  0.4805720000000  0.4534040000000 1.0
C      1  0.5269430000000  0.4729080000000  0.5767880000000 1.0
C      1  0.4584740000000  0.4889280000000  0.5867960000000 1.0
C      1  0.5065550000000  0.5398010000000  0.5783280000000 1.0
C      1  0.4829300000000  0.4852670000000  0.4831340000000 1.0
C      1  0.5028580000000  0.5370090000000  0.4766030000000 1.0
C      1  0.5126190000000  0.4819390000000  0.4815140000000 1.0
C      1  0.5216560000000  0.4988030000000  0.5663660000000 1.0
C      1  0.4822900000000  0.4782800000000  0.5997750000000 1.0
C      1  0.4854060000000  0.5214950000000  0.5703080000000 1.0
C      1  0.4134570000000  0.4904620000000  0.4943710000000 1.0
C      1  0.5486810000000  0.5861600000000  0.4987570000000 1.0
C      1  0.5489750000000  0.4157210000000  0.4965320000000 1.0
C      1  0.5185340000000  0.5289240000000  0.4140130000000 1.0
C      1  0.5169470000000  0.4739790000000  0.4142910000000 1.0
C      1  0.4620550000000  0.5027770000000  0.4137460000000 1.0
C      1  0.4382890000000  0.4808210000000  0.5435970000000 1.0
C      1  0.5142690000000  0.5682160000000  0.5417070000000 1.0
C      1  0.5490000000000  0.4503890000000  0.5389440000000 1.0
C      1  0.4770650000000  0.5504780000000  0.5130980000000 1.0
C      1  0.5500020000000  0.4950920000000  0.5076980000000 1.0
C      1  0.4707180000000  0.4551980000000  0.5183990000000 1.0
C      1  0.4966850000000  0.5642530000000  0.5644600000000 1.0
C      1  0.5529600000000  0.4675890000000  0.5627700000000 1.0
C      1  0.4478110000000  0.4692100000000  0.5677610000000 1.0
C      1  0.4813820000000  0.4313650000000  0.4700320000000 1.0
C      1  0.4447970000000  0.5508230000000  0.4683060000000 1.0
C      1  0.5673120000000  0.5203890000000  0.4727640000000 1.0
C      1  0.4900940000000  0.4513490000000  0.4505900000000 1.0
C      1  0.4581380000000  0.5363060000000  0.4477630000000 1.0
C      1  0.5454730000000  0.5167270000000  0.4534760000000 1.0
C      1  0.5322560000000  0.5235510000000  0.5767750000000 1.0
C      1  0.5018010000000  0.4608270000000  0.5873200000000 1.0
C      1  0.4588740000000  0.5184450000000  0.5800390000000 1.0
C      1  0.5569800000000  0.5005240000000  0.4104840000000 1.0
C      1  0.4716120000000  0.4567560000000  0.4100970000000 1.0
C      1  0.4748040000000  0.5485170000000  0.4077040000000 1.0
C      1  0.5126130000000  0.4759960000000  0.5270460000000 1.0
C      1  0.4868910000000  0.5149950000000  0.5422220000000 1.0
C      1  0.5131230000000  0.5032980000000  0.5371690000000 1.0
C      1  0.4492220000000  0.4244470000000  0.5414020000000 1.0
C      1  0.4565040000000  0.5826630000000  0.5357550000000 1.0
C      1  0.5906870000000  0.4914420000000  0.5370340000000 1.0
C      1  0.4357740000000  0.4604410000000  0.4434620000000 1.0
C      1  0.4962260000000  0.5775410000000  0.4412770000000 1.0
C      1  0.5602940000000  0.4654880000000  0.4426190000000 1.0
C      1  0.5219100000000  0.5427390000000  0.4986790000000 1.0
C      1  0.5288560000000  0.4591730000000  0.4885730000000 1.0
C      1  0.4617420000000  0.4997440000000  0.5011240000000 1.0
C      1  0.4991690000000  0.5504170000000  0.4269290000000 1.0
C      1  0.5462070000000  0.4751350000000  0.4192410000000 1.0
C      1  0.4566640000000  0.4770490000000  0.4288970000000 1.0
C      1  0.4554070000000  0.4316020000000  0.5131840000000 1.0
C      1  0.4608030000000  0.5737120000000  0.5081770000000 1.0
C      1  0.5953440000000  0.4923110000000  0.5097030000000 1.0
C      1  0.5315640000000  0.4262350000000  0.5410590000000 1.0
C      1  0.4210700000000  0.5025750000000  0.5409570000000 1.0
C      1  0.5427040000000  0.5669230000000  0.5426670000000 1.0
C      1  0.4661170000000  0.5237170000000  0.5216860000000 1.0
C      1  0.5344620000000  0.5194120000000  0.5194710000000 1.0
C      1  0.4956090000000  0.4543300000000  0.5294950000000 1.0
C      1  0.4962940000000  0.5032030000000  0.4440040000000 1.0
C      1  0.5026890000000  0.5018930000000  0.4151940000000 1.0
END
