TITL C-3201376-6384-584 -1.58517361676281e-07 125000 -18.9723641415036 0 0 4 (D(inf)h) n - 1
REM
REM in /home/nfs/bkarasulu/CARBON/AIRSS/Generating-Clusters/LCBOP/Higher-Symm/SD-CG/FIRE-CG
REM
REM
REM
REM
REM
REM ./C.cell (b20cbc046b6831c77cfcea5457e17084)
REM AIRSS Version 0.9.1 bugfix July 2018 build 013d7b7c2542+ Fri, 06 Jul 2018 19:26:36 +0100
REM compiler GCC version 9.2.1 20190827 (Red Hat 9.2.1-1)
REM options -cpp -mtune=generic -march=x86-64 -g -O0 -fpre-include=/usr/include/finclude/math-vector-fortran.h
REM seed -1895261111 1484586996 481622077 330797620 -484607839 -1539589122 207868754 -816110259 -1843666476 849113419 2079063242 -1379462202 250289615 -809139068 -145851520 -484978655 -255200289 1389104111 -1938260338 -658106682 -986829428 894384863 -1330460371 -1593067168 620816695 -1269633548 438747719 -1484664247 -1534509904 2062611636 1191138549 1088863370 -2025836563
REM
CELL 1.54180   50.00000   50.00000   50.00000   90.00000   90.00000   90.00000
LATT -1
SFAC C  
C      1  0.4997030000000  0.5012640000000  0.4867430000000 1.0
C      1  0.4997030000000  0.5012640000000  0.5393270000000 1.0
C      1  0.4997030000000  0.5012640000000  0.4606730000000 1.0
C      1  0.4997030000000  0.5012640000000  0.5132570000000 1.0
END
