TITL C-3201375-1262-479 -4.92360037419828e-07 125000 -424.225144622809 0 0 73 (C1) n - 1
REM
REM in /home/nfs/bkarasulu/CARBON/AIRSS/Generating-Clusters/LCBOP/Higher-Symm/SD-CG/FIRE-CG
REM
REM
REM
REM
REM
REM ./C.cell (b20cbc046b6831c77cfcea5457e17084)
REM AIRSS Version 0.9.1 bugfix July 2018 build 013d7b7c2542+ Fri, 06 Jul 2018 19:26:36 +0100
REM compiler GCC version 9.2.1 20190827 (Red Hat 9.2.1-1)
REM options -cpp -mtune=generic -march=x86-64 -g -O0 -fpre-include=/usr/include/finclude/math-vector-fortran.h
REM seed 490849488 -1903283101 573922117 726504609 1074074581 -1576786412 1764466496 855967478 -745528119 -80673686 -1752490458 -1872139535 399354864 -1765068849 -1865557323 -1808815324 1856591303 2013737475 -675578627 -955940397 -1932885387 1525401631 778873760 -87113943 295919076 -1725559841 -299536540 -584809552 -1625495471 -1890863538 -1391632929 1900325931 1708836489
REM
CELL 1.54180   50.00000   50.00000   50.00000   90.00000   90.00000   90.00000
LATT -1
SFAC C  
C      1  0.5598920000000  0.5248090000000  0.5445230000000 1.0
C      1  0.4949740000000  0.5639190000000  0.5456740000000 1.0
C      1  0.4378070000000  0.5151140000000  0.5445010000000 1.0
C      1  0.4666650000000  0.4450550000000  0.5442300000000 1.0
C      1  0.5422180000000  0.4512970000000  0.5461270000000 1.0
C      1  0.4954500000000  0.4752360000000  0.5724520000000 1.0
C      1  0.5222950000000  0.4880890000000  0.5729030000000 1.0
C      1  0.5185750000000  0.5174020000000  0.5728160000000 1.0
C      1  0.4893040000000  0.5226540000000  0.5728910000000 1.0
C      1  0.4750810000000  0.4966490000000  0.5724380000000 1.0
C      1  0.4913530000000  0.5359540000000  0.4764250000000 1.0
C      1  0.4637740000000  0.5024330000000  0.4761000000000 1.0
C      1  0.4866950000000  0.4653810000000  0.4757220000000 1.0
C      1  0.5291090000000  0.4745030000000  0.4759790000000 1.0
C      1  0.5307490000000  0.5178070000000  0.4782740000000 1.0
C      1  0.5387550000000  0.4562560000000  0.4310750000000 1.0
C      1  0.5233470000000  0.5244040000000  0.4346500000000 1.0
C      1  0.5100520000000  0.5499530000000  0.4342120000000 1.0
C      1  0.4558790000000  0.5076560000000  0.4299950000000 1.0
C      1  0.4750300000000  0.4635190000000  0.4301010000000 1.0
C      1  0.4456740000000  0.5114700000000  0.4561420000000 1.0
C      1  0.4730210000000  0.4510870000000  0.4555350000000 1.0
C      1  0.5409350000000  0.4557090000000  0.4582130000000 1.0
C      1  0.5453930000000  0.5245240000000  0.4547520000000 1.0
C      1  0.4964680000000  0.5575070000000  0.4579410000000 1.0
C      1  0.4927330000000  0.4766060000000  0.5205460000000 1.0
C      1  0.5192670000000  0.4852990000000  0.5211290000000 1.0
C      1  0.5191960000000  0.5133690000000  0.5222900000000 1.0
C      1  0.4924020000000  0.5220150000000  0.5214990000000 1.0
C      1  0.4761290000000  0.4991520000000  0.5208090000000 1.0
C      1  0.4296650000000  0.5117780000000  0.5149360000000 1.0
C      1  0.4674690000000  0.4357880000000  0.5146030000000 1.0
C      1  0.5516650000000  0.4495220000000  0.5172810000000 1.0
C      1  0.5637550000000  0.5323830000000  0.5144070000000 1.0
C      1  0.4886590000000  0.5703840000000  0.5165860000000 1.0
C      1  0.4856070000000  0.4571090000000  0.5023280000000 1.0
C      1  0.5360890000000  0.4721200000000  0.5034270000000 1.0
C      1  0.5362960000000  0.5248310000000  0.5040190000000 1.0
C      1  0.4872140000000  0.5425510000000  0.5035150000000 1.0
C      1  0.4553770000000  0.5005280000000  0.5026480000000 1.0
C      1  0.5803380000000  0.5185510000000  0.4904900000000 1.0
C      1  0.5097620000000  0.5835180000000  0.4968980000000 1.0
C      1  0.4252290000000  0.5354210000000  0.4939790000000 1.0
C      1  0.4438610000000  0.4379800000000  0.4931680000000 1.0
C      1  0.5438050000000  0.4262240000000  0.4973910000000 1.0
C      1  0.4577580000000  0.4294600000000  0.4672600000000 1.0
C      1  0.5567480000000  0.4357620000000  0.4718320000000 1.0
C      1  0.5710070000000  0.5341630000000  0.4653910000000 1.0
C      1  0.4947830000000  0.5832400000000  0.4705730000000 1.0
C      1  0.4208260000000  0.5201700000000  0.4679340000000 1.0
C      1  0.5228680000000  0.5607320000000  0.5526760000000 1.0
C      1  0.4495720000000  0.5403750000000  0.5524510000000 1.0
C      1  0.4461590000000  0.4643200000000  0.5515120000000 1.0
C      1  0.5176120000000  0.4376160000000  0.5528120000000 1.0
C      1  0.5649800000000  0.4972450000000  0.5523160000000 1.0
C      1  0.4496090000000  0.4919090000000  0.5588640000000 1.0
C      1  0.4922080000000  0.4494170000000  0.5590760000000 1.0
C      1  0.5459470000000  0.4770370000000  0.5600590000000 1.0
C      1  0.5365010000000  0.5363610000000  0.5593440000000 1.0
C      1  0.4768310000000  0.5455220000000  0.5599410000000 1.0
C      1  0.4729510000000  0.4062190000000  0.4772690000000 1.0
C      1  0.5830370000000  0.4441800000000  0.4819420000000 1.0
C      1  0.5714270000000  0.5615550000000  0.4766400000000 1.0
C      1  0.4683350000000  0.5924800000000  0.4795220000000 1.0
C      1  0.4025970000000  0.4990710000000  0.4775600000000 1.0
C      1  0.4642780000000  0.5856350000000  0.5065070000000 1.0
C      1  0.4070190000000  0.4939610000000  0.5049050000000 1.0
C      1  0.4785230000000  0.4090760000000  0.5047510000000 1.0
C      1  0.5807670000000  0.4521560000000  0.5087810000000 1.0
C      1  0.5679600000000  0.5611920000000  0.5046760000000 1.0
C      1  0.5032830000000  0.5025750000000  0.4395570000000 1.0
C      1  0.5005550000000  0.4992640000000  0.4698460000000 1.0
C      1  0.4796800000000  0.4917570000000  0.4263190000000 1.0
END
