TITL C-3201378-2706-2248 15088.1898170921 125000 -905.732160463681 0 0 149 (C1) n - 1
REM
REM in /home/nfs/bkarasulu/CARBON/AIRSS/Generating-Clusters/LCBOP/Higher-Symm/SD-CG/FIRE-CG
REM
REM
REM
REM
REM
REM ./C.cell (b20cbc046b6831c77cfcea5457e17084)
REM AIRSS Version 0.9.1 bugfix July 2018 build 013d7b7c2542+ Fri, 06 Jul 2018 19:26:36 +0100
REM compiler GCC version 9.2.1 20190827 (Red Hat 9.2.1-1)
REM options -cpp -mtune=generic -march=x86-64 -g -O0 -fpre-include=/usr/include/finclude/math-vector-fortran.h
REM seed -835155708 1410476537 2063085031 -1299221832 -2097281266 -733879980 623380909 -905118474 -259783315 -575272359 -1497645715 -887365187 863208026 -808931718 1924928822 737178004 -1913093174 1752141693 -238229897 -1567766714 1823796974 -204814061 995496406 974074367 157630739 260631739 -374161236 1364231335 -1770684252 -509028287 -116560889 20328515 -2090669068
REM
CELL 1.54180   50.00000   50.00000   50.00000   90.00000   90.00000   90.00000
LATT -1
SFAC C  
C      1  0.4670180000000  0.6062800000000  0.5038350000000 1.0
C      1  0.4845140000000  0.6058900000000  0.5263170000000 1.0
C      1  0.5128360000000  0.6060850000000  0.5263070000000 1.0
C      1  0.5308370000000  0.6067250000000  0.5044260000000 1.0
C      1  0.5252740000000  0.6063750000000  0.4765790000000 1.0
C      1  0.4998120000000  0.6061130000000  0.4638110000000 1.0
C      1  0.4738690000000  0.6060790000000  0.4760150000000 1.0
C      1  0.4893360000000  0.4539720000000  0.5409440000000 1.0
C      1  0.5247130000000  0.4549910000000  0.5312260000000 1.0
C      1  0.5396970000000  0.4507470000000  0.5029140000000 1.0
C      1  0.5280070000000  0.4372930000000  0.4775410000000 1.0
C      1  0.4959320000000  0.4521690000000  0.4670960000000 1.0
C      1  0.4670290000000  0.4410050000000  0.4852140000000 1.0
C      1  0.4560580000000  0.4537620000000  0.5149530000000 1.0
C      1  0.5186670000000  0.3908240000000  0.5240370000000 1.0
C      1  0.5318000000000  0.3894970000000  0.4982390000000 1.0
C      1  0.5211970000000  0.4089680000000  0.4796270000000 1.0
C      1  0.4941840000000  0.4011890000000  0.4710710000000 1.0
C      1  0.4739600000000  0.4119470000000  0.4887020000000 1.0
C      1  0.4721070000000  0.3984340000000  0.5138310000000 1.0
C      1  0.4916140000000  0.3803420000000  0.5243850000000 1.0
C      1  0.5347140000000  0.5533730000000  0.4222660000000 1.0
C      1  0.4623960000000  0.5531750000000  0.4242580000000 1.0
C      1  0.4166240000000  0.5547930000000  0.4827810000000 1.0
C      1  0.4330940000000  0.5575460000000  0.5539030000000 1.0
C      1  0.5060900000000  0.5549350000000  0.5812380000000 1.0
C      1  0.5668730000000  0.5556960000000  0.5462040000000 1.0
C      1  0.5828640000000  0.5574320000000  0.4798490000000 1.0
C      1  0.3986190000000  0.4676010000000  0.5586600000000 1.0
C      1  0.4837380000000  0.4646030000000  0.6135480000000 1.0
C      1  0.5764610000000  0.4683340000000  0.5846620000000 1.0
C      1  0.6139510000000  0.4692050000000  0.4944800000000 1.0
C      1  0.5656390000000  0.4621040000000  0.4084050000000 1.0
C      1  0.4686070000000  0.4613610000000  0.3959540000000 1.0
C      1  0.3953490000000  0.4634020000000  0.4564080000000 1.0
C      1  0.5337460000000  0.5022260000000  0.4444730000000 1.0
C      1  0.4792320000000  0.4978910000000  0.4471720000000 1.0
C      1  0.4372240000000  0.5046000000000  0.4858080000000 1.0
C      1  0.4416160000000  0.5009670000000  0.5414540000000 1.0
C      1  0.4913600000000  0.5007020000000  0.5625210000000 1.0
C      1  0.5456440000000  0.5026490000000  0.5412060000000 1.0
C      1  0.5633300000000  0.5005500000000  0.4891540000000 1.0
C      1  0.5748170000000  0.4636140000000  0.5374580000000 1.0
C      1  0.5766220000000  0.4604500000000  0.4656240000000 1.0
C      1  0.5207370000000  0.4607220000000  0.4232650000000 1.0
C      1  0.4514810000000  0.4593720000000  0.4401980000000 1.0
C      1  0.4134030000000  0.4635390000000  0.5001360000000 1.0
C      1  0.4460390000000  0.4601090000000  0.5666700000000 1.0
C      1  0.5171520000000  0.4618180000000  0.5798000000000 1.0
C      1  0.4546830000000  0.5887240000000  0.4604490000000 1.0
C      1  0.4426820000000  0.5896250000000  0.5093480000000 1.0
C      1  0.4739840000000  0.5884050000000  0.5484600000000 1.0
C      1  0.5234700000000  0.5886430000000  0.5479130000000 1.0
C      1  0.5547220000000  0.5900020000000  0.5103070000000 1.0
C      1  0.5450710000000  0.5889430000000  0.4620400000000 1.0
C      1  0.5005460000000  0.5885160000000  0.4393790000000 1.0
C      1  0.4608900000000  0.4963520000000  0.4980350000000 1.0
C      1  0.4586120000000  0.4832250000000  0.5240500000000 1.0
C      1  0.4842560000000  0.4837390000000  0.5383460000000 1.0
C      1  0.5268720000000  0.4852760000000  0.5292460000000 1.0
C      1  0.5410010000000  0.4820450000000  0.4890510000000 1.0
C      1  0.5245290000000  0.4883620000000  0.4672990000000 1.0
C      1  0.4957640000000  0.4828290000000  0.4683370000000 1.0
C      1  0.4523760000000  0.4882190000000  0.4395540000000 1.0
C      1  0.4128250000000  0.4929870000000  0.4990250000000 1.0
C      1  0.4434250000000  0.4902330000000  0.5691180000000 1.0
C      1  0.5143790000000  0.4911920000000  0.5793170000000 1.0
C      1  0.5734710000000  0.4929990000000  0.5384240000000 1.0
C      1  0.5788530000000  0.4904750000000  0.4647700000000 1.0
C      1  0.5224580000000  0.4899130000000  0.4200340000000 1.0
C      1  0.5569830000000  0.5247190000000  0.5046040000000 1.0
C      1  0.5502640000000  0.5245550000000  0.4519110000000 1.0
C      1  0.4926090000000  0.5211850000000  0.4375570000000 1.0
C      1  0.4432670000000  0.5244890000000  0.4664370000000 1.0
C      1  0.4342840000000  0.5242200000000  0.5258970000000 1.0
C      1  0.4756440000000  0.5247570000000  0.5629090000000 1.0
C      1  0.5290610000000  0.5261950000000  0.5472990000000 1.0
C      1  0.5868230000000  0.5041210000000  0.4407200000000 1.0
C      1  0.5088780000000  0.5032350000000  0.3987990000000 1.0
C      1  0.4279380000000  0.5020680000000  0.4328210000000 1.0
C      1  0.3948110000000  0.5077680000000  0.5162100000000 1.0
C      1  0.4499310000000  0.5055110000000  0.5924980000000 1.0
C      1  0.5351100000000  0.5054050000000  0.5929280000000 1.0
C      1  0.5979050000000  0.5067320000000  0.5336960000000 1.0
C      1  0.5308370000000  0.3619470000000  0.4875440000000 1.0
C      1  0.5187260000000  0.3614960000000  0.4613500000000 1.0
C      1  0.4927770000000  0.3743520000000  0.4603050000000 1.0
C      1  0.4713690000000  0.3578390000000  0.4695420000000 1.0
C      1  0.4705830000000  0.3474440000000  0.4948240000000 1.0
C      1  0.4908940000000  0.3528820000000  0.5142140000000 1.0
C      1  0.5174040000000  0.3441770000000  0.5060860000000 1.0
C      1  0.4830470000000  0.4907570000000  0.6216340000000 1.0
C      1  0.5805480000000  0.4947730000000  0.5906740000000 1.0
C      1  0.6217020000000  0.4954900000000  0.4953980000000 1.0
C      1  0.5712240000000  0.4876010000000  0.4001050000000 1.0
C      1  0.4668420000000  0.4867910000000  0.3861640000000 1.0
C      1  0.3872270000000  0.4889630000000  0.4510510000000 1.0
C      1  0.3902330000000  0.4935310000000  0.5608570000000 1.0
C      1  0.4220870000000  0.4531480000000  0.5502590000000 1.0
C      1  0.4914190000000  0.4518840000000  0.5891060000000 1.0
C      1  0.5641990000000  0.4546430000000  0.5626520000000 1.0
C      1  0.5897850000000  0.4539700000000  0.4907820000000 1.0
C      1  0.5472730000000  0.4506000000000  0.4273040000000 1.0
C      1  0.4715800000000  0.4499570000000  0.4220340000000 1.0
C      1  0.4156850000000  0.4528410000000  0.4735390000000 1.0
C      1  0.5508660000000  0.5795220000000  0.5384280000000 1.0
C      1  0.5651910000000  0.5805810000000  0.4840200000000 1.0
C      1  0.5302870000000  0.5785110000000  0.4374980000000 1.0
C      1  0.4718370000000  0.5784000000000  0.4361950000000 1.0
C      1  0.4336950000000  0.5790520000000  0.4813860000000 1.0
C      1  0.4453610000000  0.5799670000000  0.5386240000000 1.0
C      1  0.4991760000000  0.5780350000000  0.5637620000000 1.0
C      1  0.4735760000000  0.4484130000000  0.5662010000000 1.0
C      1  0.5356540000000  0.4505790000000  0.5602100000000 1.0
C      1  0.5706660000000  0.4500790000000  0.5122230000000 1.0
C      1  0.5539470000000  0.4461760000000  0.4545960000000 1.0
C      1  0.4972950000000  0.4484020000000  0.4351720000000 1.0
C      1  0.4430580000000  0.4474800000000  0.4647670000000 1.0
C      1  0.4274170000000  0.4498080000000  0.5218220000000 1.0
C      1  0.4743050000000  0.5528070000000  0.4831520000000 1.0
C      1  0.4711120000000  0.5498070000000  0.5092030000000 1.0
C      1  0.4907450000000  0.5461240000000  0.5263020000000 1.0
C      1  0.5166620000000  0.5376340000000  0.5252820000000 1.0
C      1  0.5315830000000  0.5362550000000  0.5018240000000 1.0
C      1  0.5215480000000  0.5470080000000  0.4788460000000 1.0
C      1  0.4973730000000  0.5529150000000  0.4703530000000 1.0
C      1  0.5622740000000  0.5165900000000  0.5886330000000 1.0
C      1  0.6108610000000  0.5177950000000  0.5096050000000 1.0
C      1  0.5745110000000  0.5120600000000  0.4150580000000 1.0
C      1  0.4816330000000  0.5105290000000  0.3921920000000 1.0
C      1  0.4036220000000  0.5120800000000  0.4462640000000 1.0
C      1  0.3937730000000  0.5167770000000  0.5442350000000 1.0
C      1  0.4734270000000  0.5142680000000  0.6079830000000 1.0
C      1  0.5583040000000  0.5375660000000  0.4114190000000 1.0
C      1  0.4701020000000  0.5363510000000  0.4011210000000 1.0
C      1  0.4024090000000  0.5380570000000  0.4617350000000 1.0
C      1  0.4064960000000  0.5428450000000  0.5533900000000 1.0
C      1  0.4899240000000  0.5388440000000  0.6012970000000 1.0
C      1  0.5596750000000  0.5426590000000  0.5736660000000 1.0
C      1  0.5971820000000  0.5436260000000  0.5029480000000 1.0
C      1  0.4221330000000  0.5409840000000  0.5077950000000 1.0
C      1  0.4547450000000  0.5419490000000  0.5650120000000 1.0
C      1  0.5302080000000  0.5425350000000  0.5706910000000 1.0
C      1  0.5744160000000  0.5412460000000  0.5216580000000 1.0
C      1  0.5709300000000  0.5404140000000  0.4601190000000 1.0
C      1  0.5107030000000  0.5377140000000  0.4259160000000 1.0
C      1  0.4475950000000  0.5390190000000  0.4441240000000 1.0
C      1  0.4883030000000  0.4955680000000  0.4933970000000 1.0
C      1  0.5028030000000  0.4932910000000  0.5172010000000 1.0
END
