TITL C-3201378-2706-1563 0.00185029607616015 125000 -512.91593705713 0 0 86 (C1) n - 1
REM
REM in /home/nfs/bkarasulu/CARBON/AIRSS/Generating-Clusters/LCBOP/Higher-Symm/SD-CG/FIRE-CG
REM
REM
REM
REM
REM
REM ./C.cell (b20cbc046b6831c77cfcea5457e17084)
REM AIRSS Version 0.9.1 bugfix July 2018 build 013d7b7c2542+ Fri, 06 Jul 2018 19:26:36 +0100
REM compiler GCC version 9.2.1 20190827 (Red Hat 9.2.1-1)
REM options -cpp -mtune=generic -march=x86-64 -g -O0 -fpre-include=/usr/include/finclude/math-vector-fortran.h
REM seed 185442768 2093213502 -1410610346 -356758497 357692404 126213131 877023056 2108333723 1589329705 -511641463 -1084563555 1414023717 -594476541 549135667 -283710654 477124221 406479031 1798549699 -1853724494 -1876066241 2053582445 -2035579313 1475312006 -1328435203 -1969256761 -895795881 201922579 -1632693258 286424553 -1941382618 -100277756 1995379461 305968836
REM
CELL 1.54180   50.00000   50.00000   50.00000   90.00000   90.00000   90.00000
LATT -1
SFAC C  
C      1  0.5182020000000  0.5127710000000  0.5838660000000 1.0
C      1  0.5603720000000  0.5231850000000  0.4385040000000 1.0
C      1  0.4221960000000  0.5135090000000  0.4737720000000 1.0
C      1  0.4260040000000  0.5525590000000  0.5089220000000 1.0
C      1  0.5501110000000  0.5419800000000  0.5583240000000 1.0
C      1  0.5236880000000  0.5594770000000  0.4289140000000 1.0
C      1  0.4529530000000  0.4672430000000  0.4934680000000 1.0
C      1  0.5038930000000  0.4433460000000  0.5779370000000 1.0
C      1  0.5342700000000  0.4747600000000  0.4551330000000 1.0
C      1  0.5125140000000  0.5730310000000  0.4072380000000 1.0
C      1  0.4099670000000  0.5660290000000  0.5273440000000 1.0
C      1  0.5767750000000  0.5498550000000  0.5601280000000 1.0
C      1  0.5417250000000  0.5163750000000  0.5674730000000 1.0
C      1  0.5358310000000  0.5341890000000  0.4253310000000 1.0
C      1  0.4196310000000  0.5262710000000  0.5007460000000 1.0
C      1  0.5413630000000  0.4882100000000  0.4110160000000 1.0
C      1  0.4088830000000  0.4793400000000  0.5051510000000 1.0
C      1  0.5317300000000  0.4707730000000  0.6044410000000 1.0
C      1  0.4582620000000  0.4666630000000  0.4172680000000 1.0
C      1  0.4396770000000  0.4813230000000  0.5717440000000 1.0
C      1  0.5955780000000  0.4735290000000  0.5006470000000 1.0
C      1  0.5112960000000  0.4155410000000  0.5337600000000 1.0
C      1  0.5335570000000  0.4243160000000  0.4930760000000 1.0
C      1  0.4885830000000  0.4088500000000  0.4924550000000 1.0
C      1  0.5496200000000  0.4944690000000  0.5006360000000 1.0
C      1  0.4838200000000  0.4880610000000  0.4554020000000 1.0
C      1  0.4758590000000  0.4852720000000  0.5380520000000 1.0
C      1  0.5035580000000  0.4404500000000  0.4573820000000 1.0
C      1  0.4694130000000  0.4377720000000  0.5256090000000 1.0
C      1  0.5368390000000  0.4569940000000  0.5307200000000 1.0
C      1  0.5288730000000  0.4777350000000  0.5120450000000 1.0
C      1  0.5063000000000  0.4706700000000  0.4678760000000 1.0
C      1  0.4775500000000  0.4668470000000  0.5126520000000 1.0
C      1  0.4551330000000  0.4643050000000  0.3910690000000 1.0
C      1  0.4178650000000  0.4921640000000  0.5821610000000 1.0
C      1  0.6183720000000  0.4697790000000  0.5136140000000 1.0
C      1  0.5477580000000  0.5195690000000  0.4870750000000 1.0
C      1  0.4716780000000  0.5128870000000  0.4638810000000 1.0
C      1  0.4882780000000  0.5106060000000  0.5436550000000 1.0
C      1  0.3952900000000  0.5775830000000  0.5455160000000 1.0
C      1  0.6019850000000  0.5564460000000  0.5604710000000 1.0
C      1  0.5010240000000  0.5851110000000  0.3872080000000 1.0
C      1  0.4508640000000  0.4593720000000  0.4664090000000 1.0
C      1  0.4790530000000  0.4524100000000  0.5739100000000 1.0
C      1  0.5598030000000  0.4684440000000  0.4656800000000 1.0
C      1  0.5668160000000  0.5276970000000  0.4659320000000 1.0
C      1  0.4436360000000  0.5186090000000  0.4556670000000 1.0
C      1  0.4926300000000  0.5177140000000  0.5721680000000 1.0
C      1  0.3964720000000  0.5039000000000  0.5913350000000 1.0
C      1  0.6405730000000  0.4662850000000  0.5268240000000 1.0
C      1  0.4526400000000  0.4621000000000  0.3652130000000 1.0
C      1  0.5626770000000  0.5719620000000  0.4816490000000 1.0
C      1  0.4557510000000  0.5637810000000  0.4505910000000 1.0
C      1  0.4848430000000  0.5630780000000  0.5626780000000 1.0
C      1  0.4640270000000  0.4725940000000  0.5613950000000 1.0
C      1  0.5707420000000  0.4781790000000  0.4896540000000 1.0
C      1  0.4638000000000  0.4703740000000  0.4440320000000 1.0
C      1  0.4817710000000  0.5347430000000  0.4794470000000 1.0
C      1  0.4957680000000  0.5327250000000  0.5265870000000 1.0
C      1  0.5279720000000  0.5397010000000  0.4911920000000 1.0
C      1  0.5348250000000  0.5654630000000  0.4796220000000 1.0
C      1  0.4662760000000  0.5592890000000  0.4768430000000 1.0
C      1  0.5030660000000  0.5567720000000  0.5416080000000 1.0
C      1  0.4794430000000  0.5420960000000  0.5794040000000 1.0
C      1  0.5797080000000  0.5523600000000  0.4728530000000 1.0
C      1  0.4423650000000  0.5424540000000  0.4398140000000 1.0
C      1  0.4292820000000  0.4604920000000  0.5098890000000 1.0
C      1  0.5291430000000  0.4554500000000  0.5805780000000 1.0
C      1  0.5305820000000  0.4672070000000  0.4266130000000 1.0
C      1  0.5139980000000  0.4435680000000  0.4296350000000 1.0
C      1  0.4400260000000  0.4396900000000  0.5267450000000 1.0
C      1  0.5428340000000  0.4655190000000  0.5571880000000 1.0
C      1  0.4103760000000  0.5051870000000  0.5186400000000 1.0
C      1  0.5535740000000  0.4918770000000  0.5595920000000 1.0
C      1  0.5257240000000  0.5127960000000  0.4082090000000 1.0
C      1  0.4861850000000  0.4160410000000  0.5201640000000 1.0
C      1  0.5325260000000  0.4302200000000  0.5213930000000 1.0
C      1  0.5094540000000  0.4209840000000  0.4771720000000 1.0
C      1  0.4489260000000  0.5649820000000  0.4982700000000 1.0
C      1  0.5306800000000  0.5591080000000  0.5470480000000 1.0
C      1  0.5229220000000  0.5709510000000  0.4546560000000 1.0
C      1  0.4077740000000  0.4883740000000  0.4770020000000 1.0
C      1  0.5222880000000  0.4961320000000  0.6063420000000 1.0
C      1  0.5662490000000  0.4994160000000  0.4226130000000 1.0
C      1  0.5017050000000  0.5335640000000  0.4990980000000 1.0
C      1  0.5041850000000  0.4722920000000  0.4980900000000 1.0
END
