TITL C-3201373-1215-1792 0.680853953373641 125000 -171.343063933224 0 0 30 (C1) n - 1
REM
REM in /home/nfs/bkarasulu/CARBON/AIRSS/Generating-Clusters/LCBOP/Higher-Symm/SD-CG/FIRE-CG
REM
REM
REM
REM
REM
REM ./C.cell (b20cbc046b6831c77cfcea5457e17084)
REM AIRSS Version 0.9.1 bugfix July 2018 build 013d7b7c2542+ Fri, 06 Jul 2018 19:26:36 +0100
REM compiler GCC version 9.2.1 20190827 (Red Hat 9.2.1-1)
REM options -cpp -mtune=generic -march=x86-64 -g -O0 -fpre-include=/usr/include/finclude/math-vector-fortran.h
REM seed 177956868 -696313286 900346515 -463661287 1787992573 1174649255 1358069618 -1099409729 1256360335 -1861151302 165768281 -690649455 292078832 325356850 512606854 1542745399 -104706537 415934976 1675272750 2005377968 -86682649 1391309250 1618039689 495889858 2044436103 1212351411 -149814421 1118488695 440701831 185462892 238860252 138472988 -1311520796
REM
CELL 1.54180   50.00000   50.00000   50.00000   90.00000   90.00000   90.00000
LATT -1
SFAC C  
C      1  0.5308560000000  0.5417870000000  0.4670670000000 1.0
C      1  0.5356060000000  0.5064000000000  0.5248010000000 1.0
C      1  0.4475510000000  0.5115470000000  0.5014560000000 1.0
C      1  0.5508960000000  0.4887370000000  0.5372830000000 1.0
C      1  0.5815850000000  0.4534460000000  0.5622150000000 1.0
C      1  0.5322540000000  0.5446790000000  0.4948160000000 1.0
C      1  0.5578740000000  0.5866130000000  0.5171470000000 1.0
C      1  0.4633880000000  0.5059990000000  0.4061830000000 1.0
C      1  0.4921390000000  0.5251530000000  0.5146070000000 1.0
C      1  0.3937410000000  0.4500950000000  0.4194870000000 1.0
C      1  0.4397660000000  0.4963740000000  0.4134560000000 1.0
C      1  0.5662400000000  0.4710920000000  0.5497490000000 1.0
C      1  0.3742900000000  0.4932800000000  0.4140970000000 1.0
C      1  0.5228780000000  0.5359860000000  0.4424670000000 1.0
C      1  0.5455200000000  0.5664790000000  0.5061380000000 1.0
C      1  0.5080450000000  0.5274120000000  0.4222220000000 1.0
C      1  0.4873560000000  0.5169280000000  0.4093460000000 1.0
C      1  0.6427190000000  0.3831460000000  0.6118810000000 1.0
C      1  0.4546550000000  0.5334150000000  0.5440140000000 1.0
C      1  0.4226050000000  0.4942670000000  0.4583830000000 1.0
C      1  0.4328700000000  0.5019400000000  0.4815910000000 1.0
C      1  0.4647910000000  0.5233650000000  0.5200020000000 1.0
C      1  0.4358840000000  0.5524010000000  0.5892930000000 1.0
C      1  0.6122740000000  0.4181560000000  0.5871480000000 1.0
C      1  0.6276230000000  0.4005060000000  0.5996170000000 1.0
C      1  0.5969300000000  0.4358010000000  0.5746820000000 1.0
C      1  0.4192250000000  0.4893270000000  0.4310640000000 1.0
C      1  0.5198960000000  0.5253150000000  0.5115630000000 1.0
C      1  0.4451880000000  0.5429830000000  0.5668340000000 1.0
C      1  0.3953570000000  0.4773690000000  0.4213890000000 1.0
END
