TITL C-3201377-4638-1207 -1.63637622231425e-06 125000 -1132.52641964666 0 0 191 (D3) n - 1
REM
REM in /home/nfs/bkarasulu/CARBON/AIRSS/Generating-Clusters/LCBOP/Higher-Symm/SD-CG/FIRE-CG
REM
REM
REM
REM
REM
REM ./C.cell (b20cbc046b6831c77cfcea5457e17084)
REM AIRSS Version 0.9.1 bugfix July 2018 build 013d7b7c2542+ Fri, 06 Jul 2018 19:26:36 +0100
REM compiler GCC version 9.2.1 20190827 (Red Hat 9.2.1-1)
REM options -cpp -mtune=generic -march=x86-64 -g -O0 -fpre-include=/usr/include/finclude/math-vector-fortran.h
REM seed -515133528 1627809342 427521362 457002788 -1541489499 154821498 -1766223604 1285181947 -1882616334 -966456148 -917318399 -401481180 -1881985215 -713074901 -2021972303 1747249849 -1338247175 -983891666 859438332 -374297706 -794272708 -620947244 -265482638 -1117980684 504300537 1787206559 -1603011006 -1198691889 -927222170 -2077312912 2124275474 363291473 -1191503521
REM
CELL 1.54180   50.00000   50.00000   50.00000   90.00000   90.00000   90.00000
LATT -1
SFAC C  
C      1  0.5435320000000  0.6031520000000  0.5568570000000 1.0
C      1  0.4289980000000  0.6031550000000  0.5096220000000 1.0
C      1  0.5271710000000  0.6031560000000  0.4340500000000 1.0
C      1  0.4562640000000  0.3973860000000  0.5568500000000 1.0
C      1  0.5708000000000  0.3973860000000  0.5096190000000 1.0
C      1  0.4726280000000  0.3973890000000  0.4340430000000 1.0
C      1  0.5030440000000  0.4163020000000  0.5706870000000 1.0
C      1  0.4372560000000  0.4163050000000  0.4676390000000 1.0
C      1  0.5593920000000  0.4163040000000  0.4621890000000 1.0
C      1  0.4967510000000  0.5842360000000  0.5706910000000 1.0
C      1  0.5625420000000  0.5842380000000  0.4676450000000 1.0
C      1  0.4404070000000  0.5842400000000  0.4621910000000 1.0
C      1  0.4299680000000  0.4898070000000  0.5268330000000 1.0
C      1  0.5117760000000  0.4898080000000  0.4262820000000 1.0
C      1  0.5579520000000  0.4898040000000  0.5474050000000 1.0
C      1  0.5698290000000  0.5107340000000  0.5268360000000 1.0
C      1  0.4880240000000  0.5107380000000  0.4262820000000 1.0
C      1  0.4418440000000  0.5107350000000  0.5474040000000 1.0
C      1  0.5155350000000  0.4559710000000  0.4656260000000 1.0
C      1  0.5219980000000  0.4559690000000  0.5309870000000 1.0
C      1  0.4621620000000  0.4559710000000  0.5039040000000 1.0
C      1  0.4842640000000  0.5445730000000  0.4656280000000 1.0
C      1  0.4777990000000  0.5445710000000  0.5309890000000 1.0
C      1  0.5376360000000  0.5445710000000  0.5039070000000 1.0
C      1  0.4440620000000  0.5269970000000  0.4848490000000 1.0
C      1  0.5410900000000  0.5269960000000  0.4594800000000 1.0
C      1  0.5145460000000  0.5269940000000  0.5561930000000 1.0
C      1  0.5557360000000  0.4735450000000  0.4848500000000 1.0
C      1  0.4587090000000  0.4735480000000  0.4594780000000 1.0
C      1  0.4852500000000  0.4735450000000  0.5561910000000 1.0
C      1  0.5145170000000  0.4818150000000  0.4547540000000 1.0
C      1  0.5319230000000  0.4818120000000  0.5355430000000 1.0
C      1  0.4532550000000  0.4818140000000  0.5102220000000 1.0
C      1  0.4852820000000  0.5187290000000  0.4547550000000 1.0
C      1  0.4678730000000  0.5187270000000  0.5355430000000 1.0
C      1  0.5465420000000  0.5187270000000  0.5102250000000 1.0
C      1  0.4302890000000  0.4777050000000  0.4559800000000 1.0
C      1  0.5729750000000  0.4777030000000  0.4619860000000 1.0
C      1  0.4964310000000  0.4777010000000  0.5825530000000 1.0
C      1  0.5695100000000  0.5228390000000  0.4559830000000 1.0
C      1  0.4268240000000  0.5228410000000  0.4619850000000 1.0
C      1  0.5033640000000  0.5228370000000  0.5825540000000 1.0
C      1  0.4891300000000  0.5583990000000  0.6063890000000 1.0
C      1  0.4133010000000  0.5584050000000  0.4377410000000 1.0
C      1  0.5972690000000  0.5584020000000  0.4563950000000 1.0
C      1  0.5106650000000  0.4421370000000  0.6063870000000 1.0
C      1  0.5864990000000  0.4421400000000  0.4377400000000 1.0
C      1  0.4025300000000  0.4421420000000  0.4563890000000 1.0
C      1  0.4890650000000  0.4752700000000  0.3895410000000 1.0
C      1  0.6011250000000  0.4752640000000  0.5461060000000 1.0
C      1  0.4095060000000  0.4752670000000  0.5648710000000 1.0
C      1  0.5107360000000  0.5252770000000  0.3895430000000 1.0
C      1  0.3986710000000  0.5252750000000  0.5461040000000 1.0
C      1  0.5902900000000  0.5252710000000  0.5648750000000 1.0
C      1  0.5374790000000  0.4520650000000  0.4847160000000 1.0
C      1  0.4944930000000  0.4520640000000  0.5404470000000 1.0
C      1  0.4677220000000  0.4520660000000  0.4753540000000 1.0
C      1  0.4623190000000  0.5484780000000  0.4847180000000 1.0
C      1  0.5053040000000  0.5484760000000  0.5404500000000 1.0
C      1  0.5320760000000  0.5484770000000  0.4753580000000 1.0
C      1  0.4532830000000  0.3930810000000  0.5279590000000 1.0
C      1  0.4991390000000  0.3930820000000  0.4459080000000 1.0
C      1  0.5472690000000  0.3930790000000  0.5266460000000 1.0
C      1  0.5465140000000  0.6074590000000  0.5279660000000 1.0
C      1  0.5006600000000  0.6074620000000  0.4459140000000 1.0
C      1  0.4525280000000  0.6074610000000  0.5266500000000 1.0
C      1  0.5982110000000  0.4727330000000  0.5145700000000 1.0
C      1  0.4382740000000  0.4727340000000  0.5781160000000 1.0
C      1  0.4632100000000  0.4727380000000  0.4078330000000 1.0
C      1  0.4015860000000  0.5278080000000  0.5145690000000 1.0
C      1  0.5615220000000  0.5278030000000  0.5781190000000 1.0
C      1  0.5365900000000  0.5278080000000  0.4078350000000 1.0
C      1  0.4322790000000  0.4123480000000  0.5189950000000 1.0
C      1  0.5174040000000  0.4123490000000  0.4322000000000 1.0
C      1  0.5500090000000  0.4123450000000  0.5493190000000 1.0
C      1  0.5675180000000  0.5881930000000  0.5190020000000 1.0
C      1  0.4823950000000  0.5881960000000  0.4322040000000 1.0
C      1  0.4497870000000  0.5881940000000  0.5493220000000 1.0
C      1  0.4932420000000  0.4400160000000  0.4735300000000 1.0
C      1  0.5262980000000  0.4400150000000  0.5077290000000 1.0
C      1  0.4801530000000  0.4400150000000  0.5192570000000 1.0
C      1  0.5065560000000  0.5605270000000  0.4735340000000 1.0
C      1  0.4735000000000  0.5605270000000  0.5077310000000 1.0
C      1  0.5196440000000  0.5605260000000  0.5192600000000 1.0
C      1  0.4166200000000  0.4790460000000  0.4824870000000 1.0
C      1  0.5568540000000  0.4790450000000  0.4368950000000 1.0
C      1  0.5262210000000  0.4790420000000  0.5811370000000 1.0
C      1  0.5831780000000  0.5214970000000  0.4824910000000 1.0
C      1  0.4429460000000  0.5215000000000  0.4368940000000 1.0
C      1  0.4735740000000  0.5214960000000  0.5811370000000 1.0
C      1  0.6233770000000  0.4940380000000  0.4688680000000 1.0
C      1  0.4652710000000  0.4940370000000  0.6227620000000 1.0
C      1  0.4110480000000  0.4940430000000  0.4088910000000 1.0
C      1  0.3764210000000  0.5065050000000  0.4688640000000 1.0
C      1  0.5345230000000  0.5064980000000  0.6227630000000 1.0
C      1  0.5887520000000  0.5065030000000  0.4088940000000 1.0
C      1  0.4521890000000  0.4423790000000  0.4211700000000 1.0
C      1  0.5921710000000  0.4423750000000  0.4983560000000 1.0
C      1  0.4553340000000  0.4423750000000  0.5809900000000 1.0
C      1  0.5476110000000  0.5581670000000  0.4211740000000 1.0
C      1  0.4076270000000  0.5581670000000  0.4983560000000 1.0
C      1  0.5444610000000  0.5581620000000  0.5809950000000 1.0
C      1  0.4123190000000  0.5017920000000  0.5040330000000 1.0
C      1  0.5403470000000  0.5017930000000  0.4223980000000 1.0
C      1  0.5470310000000  0.5017880000000  0.5740910000000 1.0
C      1  0.5874790000000  0.4987490000000  0.5040350000000 1.0
C      1  0.4594530000000  0.4987530000000  0.4223960000000 1.0
C      1  0.4527640000000  0.4987490000000  0.5740890000000 1.0
C      1  0.4106160000000  0.4894660000000  0.4368840000000 1.0
C      1  0.5993500000000  0.4894620000000  0.4544970000000 1.0
C      1  0.4897300000000  0.4894600000000  0.6091390000000 1.0
C      1  0.5891840000000  0.5110790000000  0.4368880000000 1.0
C      1  0.4004490000000  0.5110820000000  0.4544940000000 1.0
C      1  0.5100640000000  0.5110760000000  0.6091400000000 1.0
C      1  0.5664690000000  0.4571560000000  0.5858380000000 1.0
C      1  0.3924240000000  0.4571610000000  0.5149920000000 1.0
C      1  0.5408010000000  0.4571620000000  0.3996870000000 1.0
C      1  0.4333260000000  0.5433810000000  0.5858380000000 1.0
C      1  0.6073730000000  0.5433800000000  0.5149970000000 1.0
C      1  0.4589990000000  0.5433850000000  0.3996890000000 1.0
C      1  0.5926270000000  0.5510150000000  0.4887310000000 1.0
C      1  0.4634460000000  0.5510140000000  0.5862010000000 1.0
C      1  0.4436260000000  0.5510190000000  0.4255930000000 1.0
C      1  0.4071710000000  0.4495270000000  0.4887260000000 1.0
C      1  0.5363490000000  0.4495230000000  0.5861990000000 1.0
C      1  0.5561740000000  0.4495270000000  0.4255920000000 1.0
C      1  0.4407730000000  0.5280310000000  0.3830750000000 1.0
C      1  0.6308730000000  0.5280250000000  0.5075190000000 1.0
C      1  0.4280510000000  0.5280250000000  0.6099290000000 1.0
C      1  0.5590280000000  0.4725170000000  0.3830750000000 1.0
C      1  0.3689240000000  0.4725170000000  0.5075140000000 1.0
C      1  0.5717430000000  0.4725110000000  0.6099300000000 1.0
C      1  0.4242110000000  0.4252420000000  0.5440760000000 1.0
C      1  0.4997190000000  0.4252440000000  0.4126730000000 1.0
C      1  0.5757630000000  0.4252390000000  0.5437660000000 1.0
C      1  0.5755850000000  0.5752970000000  0.5440820000000 1.0
C      1  0.5000820000000  0.5753020000000  0.4126770000000 1.0
C      1  0.4240330000000  0.5753000000000  0.5437680000000 1.0
C      1  0.6350720000000  0.5093540000000  0.4880400000000 1.0
C      1  0.4428210000000  0.5093540000000  0.6233040000000 1.0
C      1  0.4218040000000  0.5093600000000  0.3891780000000 1.0
C      1  0.3647260000000  0.4911880000000  0.4880350000000 1.0
C      1  0.5569730000000  0.4911810000000  0.6233060000000 1.0
C      1  0.5779970000000  0.4911870000000  0.3891790000000 1.0
C      1  0.5852630000000  0.4216380000000  0.5166340000000 1.0
C      1  0.4429580000000  0.4216390000000  0.5658680000000 1.0
C      1  0.4714720000000  0.4216430000000  0.4180120000000 1.0
C      1  0.4145350000000  0.5789030000000  0.5166360000000 1.0
C      1  0.5568380000000  0.5788990000000  0.5658740000000 1.0
C      1  0.5283280000000  0.5789030000000  0.4180170000000 1.0
C      1  0.5840920000000  0.4323420000000  0.4657110000000 1.0
C      1  0.4876450000000  0.4323400000000  0.5903170000000 1.0
C      1  0.4279560000000  0.4323450000000  0.4444880000000 1.0
C      1  0.4157070000000  0.5682010000000  0.4657120000000 1.0
C      1  0.5121500000000  0.5681960000000  0.5903210000000 1.0
C      1  0.5718430000000  0.5681990000000  0.4444940000000 1.0
C      1  0.4593020000000  0.5034460000000  0.4926310000000 1.0
C      1  0.5267290000000  0.5034460000000  0.4687870000000 1.0
C      1  0.5136650000000  0.5034440000000  0.5391030000000 1.0
C      1  0.5404960000000  0.4970960000000  0.4926320000000 1.0
C      1  0.4730690000000  0.4970970000000  0.4687860000000 1.0
C      1  0.4861310000000  0.4970950000000  0.5391020000000 1.0
C      1  0.5736440000000  0.5763090000000  0.4940490000000 1.0
C      1  0.4683340000000  0.5763090000000  0.5671040000000 1.0
C      1  0.4577220000000  0.5763120000000  0.4393750000000 1.0
C      1  0.4261540000000  0.4242330000000  0.4940420000000 1.0
C      1  0.5314620000000  0.4242290000000  0.5671000000000 1.0
C      1  0.5420780000000  0.4242330000000  0.4393720000000 1.0
C      1  0.5003990000000  0.3801500000000  0.4708850000000 1.0
C      1  0.5250080000000  0.3801490000000  0.5152480000000 1.0
C      1  0.4742840000000  0.3801490000000  0.5143790000000 1.0
C      1  0.4994000000000  0.6203930000000  0.4708910000000 1.0
C      1  0.4747890000000  0.6203920000000  0.5152530000000 1.0
C      1  0.5255130000000  0.6203910000000  0.5143860000000 1.0
C      1  0.4996050000000  0.3767910000000  0.5275270000000 1.0
C      1  0.4763510000000  0.3767920000000  0.4862390000000 1.0
C      1  0.5237350000000  0.3767910000000  0.4867450000000 1.0
C      1  0.5001920000000  0.6237500000000  0.5275340000000 1.0
C      1  0.5234470000000  0.6237500000000  0.4862460000000 1.0
C      1  0.4760640000000  0.6237510000000  0.4867500000000 1.0
C      1  0.5891130000000  0.5327560000000  0.5363650000000 1.0
C      1  0.4239500000000  0.5327580000000  0.5593400000000 1.0
C      1  0.4866350000000  0.5327610000000  0.4048180000000 1.0
C      1  0.4106840000000  0.4677830000000  0.5363610000000 1.0
C      1  0.5758450000000  0.4677800000000  0.5593410000000 1.0
C      1  0.5131660000000  0.4677850000000  0.4048170000000 1.0
C      1  0.6078040000000  0.5002670000000  0.5624750000000 1.0
C      1  0.3919920000000  0.5002710000000  0.5624710000000 1.0
C      1  0.4999010000000  0.5002740000000  0.3755750000000 1.0
C      1  0.4999000000000  0.5712680000000  0.5001750000000 1.0
C      1  0.4998980000000  0.4292730000000  0.5001720000000 1.0
END
