TITL C-3201378-2706-946 -1.4535243697878e-06 125000 -1156.7162200706 0 0 187 (C1) n - 1
REM
REM in /home/nfs/bkarasulu/CARBON/AIRSS/Generating-Clusters/LCBOP/Higher-Symm/SD-CG/FIRE-CG
REM
REM
REM
REM
REM
REM ./C.cell (b20cbc046b6831c77cfcea5457e17084)
REM AIRSS Version 0.9.1 bugfix July 2018 build 013d7b7c2542+ Fri, 06 Jul 2018 19:26:36 +0100
REM compiler GCC version 9.2.1 20190827 (Red Hat 9.2.1-1)
REM options -cpp -mtune=generic -march=x86-64 -g -O0 -fpre-include=/usr/include/finclude/math-vector-fortran.h
REM seed -44646146 -2105627807 -59419316 1795512352 1084219632 1111325243 1375930486 667880037 -1587688630 -12449114 1139031958 -2098432497 -1384320874 -76116920 1315348918 -2009710320 711377262 50288382 95324195 -966760942 -1822444821 -964457394 1202255404 -418052608 354964502 885941919 706138634 -621584891 -69268168 651937860 602928578 1250310107 -629367358
REM
CELL 1.54180   50.00000   50.00000   50.00000   90.00000   90.00000   90.00000
LATT -1
SFAC C  
C      1  0.5701450000000  0.4517090000000  0.6089300000000 1.0
C      1  0.5170490000000  0.5662080000000  0.6051870000000 1.0
C      1  0.4265670000000  0.4845350000000  0.6045690000000 1.0
C      1  0.4611930000000  0.5317170000000  0.5563880000000 1.0
C      1  0.5055690000000  0.4402580000000  0.5705130000000 1.0
C      1  0.5624650000000  0.5276520000000  0.5589160000000 1.0
C      1  0.4406200000000  0.3907230000000  0.5105080000000 1.0
C      1  0.6268100000000  0.5060020000000  0.5032890000000 1.0
C      1  0.4286190000000  0.5986650000000  0.5058510000000 1.0
C      1  0.5454720000000  0.3952740000000  0.5212690000000 1.0
C      1  0.5995850000000  0.5816670000000  0.5267420000000 1.0
C      1  0.3801150000000  0.5156130000000  0.5129320000000 1.0
C      1  0.4890760000000  0.5647210000000  0.4468560000000 1.0
C      1  0.4500060000000  0.4616030000000  0.4412930000000 1.0
C      1  0.5606370000000  0.4777150000000  0.4469970000000 1.0
C      1  0.4989950000000  0.4603870000000  0.4493960000000 1.0
C      1  0.5422960000000  0.5221560000000  0.4499920000000 1.0
C      1  0.4543560000000  0.5319500000000  0.4328130000000 1.0
C      1  0.4698460000000  0.5764420000000  0.4651760000000 1.0
C      1  0.4485920000000  0.4394170000000  0.4593930000000 1.0
C      1  0.5787810000000  0.4911840000000  0.4657370000000 1.0
C      1  0.5566380000000  0.4521380000000  0.4348340000000 1.0
C      1  0.5121540000000  0.5726770000000  0.4320170000000 1.0
C      1  0.4288670000000  0.4765060000000  0.4289470000000 1.0
C      1  0.5924320000000  0.4654990000000  0.6031000000000 1.0
C      1  0.4917450000000  0.5753970000000  0.6052780000000 1.0
C      1  0.4254710000000  0.4574340000000  0.6038750000000 1.0
C      1  0.5715110000000  0.5039490000000  0.4918970000000 1.0
C      1  0.4648410000000  0.5625380000000  0.4911820000000 1.0
C      1  0.4619860000000  0.4410000000000  0.4850440000000 1.0
C      1  0.4727770000000  0.4917230000000  0.5050580000000 1.0
C      1  0.5294290000000  0.4851090000000  0.5170310000000 1.0
C      1  0.5037360000000  0.5352600000000  0.5092590000000 1.0
C      1  0.4732560000000  0.5789270000000  0.5843870000000 1.0
C      1  0.4384070000000  0.4329100000000  0.5912140000000 1.0
C      1  0.5997380000000  0.4868430000000  0.5834020000000 1.0
C      1  0.4319260000000  0.4520330000000  0.3832120000000 1.0
C      1  0.5779400000000  0.4655790000000  0.3892680000000 1.0
C      1  0.4865950000000  0.5810710000000  0.3872230000000 1.0
C      1  0.3538710000000  0.4517860000000  0.4612200000000 1.0
C      1  0.6112410000000  0.3975740000000  0.4558320000000 1.0
C      1  0.5202720000000  0.6459870000000  0.4539340000000 1.0
C      1  0.3760030000000  0.4109500000000  0.4736200000000 1.0
C      1  0.6342710000000  0.4394460000000  0.4639740000000 1.0
C      1  0.4745430000000  0.6453590000000  0.4701430000000 1.0
C      1  0.3564780000000  0.4251040000000  0.4619540000000 1.0
C      1  0.6314590000000  0.4150500000000  0.4531490000000 1.0
C      1  0.4949170000000  0.6545720000000  0.4553090000000 1.0
C      1  0.4181130000000  0.5010020000000  0.4389980000000 1.0
C      1  0.5378550000000  0.4318650000000  0.4429270000000 1.0
C      1  0.5397050000000  0.5695460000000  0.4401080000000 1.0
C      1  0.6192840000000  0.4541910000000  0.4825590000000 1.0
C      1  0.4733120000000  0.6255670000000  0.4900480000000 1.0
C      1  0.3985210000000  0.4173230000000  0.4889440000000 1.0
C      1  0.3882930000000  0.4783160000000  0.5420110000000 1.0
C      1  0.5854850000000  0.4086780000000  0.5414420000000 1.0
C      1  0.5477160000000  0.6030450000000  0.5299590000000 1.0
C      1  0.4924880000000  0.3953380000000  0.4179400000000 1.0
C      1  0.5939460000000  0.5500650000000  0.4182460000000 1.0
C      1  0.4065200000000  0.5607490000000  0.4238450000000 1.0
C      1  0.5479040000000  0.5001880000000  0.4336420000000 1.0
C      1  0.4792000000000  0.5378600000000  0.4435100000000 1.0
C      1  0.4769850000000  0.4644340000000  0.4322260000000 1.0
C      1  0.5631140000000  0.3929070000000  0.4531600000000 1.0
C      1  0.5554490000000  0.6130710000000  0.4478200000000 1.0
C      1  0.3735280000000  0.4955380000000  0.4545250000000 1.0
C      1  0.5247500000000  0.6110280000000  0.4878750000000 1.0
C      1  0.3852820000000  0.4677460000000  0.4949960000000 1.0
C      1  0.5849650000000  0.4142880000000  0.4930350000000 1.0
C      1  0.5822230000000  0.5316630000000  0.4913990000000 1.0
C      1  0.4368570000000  0.5543450000000  0.4903610000000 1.0
C      1  0.4797410000000  0.4185900000000  0.4891860000000 1.0
C      1  0.4306900000000  0.5297540000000  0.4771170000000 1.0
C      1  0.5065850000000  0.4247900000000  0.4812950000000 1.0
C      1  0.5634230000000  0.5518920000000  0.4815830000000 1.0
C      1  0.4217030000000  0.4437670000000  0.5213100000000 1.0
C      1  0.5894680000000  0.4549560000000  0.5193120000000 1.0
C      1  0.4973040000000  0.6103830000000  0.5283740000000 1.0
C      1  0.5011060000000  0.4791620000000  0.4696970000000 1.0
C      1  0.5287910000000  0.5148000000000  0.4734070000000 1.0
C      1  0.4846940000000  0.5225930000000  0.4660830000000 1.0
C      1  0.5051600000000  0.5927040000000  0.5488460000000 1.0
C      1  0.4306280000000  0.4539010000000  0.5461160000000 1.0
C      1  0.5825880000000  0.4561920000000  0.5464370000000 1.0
C      1  0.4184480000000  0.3981480000000  0.4945610000000 1.0
C      1  0.6255650000000  0.4812810000000  0.4889650000000 1.0
C      1  0.4484670000000  0.6159850000000  0.5000430000000 1.0
C      1  0.4702080000000  0.4175790000000  0.3764350000000 1.0
C      1  0.5879600000000  0.5157770000000  0.3794790000000 1.0
C      1  0.4359900000000  0.5697450000000  0.3818760000000 1.0
C      1  0.5365800000000  0.5564200000000  0.5877930000000 1.0
C      1  0.4333190000000  0.5056130000000  0.5868880000000 1.0
C      1  0.5480620000000  0.4432480000000  0.5943030000000 1.0
C      1  0.5580090000000  0.4978400000000  0.5170210000000 1.0
C      1  0.4797320000000  0.5526210000000  0.5145820000000 1.0
C      1  0.4661500000000  0.4622310000000  0.5033160000000 1.0
C      1  0.5516560000000  0.4260140000000  0.5714620000000 1.0
C      1  0.5484120000000  0.5721390000000  0.5666890000000 1.0
C      1  0.4263760000000  0.5004540000000  0.5594580000000 1.0
C      1  0.5240780000000  0.4890950000000  0.4820310000000 1.0
C      1  0.5073460000000  0.5315330000000  0.4799940000000 1.0
C      1  0.4787050000000  0.4966640000000  0.4750460000000 1.0
C      1  0.5911820000000  0.5389540000000  0.3924300000000 1.0
C      1  0.4148140000000  0.5634260000000  0.3969380000000 1.0
C      1  0.4869330000000  0.4030720000000  0.3913990000000 1.0
C      1  0.4200370000000  0.5714450000000  0.5056850000000 1.0
C      1  0.4668200000000  0.3965170000000  0.5011150000000 1.0
C      1  0.6101790000000  0.5287460000000  0.4973050000000 1.0
C      1  0.3822490000000  0.4874910000000  0.5160010000000 1.0
C      1  0.5726070000000  0.4026580000000  0.5167220000000 1.0
C      1  0.5428990000000  0.5942960000000  0.5032760000000 1.0
C      1  0.3334890000000  0.5696720000000  0.5056030000000 1.0
C      1  0.4763580000000  0.4124420000000  0.6266320000000 1.0
C      1  0.5949010000000  0.5317620000000  0.6152560000000 1.0
C      1  0.4847020000000  0.5753050000000  0.5583890000000 1.0
C      1  0.4512180000000  0.4442690000000  0.5649870000000 1.0
C      1  0.5826210000000  0.4825020000000  0.5580830000000 1.0
C      1  0.5059990000000  0.5806750000000  0.4056010000000 1.0
C      1  0.4226610000000  0.4675780000000  0.4028920000000 1.0
C      1  0.5685480000000  0.4503650000000  0.4091760000000 1.0
C      1  0.3911490000000  0.5108230000000  0.4389830000000 1.0
C      1  0.5416190000000  0.4037800000000  0.4387900000000 1.0
C      1  0.5601640000000  0.5887760000000  0.4344230000000 1.0
C      1  0.6407100000000  0.5051550000000  0.5277150000000 1.0
C      1  0.4073040000000  0.5659330000000  0.5519230000000 1.0
C      1  0.4349970000000  0.3849850000000  0.5374800000000 1.0
C      1  0.5291300000000  0.5495070000000  0.5159810000000 1.0
C      1  0.4480510000000  0.5045390000000  0.5153680000000 1.0
C      1  0.5305260000000  0.4552550000000  0.5151650000000 1.0
C      1  0.4453950000000  0.5851140000000  0.4521920000000 1.0
C      1  0.4515340000000  0.4139200000000  0.4465910000000 1.0
C      1  0.5979860000000  0.5075260000000  0.4509390000000 1.0
C      1  0.3705190000000  0.4724990000000  0.4705360000000 1.0
C      1  0.5859600000000  0.3998150000000  0.4681640000000 1.0
C      1  0.5346380000000  0.6239170000000  0.4638730000000 1.0
C      1  0.5249790000000  0.4863560000000  0.5486840000000 1.0
C      1  0.5040860000000  0.5126690000000  0.6047920000000 1.0
C      1  0.4789570000000  0.4773400000000  0.5843830000000 1.0
C      1  0.5840580000000  0.4893830000000  0.3788570000000 1.0
C      1  0.4616280000000  0.5765390000000  0.3789920000000 1.0
C      1  0.4498090000000  0.4345740000000  0.3738830000000 1.0
C      1  0.5277910000000  0.4837490000000  0.5763150000000 1.0
C      1  0.5282510000000  0.5076140000000  0.5913120000000 1.0
C      1  0.4800630000000  0.5040660000000  0.5935660000000 1.0
C      1  0.4985090000000  0.6161300000000  0.5007210000000 1.0
C      1  0.4016500000000  0.4435380000000  0.5007880000000 1.0
C      1  0.5977300000000  0.4407480000000  0.4965230000000 1.0
C      1  0.4245640000000  0.3922670000000  0.5609940000000 1.0
C      1  0.6418000000000  0.4954920000000  0.5525410000000 1.0
C      1  0.4222890000000  0.5744900000000  0.5724030000000 1.0
C      1  0.4286760000000  0.5088090000000  0.4956400000000 1.0
C      1  0.5234090000000  0.4334640000000  0.5019110000000 1.0
C      1  0.5465860000000  0.5659740000000  0.5001920000000 1.0
C      1  0.5130520000000  0.4369390000000  0.4556740000000 1.0
C      1  0.5510160000000  0.5483480000000  0.4551200000000 1.0
C      1  0.4346330000000  0.5213610000000  0.4497900000000 1.0
C      1  0.5044800000000  0.3796550000000  0.5420690000000 1.0
C      1  0.6168020000000  0.5580650000000  0.5638710000000 1.0
C      1  0.4020050000000  0.5600600000000  0.5247730000000 1.0
C      1  0.4440170000000  0.5137450000000  0.5413890000000 1.0
C      1  0.5251600000000  0.4198760000000  0.5595220000000 1.0
C      1  0.5696620000000  0.5557360000000  0.5547010000000 1.0
C      1  0.4140810000000  0.4764560000000  0.5529510000000 1.0
C      1  0.5755430000000  0.4303060000000  0.5568440000000 1.0
C      1  0.5338780000000  0.5912850000000  0.5519880000000 1.0
C      1  0.3797570000000  0.5437790000000  0.5164580000000 1.0
C      1  0.5243230000000  0.3984630000000  0.5404860000000 1.0
C      1  0.5954720000000  0.5651110000000  0.5481530000000 1.0
C      1  0.5437030000000  0.5288880000000  0.5818820000000 1.0
C      1  0.4588830000000  0.5201720000000  0.5840530000000 1.0
C      1  0.5244070000000  0.4576180000000  0.5867140000000 1.0
C      1  0.4704210000000  0.3981700000000  0.4355650000000 1.0
C      1  0.6017310000000  0.5309360000000  0.4379160000000 1.0
C      1  0.4216570000000  0.5770240000000  0.4418680000000 1.0
C      1  0.4739060000000  0.5537550000000  0.5429610000000 1.0
C      1  0.4788650000000  0.4525400000000  0.5699860000000 1.0
C      1  0.5691150000000  0.5040410000000  0.5439790000000 1.0
C      1  0.5952250000000  0.5128190000000  0.5973430000000 1.0
C      1  0.3556240000000  0.5570660000000  0.5111030000000 1.0
C      1  0.4588260000000  0.4220500000000  0.6099350000000 1.0
C      1  0.3898960000000  0.5385240000000  0.4313510000000 1.0
C      1  0.5191950000000  0.3911180000000  0.4267670000000 1.0
C      1  0.5836850000000  0.5761800000000  0.4241590000000 1.0
C      1  0.4451550000000  0.5801030000000  0.5852720000000 1.0
C      1  0.4217350000000  0.4103310000000  0.5806720000000 1.0
C      1  0.6279610000000  0.4861530000000  0.5734210000000 1.0
C      1  0.4990900000000  0.5049330000000  0.5171420000000 1.0
END
