TITL C-3201372-1405-352 205283.422943387 125000 -881.146469775105 0 0 152 (C1) n - 1
REM
REM in /home/nfs/bkarasulu/CARBON/AIRSS/Generating-Clusters/LCBOP/Higher-Symm/SD-CG/FIRE-CG
REM
REM
REM
REM
REM
REM ./C.cell (b20cbc046b6831c77cfcea5457e17084)
REM AIRSS Version 0.9.1 bugfix July 2018 build 013d7b7c2542+ Fri, 06 Jul 2018 19:26:36 +0100
REM compiler GCC version 9.2.1 20190827 (Red Hat 9.2.1-1)
REM options -cpp -mtune=generic -march=x86-64 -g -O0 -fpre-include=/usr/include/finclude/math-vector-fortran.h
REM seed -1158057203 -1435178566 1321129170 1228265385 89501263 1577192416 1694336516 1007759062 -390109411 1325477544 -1459973179 -1270065684 -1071684858 420185208 1251310332 -305945632 1682543184 1167324957 -1691976632 -670158983 -1713446437 1465054566 -417055978 456115028 2043869681 -104710792 617598313 1404594013 1743292037 63504016 -2114108789 -185265507 -499465777
REM
CELL 1.54180   50.00000   50.00000   50.00000   90.00000   90.00000   90.00000
LATT -1
SFAC C  
C      1  0.5281700000000  0.5618420000000  0.5124570000000 1.0
C      1  0.4969410000000  0.5636530000000  0.5301740000000 1.0
C      1  0.4687440000000  0.5619690000000  0.5074360000000 1.0
C      1  0.4841110000000  0.5629410000000  0.4743450000000 1.0
C      1  0.5200290000000  0.5616000000000  0.4770960000000 1.0
C      1  0.5281610000000  0.4392500000000  0.5139820000000 1.0
C      1  0.4958540000000  0.4404880000000  0.5326760000000 1.0
C      1  0.4691840000000  0.4392140000000  0.5087510000000 1.0
C      1  0.4832410000000  0.4389650000000  0.4760090000000 1.0
C      1  0.5197390000000  0.4390170000000  0.4784150000000 1.0
C      1  0.4025220000000  0.4922270000000  0.3797470000000 1.0
C      1  0.5946000000000  0.4863990000000  0.3642550000000 1.0
C      1  0.6478960000000  0.4870880000000  0.5627740000000 1.0
C      1  0.5345920000000  0.4919520000000  0.6557800000000 1.0
C      1  0.3367490000000  0.4781030000000  0.5266500000000 1.0
C      1  0.4088010000000  0.5173460000000  0.3740240000000 1.0
C      1  0.5888570000000  0.5120940000000  0.3611390000000 1.0
C      1  0.6467910000000  0.5132670000000  0.5668360000000 1.0
C      1  0.5342940000000  0.5184480000000  0.6551030000000 1.0
C      1  0.3363480000000  0.5041940000000  0.5313480000000 1.0
C      1  0.4819650000000  0.5270950000000  0.4107760000000 1.0
C      1  0.5795780000000  0.5243150000000  0.4548940000000 1.0
C      1  0.5667420000000  0.5262620000000  0.5628920000000 1.0
C      1  0.4627220000000  0.5241580000000  0.5858230000000 1.0
C      1  0.4085960000000  0.5250750000000  0.4908260000000 1.0
C      1  0.4785650000000  0.4778010000000  0.4109890000000 1.0
C      1  0.5786880000000  0.4752900000000  0.4552020000000 1.0
C      1  0.5664140000000  0.4774850000000  0.5637550000000 1.0
C      1  0.4604000000000  0.4749130000000  0.5847260000000 1.0
C      1  0.4082960000000  0.4762730000000  0.4903930000000 1.0
C      1  0.4610740000000  0.5236760000000  0.4291180000000 1.0
C      1  0.5546690000000  0.5192610000000  0.4428590000000 1.0
C      1  0.5715130000000  0.5204860000000  0.5358590000000 1.0
C      1  0.4892480000000  0.5171040000000  0.5841100000000 1.0
C      1  0.4210710000000  0.5194810000000  0.5153550000000 1.0
C      1  0.4583800000000  0.4857060000000  0.4280390000000 1.0
C      1  0.5538550000000  0.4808110000000  0.4432370000000 1.0
C      1  0.5713820000000  0.4819840000000  0.5365590000000 1.0
C      1  0.4879620000000  0.4789290000000  0.5823700000000 1.0
C      1  0.4206270000000  0.4809910000000  0.5151950000000 1.0
C      1  0.5927900000000  0.4405530000000  0.3895770000000 1.0
C      1  0.6301170000000  0.4391090000000  0.5508150000000 1.0
C      1  0.5266920000000  0.4432600000000  0.6377750000000 1.0
C      1  0.3591580000000  0.4324320000000  0.5138510000000 1.0
C      1  0.4050730000000  0.4451720000000  0.4031240000000 1.0
C      1  0.5700480000000  0.5585500000000  0.3766060000000 1.0
C      1  0.6250580000000  0.5610420000000  0.5670390000000 1.0
C      1  0.5254490000000  0.5659310000000  0.6345100000000 1.0
C      1  0.3566700000000  0.5525280000000  0.5329670000000 1.0
C      1  0.4320510000000  0.5639720000000  0.3803820000000 1.0
C      1  0.5252570000000  0.3858360000000  0.4819090000000 1.0
C      1  0.5144130000000  0.3958080000000  0.5267790000000 1.0
C      1  0.4671110000000  0.4007510000000  0.5393460000000 1.0
C      1  0.4783750000000  0.3943390000000  0.4916530000000 1.0
C      1  0.5014610000000  0.4050610000000  0.4475430000000 1.0
C      1  0.5509200000000  0.5963730000000  0.4887180000000 1.0
C      1  0.5160660000000  0.6075490000000  0.5214770000000 1.0
C      1  0.4678220000000  0.6025990000000  0.5321620000000 1.0
C      1  0.4572930000000  0.6019260000000  0.4833310000000 1.0
C      1  0.5055150000000  0.6070060000000  0.4730030000000 1.0
C      1  0.5839700000000  0.4241850000000  0.4084760000000 1.0
C      1  0.6119020000000  0.4211140000000  0.5439160000000 1.0
C      1  0.5193660000000  0.4247940000000  0.6202280000000 1.0
C      1  0.3796720000000  0.4165760000000  0.5083030000000 1.0
C      1  0.4152700000000  0.4261080000000  0.4184850000000 1.0
C      1  0.5595070000000  0.5757130000000  0.3938410000000 1.0
C      1  0.6058230000000  0.5784650000000  0.5615670000000 1.0
C      1  0.5179720000000  0.5832350000000  0.6158760000000 1.0
C      1  0.3758020000000  0.5705280000000  0.5293580000000 1.0
C      1  0.4469300000000  0.5814030000000  0.3937400000000 1.0
C      1  0.3431730000000  0.5297140000000  0.5336180000000 1.0
C      1  0.4189230000000  0.5418570000000  0.3738960000000 1.0
C      1  0.5802270000000  0.5368040000000  0.3653660000000 1.0
C      1  0.6390630000000  0.5385730000000  0.5685650000000 1.0
C      1  0.5311180000000  0.5437500000000  0.6478690000000 1.0
C      1  0.3444890000000  0.4535200000000  0.5204220000000 1.0
C      1  0.4009850000000  0.4677520000000  0.3898330000000 1.0
C      1  0.5962130000000  0.4618690000000  0.3741860000000 1.0
C      1  0.6423010000000  0.4617690000000  0.5572330000000 1.0
C      1  0.5319620000000  0.4662440000000  0.6498790000000 1.0
C      1  0.4042230000000  0.4070490000000  0.5052380000000 1.0
C      1  0.4313550000000  0.4126290000000  0.4347060000000 1.0
C      1  0.5700510000000  0.4139640000000  0.4285920000000 1.0
C      1  0.5889700000000  0.4098290000000  0.5368310000000 1.0
C      1  0.5108160000000  0.4124120000000  0.5984090000000 1.0
C      1  0.3989360000000  0.5819890000000  0.5233250000000 1.0
C      1  0.4614890000000  0.5922010000000  0.4131070000000 1.0
C      1  0.5494380000000  0.5870440000000  0.4155850000000 1.0
C      1  0.5835580000000  0.5890630000000  0.5518030000000 1.0
C      1  0.5096280000000  0.5941750000000  0.5932220000000 1.0
C      1  0.5021900000000  0.4071110000000  0.5739300000000 1.0
C      1  0.4305380000000  0.4040480000000  0.5058660000000 1.0
C      1  0.4519320000000  0.4067910000000  0.4503750000000 1.0
C      1  0.5517440000000  0.4098930000000  0.4473070000000 1.0
C      1  0.5635490000000  0.4068850000000  0.5299120000000 1.0
C      1  0.5017080000000  0.5977800000000  0.5682040000000 1.0
C      1  0.4240530000000  0.5864290000000  0.5161640000000 1.0
C      1  0.4730810000000  0.5957970000000  0.4366720000000 1.0
C      1  0.5401450000000  0.5916950000000  0.4399490000000 1.0
C      1  0.5614440000000  0.5925380000000  0.5376160000000 1.0
C      1  0.5372830000000  0.4130040000000  0.5235980000000 1.0
C      1  0.4948490000000  0.4082300000000  0.5459400000000 1.0
C      1  0.4588930000000  0.4075320000000  0.5115220000000 1.0
C      1  0.4772820000000  0.4095820000000  0.4648500000000 1.0
C      1  0.5273070000000  0.4086210000000  0.4626990000000 1.0
C      1  0.5410520000000  0.5906950000000  0.5168250000000 1.0
C      1  0.4957220000000  0.5942800000000  0.5396740000000 1.0
C      1  0.4526390000000  0.5891090000000  0.5100060000000 1.0
C      1  0.4796440000000  0.5932510000000  0.4651950000000 1.0
C      1  0.5303340000000  0.5901980000000  0.4673940000000 1.0
C      1  0.5050310000000  0.5147380000000  0.4217160000000 1.0
C      1  0.5769000000000  0.5142990000000  0.4814090000000 1.0
C      1  0.5406190000000  0.5165140000000  0.5683530000000 1.0
C      1  0.4492130000000  0.5151980000000  0.5627210000000 1.0
C      1  0.4262550000000  0.5152210000000  0.4708390000000 1.0
C      1  0.5033530000000  0.4860880000000  0.4217320000000 1.0
C      1  0.5766500000000  0.4856940000000  0.4815800000000 1.0
C      1  0.5405120000000  0.4878810000000  0.5690320000000 1.0
C      1  0.4480050000000  0.4865510000000  0.5620270000000 1.0
C      1  0.4262910000000  0.4865840000000  0.4709180000000 1.0
C      1  0.5017220000000  0.5171590000000  0.4742590000000 1.0
C      1  0.5257040000000  0.5170990000000  0.4947630000000 1.0
C      1  0.5135980000000  0.5175300000000  0.5239950000000 1.0
C      1  0.4822700000000  0.5178310000000  0.5214420000000 1.0
C      1  0.4745760000000  0.5179780000000  0.4905120000000 1.0
C      1  0.5011440000000  0.4839750000000  0.4744920000000 1.0
C      1  0.5255340000000  0.4834160000000  0.4949990000000 1.0
C      1  0.5132430000000  0.4843260000000  0.5244420000000 1.0
C      1  0.4815530000000  0.4844290000000  0.5215490000000 1.0
C      1  0.4742580000000  0.4844370000000  0.4908670000000 1.0
C      1  0.5539250000000  0.4753770000000  0.4949260000000 1.0
C      1  0.5213570000000  0.4764920000000  0.5516200000000 1.0
C      1  0.4587430000000  0.4760330000000  0.5381240000000 1.0
C      1  0.4520940000000  0.4754710000000  0.4742170000000 1.0
C      1  0.5087540000000  0.4748990000000  0.4473320000000 1.0
C      1  0.5540990000000  0.5252150000000  0.4942650000000 1.0
C      1  0.5215510000000  0.5274020000000  0.5503380000000 1.0
C      1  0.4599250000000  0.5261330000000  0.5388940000000 1.0
C      1  0.4521780000000  0.5264810000000  0.4735050000000 1.0
C      1  0.5104140000000  0.5249950000000  0.4473650000000 1.0
C      1  0.4633800000000  0.5407570000000  0.4529960000000 1.0
C      1  0.5338960000000  0.5382300000000  0.4517970000000 1.0
C      1  0.5569150000000  0.5387160000000  0.5179170000000 1.0
C      1  0.5011960000000  0.5419580000000  0.5596840000000 1.0
C      1  0.4431570000000  0.5380280000000  0.5209320000000 1.0
C      1  0.4627280000000  0.4608950000000  0.4546320000000 1.0
C      1  0.5326810000000  0.4622210000000  0.4522820000000 1.0
C      1  0.5569590000000  0.4632080000000  0.5191150000000 1.0
C      1  0.5003660000000  0.4623640000000  0.5618230000000 1.0
C      1  0.4427640000000  0.4619350000000  0.5206960000000 1.0
C      1  0.5069120000000  0.6209740000000  0.4979280000000 1.0
C      1  0.5046230000000  0.3859420000000  0.5015760000000 1.0
END
