TITL C-3201373-1215-820 5.81298065959538e-08 125000 -346.090458694434 0 0 58 (C1) n - 1
REM
REM in /home/nfs/bkarasulu/CARBON/AIRSS/Generating-Clusters/LCBOP/Higher-Symm/SD-CG/FIRE-CG
REM
REM
REM
REM
REM
REM ./C.cell (b20cbc046b6831c77cfcea5457e17084)
REM AIRSS Version 0.9.1 bugfix July 2018 build 013d7b7c2542+ Fri, 06 Jul 2018 19:26:36 +0100
REM compiler GCC version 9.2.1 20190827 (Red Hat 9.2.1-1)
REM options -cpp -mtune=generic -march=x86-64 -g -O0 -fpre-include=/usr/include/finclude/math-vector-fortran.h
REM seed -1330099858 -772286105 -981153206 -1559828311 -633944879 1882416810 -1351958953 1981805832 1365114718 -379080342 602429809 -1050833317 1641536375 1631674119 -279081407 -1853701085 -1563035705 -1433511290 -1611512246 -1531521894 326298651 823449359 49441773 2102850352 151219638 1193510388 1062048740 2139875658 1499394888 224738632 1472226937 -1708914111 -1458933829
REM
CELL 1.54180   50.00000   50.00000   50.00000   90.00000   90.00000   90.00000
LATT -1
SFAC C  
C      1  0.4588160000000  0.5481610000000  0.5327350000000 1.0
C      1  0.4554770000000  0.5550860000000  0.4688470000000 1.0
C      1  0.5275960000000  0.5729990000000  0.5266710000000 1.0
C      1  0.5248650000000  0.5719330000000  0.4727420000000 1.0
C      1  0.5021040000000  0.5236210000000  0.4724320000000 1.0
C      1  0.4987740000000  0.5158240000000  0.5207740000000 1.0
C      1  0.4397910000000  0.5353900000000  0.4849390000000 1.0
C      1  0.4428780000000  0.5316850000000  0.5142350000000 1.0
C      1  0.5008450000000  0.4974930000000  0.5681680000000 1.0
C      1  0.4957890000000  0.5097930000000  0.4234800000000 1.0
C      1  0.5081020000000  0.4999970000000  0.4027200000000 1.0
C      1  0.5131160000000  0.4883040000000  0.5892350000000 1.0
C      1  0.4787580000000  0.4467660000000  0.4767520000000 1.0
C      1  0.4744590000000  0.4616080000000  0.5233280000000 1.0
C      1  0.5004830000000  0.5768580000000  0.4868290000000 1.0
C      1  0.5017600000000  0.5754370000000  0.5155080000000 1.0
C      1  0.4482580000000  0.4449690000000  0.5142400000000 1.0
C      1  0.4502870000000  0.4419240000000  0.4837290000000 1.0
C      1  0.4353640000000  0.5089820000000  0.4702780000000 1.0
C      1  0.4400980000000  0.5030750000000  0.5234140000000 1.0
C      1  0.4991330000000  0.4463980000000  0.5346340000000 1.0
C      1  0.5028470000000  0.4330210000000  0.4693530000000 1.0
C      1  0.5486780000000  0.5593620000000  0.4693140000000 1.0
C      1  0.5524860000000  0.5627330000000  0.5251960000000 1.0
C      1  0.4826830000000  0.5196420000000  0.4476280000000 1.0
C      1  0.4844840000000  0.5082140000000  0.5465330000000 1.0
C      1  0.5428000000000  0.4996000000000  0.5313940000000 1.0
C      1  0.5423750000000  0.4951280000000  0.4650310000000 1.0
C      1  0.5251630000000  0.5103960000000  0.5120360000000 1.0
C      1  0.5260260000000  0.5112400000000  0.4822670000000 1.0
C      1  0.4685390000000  0.5323520000000  0.5545670000000 1.0
C      1  0.4653990000000  0.5439340000000  0.4442340000000 1.0
C      1  0.4214590000000  0.4849840000000  0.5110050000000 1.0
C      1  0.4222080000000  0.4855150000000  0.4818310000000 1.0
C      1  0.4618300000000  0.5004720000000  0.4605780000000 1.0
C      1  0.4636210000000  0.4887580000000  0.5354320000000 1.0
C      1  0.5608990000000  0.5141930000000  0.4538900000000 1.0
C      1  0.5611930000000  0.5186080000000  0.5412000000000 1.0
C      1  0.5680280000000  0.5392080000000  0.5223820000000 1.0
C      1  0.5662460000000  0.5368090000000  0.4714250000000 1.0
C      1  0.5038000000000  0.4062550000000  0.4815970000000 1.0
C      1  0.4978940000000  0.4170410000000  0.5306730000000 1.0
C      1  0.5297500000000  0.4453690000000  0.4781850000000 1.0
C      1  0.5283260000000  0.4522510000000  0.5265740000000 1.0
C      1  0.4764880000000  0.5696790000000  0.5272550000000 1.0
C      1  0.4736130000000  0.5752140000000  0.4774220000000 1.0
C      1  0.5472140000000  0.4687180000000  0.4758970000000 1.0
C      1  0.5484160000000  0.4725150000000  0.5251840000000 1.0
C      1  0.4237650000000  0.4582790000000  0.5217710000000 1.0
C      1  0.4301160000000  0.4591410000000  0.4711590000000 1.0
C      1  0.5325130000000  0.4324260000000  0.5051460000000 1.0
C      1  0.4848750000000  0.5171830000000  0.4957690000000 1.0
C      1  0.5142850000000  0.4087180000000  0.5082930000000 1.0
C      1  0.5813920000000  0.4981990000000  0.4981980000000 1.0
C      1  0.5766480000000  0.5274890000000  0.4971000000000 1.0
C      1  0.5642640000000  0.4744200000000  0.5000500000000 1.0
C      1  0.4742550000000  0.4929420000000  0.4857160000000 1.0
C      1  0.4836010000000  0.4688840000000  0.4946100000000 1.0
END
