TITL C-3201379-3821-1431 154.957140382951 125000 -892.716186111141 0 0 145 (C1) n - 1
REM
REM in /home/nfs/bkarasulu/CARBON/AIRSS/Generating-Clusters/LCBOP/Higher-Symm/SD-CG/FIRE-CG
REM
REM
REM
REM
REM
REM ./C.cell (b20cbc046b6831c77cfcea5457e17084)
REM AIRSS Version 0.9.1 bugfix July 2018 build 013d7b7c2542+ Fri, 06 Jul 2018 19:26:36 +0100
REM compiler GCC version 9.2.1 20190827 (Red Hat 9.2.1-1)
REM options -cpp -mtune=generic -march=x86-64 -g -O0 -fpre-include=/usr/include/finclude/math-vector-fortran.h
REM seed -402136302 608656514 -106555175 -1055349135 -555750173 207343715 -1486919920 -1479300834 -2128954693 603179165 1316153778 1047833905 1327886174 1228956541 188937214 -1399315765 -622812404 240760314 -1265018014 1356910293 1976096682 -696787383 -585512454 1097721111 865305180 1444065749 -361243638 1368566754 -1147816006 -794517262 -593542026 -248835181 41949387
REM
CELL 1.54180   50.00000   50.00000   50.00000   90.00000   90.00000   90.00000
LATT -1
SFAC C  
C      1  0.5352160000000  0.5593330000000  0.5908720000000 1.0
C      1  0.5322760000000  0.5920680000000  0.4472450000000 1.0
C      1  0.5380450000000  0.4600320000000  0.3983120000000 1.0
C      1  0.5325200000000  0.4014360000000  0.5535690000000 1.0
C      1  0.4265050000000  0.5891570000000  0.5196950000000 1.0
C      1  0.4253140000000  0.5198390000000  0.4101860000000 1.0
C      1  0.4238460000000  0.4092420000000  0.4747090000000 1.0
C      1  0.4307180000000  0.4774940000000  0.5888890000000 1.0
C      1  0.4795540000000  0.5863790000000  0.5425100000000 1.0
C      1  0.4770570000000  0.5440660000000  0.4178220000000 1.0
C      1  0.4689540000000  0.4142890000000  0.4390270000000 1.0
C      1  0.4797960000000  0.4509670000000  0.5806790000000 1.0
C      1  0.4744530000000  0.4706180000000  0.4133050000000 1.0
C      1  0.4760840000000  0.4112210000000  0.5213360000000 1.0
C      1  0.4803250000000  0.5283670000000  0.5811630000000 1.0
C      1  0.4772030000000  0.5823600000000  0.4763300000000 1.0
C      1  0.4987420000000  0.3688230000000  0.5354120000000 1.0
C      1  0.5023360000000  0.5395010000000  0.6243580000000 1.0
C      1  0.5003750000000  0.6254510000000  0.4682940000000 1.0
C      1  0.4979440000000  0.4628290000000  0.3689900000000 1.0
C      1  0.4180620000000  0.5488660000000  0.5429490000000 1.0
C      1  0.4138070000000  0.5421600000000  0.4503870000000 1.0
C      1  0.4106560000000  0.4504060000000  0.4556550000000 1.0
C      1  0.4163270000000  0.4551990000000  0.5496180000000 1.0
C      1  0.5244320000000  0.5516070000000  0.6154930000000 1.0
C      1  0.5225120000000  0.6167950000000  0.4559860000000 1.0
C      1  0.5243490000000  0.4603690000000  0.3737230000000 1.0
C      1  0.5215130000000  0.3763610000000  0.5475320000000 1.0
C      1  0.5056510000000  0.5851960000000  0.5351960000000 1.0
C      1  0.5026530000000  0.5365670000000  0.4223290000000 1.0
C      1  0.4942870000000  0.4128370000000  0.4475420000000 1.0
C      1  0.5052150000000  0.4580860000000  0.5749400000000 1.0
C      1  0.4873070000000  0.5370630000000  0.4764660000000 1.0
C      1  0.4870900000000  0.4737310000000  0.4579920000000 1.0
C      1  0.4882030000000  0.4564160000000  0.5207220000000 1.0
C      1  0.4899810000000  0.5239310000000  0.5365100000000 1.0
C      1  0.3773500000000  0.5219870000000  0.5009580000000 1.0
C      1  0.3751660000000  0.4984080000000  0.4783320000000 1.0
C      1  0.3771950000000  0.4779520000000  0.5040300000000 1.0
C      1  0.3789240000000  0.5014310000000  0.5236770000000 1.0
C      1  0.5616600000000  0.5557010000000  0.5035180000000 1.0
C      1  0.5564310000000  0.5058690000000  0.4604080000000 1.0
C      1  0.5597530000000  0.4581140000000  0.5213850000000 1.0
C      1  0.5700730000000  0.5139900000000  0.5448510000000 1.0
C      1  0.4333850000000  0.5825360000000  0.4945800000000 1.0
C      1  0.4329560000000  0.4946380000000  0.4152740000000 1.0
C      1  0.4335890000000  0.4139390000000  0.4991910000000 1.0
C      1  0.4399750000000  0.5019550000000  0.5829930000000 1.0
C      1  0.5249040000000  0.5430000000000  0.4387830000000 1.0
C      1  0.5200120000000  0.4155570000000  0.4544670000000 1.0
C      1  0.5258210000000  0.4492250000000  0.5577760000000 1.0
C      1  0.5292290000000  0.5707840000000  0.5424610000000 1.0
C      1  0.5199020000000  0.5670620000000  0.4542160000000 1.0
C      1  0.5227240000000  0.4674130000000  0.4209580000000 1.0
C      1  0.5186380000000  0.4249030000000  0.5443990000000 1.0
C      1  0.5229520000000  0.5532220000000  0.5654080000000 1.0
C      1  0.4526240000000  0.5678790000000  0.4804700000000 1.0
C      1  0.4512420000000  0.4782400000000  0.4286400000000 1.0
C      1  0.4526970000000  0.4269130000000  0.5148790000000 1.0
C      1  0.4569000000000  0.5182220000000  0.5678220000000 1.0
C      1  0.5972920000000  0.5346830000000  0.4474430000000 1.0
C      1  0.5879550000000  0.4454710000000  0.4698880000000 1.0
C      1  0.5979310000000  0.4662980000000  0.5613490000000 1.0
C      1  0.6045070000000  0.5601310000000  0.5364810000000 1.0
C      1  0.4404040000000  0.5135340000000  0.4811830000000 1.0
C      1  0.4402310000000  0.4807580000000  0.4829780000000 1.0
C      1  0.4418350000000  0.4820790000000  0.5165640000000 1.0
C      1  0.4418550000000  0.5157370000000  0.5138340000000 1.0
C      1  0.5000820000000  0.5152390000000  0.4873780000000 1.0
C      1  0.5010360000000  0.4841870000000  0.4789340000000 1.0
C      1  0.5015390000000  0.4785230000000  0.5108590000000 1.0
C      1  0.5014230000000  0.5082930000000  0.5167950000000 1.0
C      1  0.6223560000000  0.5160350000000  0.5192960000000 1.0
C      1  0.6153500000000  0.5169780000000  0.4904900000000 1.0
C      1  0.6131240000000  0.4867030000000  0.4869620000000 1.0
C      1  0.6217770000000  0.4796870000000  0.5196450000000 1.0
C      1  0.4547120000000  0.4375790000000  0.5784390000000 1.0
C      1  0.4554300000000  0.5815330000000  0.5571470000000 1.0
C      1  0.4522890000000  0.5581020000000  0.4203710000000 1.0
C      1  0.4421060000000  0.4189670000000  0.4311770000000 1.0
C      1  0.4227740000000  0.4251120000000  0.4512360000000 1.0
C      1  0.4311620000000  0.4532160000000  0.5740010000000 1.0
C      1  0.4311830000000  0.5743480000000  0.5435550000000 1.0
C      1  0.4280470000000  0.5436410000000  0.4255520000000 1.0
C      1  0.4530620000000  0.4104460000000  0.5814430000000 1.0
C      1  0.4551240000000  0.5851430000000  0.5843140000000 1.0
C      1  0.4515430000000  0.5852670000000  0.4169610000000 1.0
C      1  0.4346950000000  0.4169400000000  0.4049280000000 1.0
C      1  0.4609090000000  0.5209720000000  0.5385830000000 1.0
C      1  0.4581510000000  0.5386500000000  0.4761150000000 1.0
C      1  0.4578560000000  0.4754280000000  0.4577160000000 1.0
C      1  0.4589680000000  0.4559450000000  0.5194590000000 1.0
C      1  0.6028690000000  0.4926280000000  0.5715900000000 1.0
C      1  0.6076360000000  0.5692550000000  0.5097650000000 1.0
C      1  0.5990400000000  0.5080100000000  0.4378850000000 1.0
C      1  0.5921090000000  0.4328970000000  0.4947190000000 1.0
C      1  0.5865700000000  0.4459740000000  0.5188230000000 1.0
C      1  0.5947530000000  0.5171040000000  0.5592450000000 1.0
C      1  0.5888660000000  0.5574290000000  0.4917260000000 1.0
C      1  0.5808540000000  0.4910590000000  0.4520110000000 1.0
C      1  0.5563250000000  0.5702560000000  0.5297070000000 1.0
C      1  0.5498540000000  0.5299800000000  0.4439980000000 1.0
C      1  0.5458340000000  0.4221850000000  0.4570270000000 1.0
C      1  0.5514080000000  0.4579190000000  0.5496290000000 1.0
C      1  0.5719790000000  0.4254550000000  0.5776010000000 1.0
C      1  0.5777890000000  0.5800210000000  0.5734620000000 1.0
C      1  0.5719950000000  0.5713660000000  0.4260140000000 1.0
C      1  0.5761080000000  0.4377560000000  0.4231480000000 1.0
C      1  0.4792630000000  0.3837130000000  0.5244160000000 1.0
C      1  0.4829190000000  0.5296540000000  0.6088250000000 1.0
C      1  0.4802660000000  0.6100020000000  0.4769640000000 1.0
C      1  0.4773760000000  0.4666580000000  0.3858560000000 1.0
C      1  0.5737280000000  0.4519180000000  0.5675790000000 1.0
C      1  0.5802160000000  0.5715860000000  0.5470460000000 1.0
C      1  0.5733900000000  0.5461140000000  0.4375220000000 1.0
C      1  0.5709080000000  0.4336260000000  0.4504640000000 1.0
C      1  0.3969920000000  0.4722750000000  0.4434660000000 1.0
C      1  0.4015900000000  0.4426300000000  0.5282810000000 1.0
C      1  0.4047820000000  0.5273790000000  0.5568080000000 1.0
C      1  0.4003340000000  0.5552410000000  0.4722080000000 1.0
C      1  0.4200950000000  0.4817410000000  0.5385250000000 1.0
C      1  0.4198860000000  0.5375410000000  0.5162110000000 1.0
C      1  0.4166880000000  0.5154260000000  0.4614030000000 1.0
C      1  0.4164260000000  0.4605540000000  0.4823010000000 1.0
C      1  0.4982420000000  0.5635930000000  0.4718260000000 1.0
C      1  0.4970520000000  0.4697870000000  0.4313780000000 1.0
C      1  0.4976760000000  0.4293400000000  0.5262510000000 1.0
C      1  0.5010450000000  0.5347970000000  0.5615850000000 1.0
C      1  0.3966300000000  0.4572050000000  0.5035140000000 1.0
C      1  0.3998130000000  0.5021850000000  0.5430290000000 1.0
C      1  0.3976550000000  0.5415570000000  0.4978020000000 1.0
C      1  0.3945550000000  0.4969830000000  0.4580830000000 1.0
C      1  0.5588340000000  0.5743520000000  0.5912960000000 1.0
C      1  0.5548960000000  0.5913060000000  0.4307540000000 1.0
C      1  0.5632640000000  0.4488480000000  0.4024910000000 1.0
C      1  0.5554990000000  0.4054580000000  0.5696800000000 1.0
C      1  0.5592270000000  0.4833530000000  0.5068630000000 1.0
C      1  0.5463640000000  0.5249220000000  0.5339320000000 1.0
C      1  0.5478860000000  0.5300270000000  0.5046580000000 1.0
C      1  0.5503280000000  0.5051250000000  0.4887520000000 1.0
C      1  0.6066780000000  0.4608970000000  0.5340210000000 1.0
C      1  0.6123170000000  0.5322180000000  0.5412210000000 1.0
C      1  0.6018840000000  0.5374000000000  0.4756420000000 1.0
C      1  0.5949330000000  0.4732240000000  0.4692800000000 1.0
C      1  0.5782880000000  0.4975640000000  0.5228070000000 1.0
END
