TITL C-3201375-1262-1078 -14.6456688958356 125000 -1103.35893372766 0 0 179 (C1) n - 1
REM
REM in /home/nfs/bkarasulu/CARBON/AIRSS/Generating-Clusters/LCBOP/Higher-Symm/SD-CG/FIRE-CG
REM
REM
REM
REM
REM
REM ./C.cell (b20cbc046b6831c77cfcea5457e17084)
REM AIRSS Version 0.9.1 bugfix July 2018 build 013d7b7c2542+ Fri, 06 Jul 2018 19:26:36 +0100
REM compiler GCC version 9.2.1 20190827 (Red Hat 9.2.1-1)
REM options -cpp -mtune=generic -march=x86-64 -g -O0 -fpre-include=/usr/include/finclude/math-vector-fortran.h
REM seed 1979612986 807895035 569517848 735543540 434000506 592358601 -1117228825 1043605229 -265929586 1354871524 704488113 -1964192614 -831165062 1856274456 -424051385 74617012 -1667859457 28697319 442690416 -505766459 -185512098 -1585722688 1464619683 890575239 1648835514 -1220648698 1951394280 460618981 199755865 550541981 1160501219 -1222801313 1534959491
REM
CELL 1.54180   50.00000   50.00000   50.00000   90.00000   90.00000   90.00000
LATT -1
SFAC C  
C      1  0.5248950000000  0.5884260000000  0.4504090000000 1.0
C      1  0.4771840000000  0.5825840000000  0.4566150000000 1.0
C      1  0.5579350000000  0.5093430000000  0.4500640000000 1.0
C      1  0.4139820000000  0.5225880000000  0.4592910000000 1.0
C      1  0.4388450000000  0.4709260000000  0.3620100000000 1.0
C      1  0.5809640000000  0.4967750000000  0.3813500000000 1.0
C      1  0.5500640000000  0.5653580000000  0.5477600000000 1.0
C      1  0.4602080000000  0.5757390000000  0.5502350000000 1.0
C      1  0.4653500000000  0.4370310000000  0.6195970000000 1.0
C      1  0.5377570000000  0.4386540000000  0.6144930000000 1.0
C      1  0.5443440000000  0.4701950000000  0.5024420000000 1.0
C      1  0.4486250000000  0.4810510000000  0.5039280000000 1.0
C      1  0.4369640000000  0.5569330000000  0.4272100000000 1.0
C      1  0.5481010000000  0.5544380000000  0.4233100000000 1.0
C      1  0.4056540000000  0.4563650000000  0.5875680000000 1.0
C      1  0.5907430000000  0.4636590000000  0.5774990000000 1.0
C      1  0.6052360000000  0.4208940000000  0.5606030000000 1.0
C      1  0.3926110000000  0.4203070000000  0.5585720000000 1.0
C      1  0.6171180000000  0.4778410000000  0.5009930000000 1.0
C      1  0.3791370000000  0.4919510000000  0.5256420000000 1.0
C      1  0.5921670000000  0.4040450000000  0.4591850000000 1.0
C      1  0.4088460000000  0.4139940000000  0.4576720000000 1.0
C      1  0.6000810000000  0.4581300000000  0.4038670000000 1.0
C      1  0.4477290000000  0.4230740000000  0.3607700000000 1.0
C      1  0.6028280000000  0.4807720000000  0.3892040000000 1.0
C      1  0.4309820000000  0.4442310000000  0.3571240000000 1.0
C      1  0.4224210000000  0.4937410000000  0.5040990000000 1.0
C      1  0.5693630000000  0.4824010000000  0.4952690000000 1.0
C      1  0.4120770000000  0.4037840000000  0.5492240000000 1.0
C      1  0.5868460000000  0.4019120000000  0.5542550000000 1.0
C      1  0.5201620000000  0.5548720000000  0.3843840000000 1.0
C      1  0.4701910000000  0.5478040000000  0.3898640000000 1.0
C      1  0.5247860000000  0.4323710000000  0.5899470000000 1.0
C      1  0.4761270000000  0.4321470000000  0.5937830000000 1.0
C      1  0.4343080000000  0.5175460000000  0.3742130000000 1.0
C      1  0.5607780000000  0.5369880000000  0.3629620000000 1.0
C      1  0.3903800000000  0.5343540000000  0.5072970000000 1.0
C      1  0.6014000000000  0.5194640000000  0.4847000000000 1.0
C      1  0.5535420000000  0.4622330000000  0.6163010000000 1.0
C      1  0.4452310000000  0.4566150000000  0.6237710000000 1.0
C      1  0.3697730000000  0.5169820000000  0.5168510000000 1.0
C      1  0.6227650000000  0.5003180000000  0.4849350000000 1.0
C      1  0.4767590000000  0.4377810000000  0.4632710000000 1.0
C      1  0.5243800000000  0.4333570000000  0.4595040000000 1.0
C      1  0.5501260000000  0.5946870000000  0.4605950000000 1.0
C      1  0.4547630000000  0.5996420000000  0.4655460000000 1.0
C      1  0.5493890000000  0.5259000000000  0.5169770000000 1.0
C      1  0.4539230000000  0.5395640000000  0.5124590000000 1.0
C      1  0.5754810000000  0.4495580000000  0.4113710000000 1.0
C      1  0.4733970000000  0.4263160000000  0.3692490000000 1.0
C      1  0.4611500000000  0.5973350000000  0.5286590000000 1.0
C      1  0.5485420000000  0.5882910000000  0.5270720000000 1.0
C      1  0.5002120000000  0.5136540000000  0.4697830000000 1.0
C      1  0.4758410000000  0.5544860000000  0.4656580000000 1.0
C      1  0.5875850000000  0.5600450000000  0.5164040000000 1.0
C      1  0.4169500000000  0.5753450000000  0.5273300000000 1.0
C      1  0.4713810000000  0.4950810000000  0.5137860000000 1.0
C      1  0.5251460000000  0.4856210000000  0.5168860000000 1.0
C      1  0.4593460000000  0.4005330000000  0.5578730000000 1.0
C      1  0.5387680000000  0.3970890000000  0.5563720000000 1.0
C      1  0.4136070000000  0.4577420000000  0.5380900000000 1.0
C      1  0.5853060000000  0.4509460000000  0.5299300000000 1.0
C      1  0.4317740000000  0.5687510000000  0.5513640000000 1.0
C      1  0.5772070000000  0.5546300000000  0.5430200000000 1.0
C      1  0.6528150000000  0.5706800000000  0.4884140000000 1.0
C      1  0.3488240000000  0.5938160000000  0.5132700000000 1.0
C      1  0.5232300000000  0.3790910000000  0.5411520000000 1.0
C      1  0.4727040000000  0.3808710000000  0.5424690000000 1.0
C      1  0.4665240000000  0.4743020000000  0.3686110000000 1.0
C      1  0.5544930000000  0.4885080000000  0.3902960000000 1.0
C      1  0.3273060000000  0.6091220000000  0.5109810000000 1.0
C      1  0.6757750000000  0.5827970000000  0.4830690000000 1.0
C      1  0.5237860000000  0.4963520000000  0.6437540000000 1.0
C      1  0.4722700000000  0.4944370000000  0.6479540000000 1.0
C      1  0.3999180000000  0.4476800000000  0.5615010000000 1.0
C      1  0.5980320000000  0.4479540000000  0.5554360000000 1.0
C      1  0.5357270000000  0.5326840000000  0.3754820000000 1.0
C      1  0.4614610000000  0.5222780000000  0.3810500000000 1.0
C      1  0.5438040000000  0.4829900000000  0.6324350000000 1.0
C      1  0.4525130000000  0.4788250000000  0.6392980000000 1.0
C      1  0.5286520000000  0.5688830000000  0.4077940000000 1.0
C      1  0.4618560000000  0.5621590000000  0.4133510000000 1.0
C      1  0.5613180000000  0.4093070000000  0.5435590000000 1.0
C      1  0.4381920000000  0.4146630000000  0.5437610000000 1.0
C      1  0.4673270000000  0.5204050000000  0.5266100000000 1.0
C      1  0.5349280000000  0.5080620000000  0.5322290000000 1.0
C      1  0.4236560000000  0.4943950000000  0.3650170000000 1.0
C      1  0.5819700000000  0.5205520000000  0.3663630000000 1.0
C      1  0.5569730000000  0.5303840000000  0.4914090000000 1.0
C      1  0.4337260000000  0.5431010000000  0.4950160000000 1.0
C      1  0.4830470000000  0.6159360000000  0.5261600000000 1.0
C      1  0.5309420000000  0.6104210000000  0.5248520000000 1.0
C      1  0.5515480000000  0.4629420000000  0.4045140000000 1.0
C      1  0.4841970000000  0.4516830000000  0.3748300000000 1.0
C      1  0.4524020000000  0.4385870000000  0.4783370000000 1.0
C      1  0.5479560000000  0.4303180000000  0.4750650000000 1.0
C      1  0.4363910000000  0.5928680000000  0.5121750000000 1.0
C      1  0.5685230000000  0.5806660000000  0.5061830000000 1.0
C      1  0.5334630000000  0.4957240000000  0.4427030000000 1.0
C      1  0.4298210000000  0.5035600000000  0.4458220000000 1.0
C      1  0.6300510000000  0.5581410000000  0.4935140000000 1.0
C      1  0.3700880000000  0.5781850000000  0.5154930000000 1.0
C      1  0.4360740000000  0.4404120000000  0.5282870000000 1.0
C      1  0.5629160000000  0.4319380000000  0.5246330000000 1.0
C      1  0.5726170000000  0.5077280000000  0.4787470000000 1.0
C      1  0.4135740000000  0.5210930000000  0.4911420000000 1.0
C      1  0.4557400000000  0.5046010000000  0.4389750000000 1.0
C      1  0.5050840000000  0.4989080000000  0.4466630000000 1.0
C      1  0.5063840000000  0.6219930000000  0.4247480000000 1.0
C      1  0.5033420000000  0.6346050000000  0.4502540000000 1.0
C      1  0.5246900000000  0.4054490000000  0.5798440000000 1.0
C      1  0.4742560000000  0.4059170000000  0.5819300000000 1.0
C      1  0.4216620000000  0.5505420000000  0.4506980000000 1.0
C      1  0.5564180000000  0.5390500000000  0.4451680000000 1.0
C      1  0.4281990000000  0.5633970000000  0.4758200000000 1.0
C      1  0.5571910000000  0.5505530000000  0.4716160000000 1.0
C      1  0.6455630000000  0.5029850000000  0.4703020000000 1.0
C      1  0.3433430000000  0.5235760000000  0.5167300000000 1.0
C      1  0.4800440000000  0.5566030000000  0.5589900000000 1.0
C      1  0.5288320000000  0.5490840000000  0.5601960000000 1.0
C      1  0.4790770000000  0.4998080000000  0.3766800000000 1.0
C      1  0.5313660000000  0.5052820000000  0.3838080000000 1.0
C      1  0.5475080000000  0.4413410000000  0.5019030000000 1.0
C      1  0.4484090000000  0.4517430000000  0.5039200000000 1.0
C      1  0.4816130000000  0.5794650000000  0.4262170000000 1.0
C      1  0.5119760000000  0.5903800000000  0.4224710000000 1.0
C      1  0.5915720000000  0.4700530000000  0.5095070000000 1.0
C      1  0.4045000000000  0.4803120000000  0.5228480000000 1.0
C      1  0.3931800000000  0.5621580000000  0.5171070000000 1.0
C      1  0.6054210000000  0.5453950000000  0.4987180000000 1.0
C      1  0.6983760000000  0.5946700000000  0.4777910000000 1.0
C      1  0.3061160000000  0.6241410000000  0.5087300000000 1.0
C      1  0.4361900000000  0.5892500000000  0.4837050000000 1.0
C      1  0.5614900000000  0.5772980000000  0.4789790000000 1.0
C      1  0.5754490000000  0.4662100000000  0.5992190000000 1.0
C      1  0.4211530000000  0.4560210000000  0.6093330000000 1.0
C      1  0.4792180000000  0.4234830000000  0.6404310000000 1.0
C      1  0.5276870000000  0.4236630000000  0.6365540000000 1.0
C      1  0.4301200000000  0.4255510000000  0.4673080000000 1.0
C      1  0.5703450000000  0.4167990000000  0.4655270000000 1.0
C      1  0.5239780000000  0.5198810000000  0.5556000000000 1.0
C      1  0.4784980000000  0.5290990000000  0.5508870000000 1.0
C      1  0.5015590000000  0.3869920000000  0.6184700000000 1.0
C      1  0.5066460000000  0.6111970000000  0.5741310000000 1.0
C      1  0.5063260000000  0.5687900000000  0.5181760000000 1.0
C      1  0.5012960000000  0.3591500000000  0.4736820000000 1.0
C      1  0.5035890000000  0.6159400000000  0.5472820000000 1.0
C      1  0.5026680000000  0.5933620000000  0.4673450000000 1.0
C      1  0.4754950000000  0.4661400000000  0.4239840000000 1.0
C      1  0.5000670000000  0.4091990000000  0.4942200000000 1.0
C      1  0.4999470000000  0.4451530000000  0.5839570000000 1.0
C      1  0.5056360000000  0.5630940000000  0.5708230000000 1.0
C      1  0.5151220000000  0.4407100000000  0.4325890000000 1.0
C      1  0.5082620000000  0.5868690000000  0.5854230000000 1.0
C      1  0.4985060000000  0.4149080000000  0.5218440000000 1.0
C      1  0.4933680000000  0.5573770000000  0.3770340000000 1.0
C      1  0.5071330000000  0.4625240000000  0.3881220000000 1.0
C      1  0.5056630000000  0.5492640000000  0.5013980000000 1.0
C      1  0.4801020000000  0.4918730000000  0.4336700000000 1.0
C      1  0.5019570000000  0.6204310000000  0.4763940000000 1.0
C      1  0.5033670000000  0.4086410000000  0.6372930000000 1.0
C      1  0.4860860000000  0.4845150000000  0.5637820000000 1.0
C      1  0.5005240000000  0.3826990000000  0.4848240000000 1.0
C      1  0.4974810000000  0.4398630000000  0.5364260000000 1.0
C      1  0.4183490000000  0.5168600000000  0.5839330000000 1.0
C      1  0.5252920000000  0.4525820000000  0.4081770000000 1.0
C      1  0.4592290000000  0.4858330000000  0.5727860000000 1.0
C      1  0.4975470000000  0.4849420000000  0.5113860000000 1.0
C      1  0.4976540000000  0.5104700000000  0.5611490000000 1.0
C      1  0.4981250000000  0.5005580000000  0.6493440000000 1.0
C      1  0.5013710000000  0.6209060000000  0.5041600000000 1.0
C      1  0.4999100000000  0.3922890000000  0.5902350000000 1.0
C      1  0.4935470000000  0.5382530000000  0.4794040000000 1.0
C      1  0.4375160000000  0.4999150000000  0.5788850000000 1.0
C      1  0.5063470000000  0.4920820000000  0.3837810000000 1.0
C      1  0.4964780000000  0.4582460000000  0.5591400000000 1.0
C      1  0.4980160000000  0.3884760000000  0.5337700000000 1.0
C      1  0.4856840000000  0.4436710000000  0.4363090000000 1.0
C      1  0.5007200000000  0.4290580000000  0.4754710000000 1.0
END
