TITL C-3201379-3821-605 23681.2407735035 125000 -806.163201645299 0 0 132 (C1) n - 1
REM
REM in /home/nfs/bkarasulu/CARBON/AIRSS/Generating-Clusters/LCBOP/Higher-Symm/SD-CG/FIRE-CG
REM
REM
REM
REM
REM
REM ./C.cell (b20cbc046b6831c77cfcea5457e17084)
REM AIRSS Version 0.9.1 bugfix July 2018 build 013d7b7c2542+ Fri, 06 Jul 2018 19:26:36 +0100
REM compiler GCC version 9.2.1 20190827 (Red Hat 9.2.1-1)
REM options -cpp -mtune=generic -march=x86-64 -g -O0 -fpre-include=/usr/include/finclude/math-vector-fortran.h
REM seed 1533813774 228365253 -466696062 1771603484 2077845868 590224109 -380915389 1925763407 -1290454389 464125792 -284707137 1806221175 579568218 806497028 729072808 -186436893 97153217 1555237153 -798083681 1368007470 1739322909 -1792326622 -263205634 -542719649 550961554 1681116611 -1817224614 1947093818 555078330 1424055810 -1957280254 -174464431 1675708682
REM
CELL 1.54180   50.00000   50.00000   50.00000   90.00000   90.00000   90.00000
LATT -1
SFAC C  
C      1  0.5867250000000  0.4924320000000  0.4263610000000 1.0
C      1  0.4778820000000  0.4259240000000  0.5760070000000 1.0
C      1  0.4231870000000  0.5873200000000  0.4786580000000 1.0
C      1  0.4131640000000  0.4922640000000  0.5751580000000 1.0
C      1  0.4156780000000  0.5067240000000  0.4090330000000 1.0
C      1  0.5936840000000  0.5186690000000  0.5744180000000 1.0
C      1  0.5181410000000  0.4093980000000  0.4227000000000 1.0
C      1  0.5071920000000  0.5753660000000  0.5881140000000 1.0
C      1  0.4678630000000  0.5950720000000  0.4186180000000 1.0
C      1  0.5742990000000  0.5880160000000  0.5111480000000 1.0
C      1  0.5930890000000  0.4043660000000  0.4943680000000 1.0
C      1  0.4020710000000  0.4114330000000  0.5030750000000 1.0
C      1  0.5809590000000  0.5168590000000  0.4373380000000 1.0
C      1  0.4811020000000  0.5830710000000  0.5874160000000 1.0
C      1  0.4010190000000  0.4189590000000  0.4766510000000 1.0
C      1  0.4237650000000  0.5161530000000  0.5837440000000 1.0
C      1  0.4174610000000  0.4796510000000  0.4070580000000 1.0
C      1  0.5987060000000  0.4921520000000  0.5788070000000 1.0
C      1  0.4911000000000  0.5817500000000  0.4124550000000 1.0
C      1  0.5006150000000  0.4111210000000  0.5790980000000 1.0
C      1  0.4912380000000  0.4061550000000  0.4200330000000 1.0
C      1  0.5915370000000  0.4073340000000  0.5214060000000 1.0
C      1  0.5640660000000  0.5907530000000  0.4857510000000 1.0
C      1  0.4164920000000  0.5896260000000  0.5051080000000 1.0
C      1  0.5952280000000  0.4532570000000  0.4873300000000 1.0
C      1  0.4560380000000  0.4751830000000  0.5827920000000 1.0
C      1  0.4854970000000  0.6060700000000  0.4621980000000 1.0
C      1  0.3921670000000  0.4564500000000  0.5112240000000 1.0
C      1  0.4209090000000  0.5391290000000  0.4854680000000 1.0
C      1  0.5879110000000  0.5403340000000  0.5042830000000 1.0
C      1  0.5390850000000  0.4876380000000  0.4164910000000 1.0
C      1  0.5454190000000  0.5115300000000  0.5815800000000 1.0
C      1  0.4655240000000  0.5115840000000  0.4125760000000 1.0
C      1  0.5133380000000  0.5882430000000  0.5406350000000 1.0
C      1  0.5123690000000  0.4179410000000  0.4721330000000 1.0
C      1  0.4824410000000  0.4269960000000  0.5282000000000 1.0
C      1  0.5797480000000  0.5474830000000  0.4772610000000 1.0
C      1  0.4701660000000  0.5007290000000  0.5870320000000 1.0
C      1  0.4828530000000  0.4174120000000  0.4691730000000 1.0
C      1  0.4192510000000  0.5405230000000  0.5143600000000 1.0
C      1  0.4037460000000  0.4672700000000  0.4868380000000 1.0
C      1  0.5980880000000  0.4559640000000  0.5157790000000 1.0
C      1  0.5338640000000  0.5134190000000  0.4290230000000 1.0
C      1  0.5512910000000  0.4827310000000  0.5869490000000 1.0
C      1  0.4668730000000  0.4833760000000  0.4062960000000 1.0
C      1  0.5115300000000  0.4193200000000  0.5312270000000 1.0
C      1  0.5110550000000  0.6038340000000  0.4488480000000 1.0
C      1  0.4855150000000  0.5959440000000  0.5392630000000 1.0
C      1  0.4264990000000  0.5678680000000  0.5204280000000 1.0
C      1  0.5543870000000  0.5184480000000  0.4484600000000 1.0
C      1  0.5205920000000  0.4173130000000  0.5598540000000 1.0
C      1  0.5573320000000  0.5653680000000  0.4735860000000 1.0
C      1  0.5849330000000  0.4332850000000  0.5305520000000 1.0
C      1  0.4125300000000  0.4446680000000  0.4705270000000 1.0
C      1  0.4515170000000  0.5203220000000  0.5776160000000 1.0
C      1  0.4421170000000  0.4689640000000  0.4156420000000 1.0
C      1  0.5760920000000  0.4758080000000  0.5735090000000 1.0
C      1  0.4781070000000  0.4213750000000  0.4399690000000 1.0
C      1  0.4700070000000  0.5825100000000  0.5614270000000 1.0
C      1  0.5121820000000  0.5805480000000  0.4320070000000 1.0
C      1  0.4075220000000  0.4333080000000  0.5205510000000 1.0
C      1  0.5643820000000  0.4747960000000  0.4269610000000 1.0
C      1  0.5180910000000  0.5699270000000  0.5627380000000 1.0
C      1  0.5854880000000  0.4267950000000  0.4790000000000 1.0
C      1  0.5738910000000  0.5612180000000  0.5213090000000 1.0
C      1  0.4357990000000  0.5622600000000  0.4732070000000 1.0
C      1  0.4328240000000  0.4736210000000  0.5653830000000 1.0
C      1  0.4378940000000  0.5189110000000  0.4213790000000 1.0
C      1  0.5670400000000  0.5234790000000  0.5655870000000 1.0
C      1  0.4643920000000  0.6075230000000  0.4428730000000 1.0
C      1  0.4784900000000  0.4422730000000  0.5526540000000 1.0
C      1  0.5234360000000  0.4256590000000  0.4452320000000 1.0
C      1  0.4985690000000  0.5012410000000  0.5823300000000 1.0
C      1  0.5145930000000  0.5788180000000  0.4923850000000 1.0
C      1  0.5903500000000  0.4819160000000  0.5271370000000 1.0
C      1  0.5117860000000  0.5309770000000  0.4318970000000 1.0
C      1  0.5315770000000  0.4628010000000  0.5806120000000 1.0
C      1  0.4896210000000  0.4668950000000  0.4135890000000 1.0
C      1  0.4725480000000  0.5904600000000  0.5135090000000 1.0
C      1  0.4597080000000  0.4291950000000  0.4828570000000 1.0
C      1  0.5341500000000  0.4290610000000  0.5162400000000 1.0
C      1  0.4199920000000  0.4907260000000  0.4909390000000 1.0
C      1  0.4330270000000  0.5195150000000  0.5293340000000 1.0
C      1  0.5738010000000  0.4979440000000  0.4860010000000 1.0
C      1  0.5065490000000  0.4745270000000  0.5747260000000 1.0
C      1  0.5353620000000  0.4245840000000  0.4886350000000 1.0
C      1  0.5824450000000  0.5108320000000  0.5136530000000 1.0
C      1  0.5181010000000  0.4687870000000  0.4185330000000 1.0
C      1  0.5189270000000  0.5199890000000  0.5740220000000 1.0
C      1  0.4841180000000  0.5248490000000  0.4307500000000 1.0
C      1  0.4585820000000  0.4302440000000  0.5116940000000 1.0
C      1  0.4843830000000  0.5861410000000  0.4845080000000 1.0
C      1  0.5260430000000  0.5782830000000  0.5178260000000 1.0
C      1  0.4242940000000  0.5135590000000  0.4731160000000 1.0
C      1  0.4303500000000  0.4925960000000  0.5189500000000 1.0
C      1  0.5805550000000  0.4739090000000  0.4745930000000 1.0
C      1  0.5472050000000  0.5486250000000  0.5297740000000 1.0
C      1  0.5596970000000  0.5193320000000  0.5356500000000 1.0
C      1  0.5192050000000  0.5428960000000  0.5479320000000 1.0
C      1  0.4673120000000  0.5581500000000  0.4747880000000 1.0
C      1  0.4347980000000  0.4421610000000  0.5254480000000 1.0
C      1  0.5582720000000  0.4314550000000  0.4714610000000 1.0
C      1  0.4406060000000  0.5200360000000  0.4500220000000 1.0
C      1  0.4347480000000  0.4693220000000  0.5367210000000 1.0
C      1  0.5562590000000  0.4597030000000  0.4545010000000 1.0
C      1  0.4691730000000  0.5305160000000  0.4567550000000 1.0
C      1  0.4926480000000  0.4666400000000  0.5516490000000 1.0
C      1  0.5244610000000  0.4567680000000  0.4470540000000 1.0
C      1  0.5576030000000  0.4431320000000  0.5397700000000 1.0
C      1  0.5658450000000  0.4727700000000  0.5445430000000 1.0
C      1  0.5398580000000  0.4385460000000  0.5652630000000 1.0
C      1  0.4401340000000  0.4436910000000  0.4647970000000 1.0
C      1  0.4566480000000  0.5651680000000  0.5207990000000 1.0
C      1  0.5265260000000  0.5566180000000  0.4754480000000 1.0
C      1  0.4485650000000  0.4564690000000  0.4407560000000 1.0
C      1  0.4566890000000  0.5271160000000  0.5488760000000 1.0
C      1  0.5503280000000  0.5081670000000  0.4749870000000 1.0
C      1  0.4779650000000  0.4520980000000  0.4382370000000 1.0
C      1  0.4605950000000  0.5577340000000  0.5497640000000 1.0
C      1  0.5178120000000  0.5558120000000  0.4456610000000 1.0
C      1  0.4813680000000  0.4745390000000  0.5044470000000 1.0
C      1  0.4847230000000  0.4853870000000  0.4787370000000 1.0
C      1  0.4963810000000  0.4658520000000  0.4600950000000 1.0
C      1  0.5235150000000  0.4913040000000  0.5171730000000 1.0
C      1  0.5177620000000  0.5329660000000  0.4954370000000 1.0
C      1  0.4723460000000  0.5434040000000  0.5032960000000 1.0
C      1  0.5447280000000  0.4925460000000  0.5356440000000 1.0
C      1  0.5286220000000  0.5075960000000  0.4930930000000 1.0
C      1  0.4824230000000  0.5128630000000  0.5357130000000 1.0
C      1  0.4944660000000  0.4855400000000  0.5285580000000 1.0
C      1  0.4776300000000  0.5127470000000  0.4786920000000 1.0
C      1  0.4971620000000  0.5353100000000  0.5206880000000 1.0
END
