TITL C-3201375-1262-1612 2969.56813251551 125000 -1054.51337678309 0 0 178 (C1) n - 1
REM
REM in /home/nfs/bkarasulu/CARBON/AIRSS/Generating-Clusters/LCBOP/Higher-Symm/SD-CG/FIRE-CG
REM
REM
REM
REM
REM
REM ./C.cell (b20cbc046b6831c77cfcea5457e17084)
REM AIRSS Version 0.9.1 bugfix July 2018 build 013d7b7c2542+ Fri, 06 Jul 2018 19:26:36 +0100
REM compiler GCC version 9.2.1 20190827 (Red Hat 9.2.1-1)
REM options -cpp -mtune=generic -march=x86-64 -g -O0 -fpre-include=/usr/include/finclude/math-vector-fortran.h
REM seed -161635770 -952863415 365027730 352871692 1128484769 1307399390 -1416707732 -1396190710 -1504369650 -1696088290 -4963587 712956378 1159536779 342835600 -417149381 1317442621 860421997 266828691 1365053704 703968482 -1957424906 123706058 2075755600 135684711 -758162654 1738685382 9929034 1905565514 -587876252 -1731637803 782824781 -189373523 1162011802
REM
CELL 1.54180   50.00000   50.00000   50.00000   90.00000   90.00000   90.00000
LATT -1
SFAC C  
C      1  0.5958790000000  0.5544040000000  0.4846800000000 1.0
C      1  0.4077290000000  0.5683970000000  0.4467780000000 1.0
C      1  0.4846370000000  0.3913230000000  0.4833540000000 1.0
C      1  0.4959170000000  0.5556560000000  0.4788950000000 1.0
C      1  0.4193820000000  0.4599080000000  0.4579680000000 1.0
C      1  0.5580830000000  0.4718660000000  0.4591230000000 1.0
C      1  0.5124080000000  0.5172110000000  0.5960590000000 1.0
C      1  0.4677910000000  0.4932490000000  0.5857270000000 1.0
C      1  0.5114900000000  0.4715680000000  0.5796350000000 1.0
C      1  0.4684700000000  0.5659840000000  0.4714890000000 1.0
C      1  0.4311880000000  0.4354730000000  0.4492660000000 1.0
C      1  0.5780920000000  0.4883040000000  0.4697800000000 1.0
C      1  0.4522380000000  0.5160990000000  0.5682980000000 1.0
C      1  0.5035540000000  0.4519120000000  0.5548280000000 1.0
C      1  0.5468960000000  0.5311580000000  0.5554900000000 1.0
C      1  0.4480930000000  0.4077040000000  0.5412690000000 1.0
C      1  0.6107960000000  0.5082740000000  0.5501450000000 1.0
C      1  0.4408310000000  0.5988280000000  0.5606460000000 1.0
C      1  0.4759190000000  0.5353700000000  0.5547080000000 1.0
C      1  0.4787220000000  0.4635420000000  0.5374760000000 1.0
C      1  0.5496080000000  0.5008280000000  0.5470920000000 1.0
C      1  0.3930480000000  0.5301400000000  0.5610830000000 1.0
C      1  0.5279500000000  0.3932710000000  0.5235000000000 1.0
C      1  0.5641860000000  0.5868320000000  0.5223060000000 1.0
C      1  0.5386820000000  0.5512020000000  0.5370680000000 1.0
C      1  0.4337650000000  0.5073020000000  0.5448790000000 1.0
C      1  0.5239020000000  0.4441720000000  0.5327780000000 1.0
C      1  0.3879910000000  0.4511660000000  0.5628780000000 1.0
C      1  0.5990730000000  0.4269270000000  0.5331070000000 1.0
C      1  0.5039120000000  0.6313240000000  0.5328460000000 1.0
C      1  0.6021110000000  0.5191370000000  0.4292320000000 1.0
C      1  0.3899370000000  0.5356690000000  0.3927770000000 1.0
C      1  0.4807710000000  0.4217720000000  0.4434260000000 1.0
C      1  0.4592370000000  0.5588330000000  0.5428150000000 1.0
C      1  0.4799990000000  0.4553320000000  0.5098730000000 1.0
C      1  0.5717910000000  0.5031810000000  0.5267510000000 1.0
C      1  0.5345450000000  0.5090990000000  0.6124700000000 1.0
C      1  0.4675980000000  0.5024120000000  0.6153990000000 1.0
C      1  0.5020120000000  0.4628270000000  0.6087090000000 1.0
C      1  0.4736000000000  0.5826120000000  0.5303870000000 1.0
C      1  0.4163510000000  0.4391500000000  0.5156520000000 1.0
C      1  0.5847090000000  0.4786970000000  0.5212870000000 1.0
C      1  0.4619440000000  0.6067270000000  0.5426430000000 1.0
C      1  0.4237060000000  0.4234710000000  0.5398380000000 1.0
C      1  0.6076300000000  0.4786010000000  0.5395500000000 1.0
C      1  0.4809400000000  0.4171330000000  0.5756870000000 1.0
C      1  0.5827700000000  0.5374940000000  0.5841360000000 1.0
C      1  0.4513860000000  0.5567720000000  0.5915070000000 1.0
C      1  0.4986410000000  0.5344430000000  0.4567770000000 1.0
C      1  0.4735100000000  0.4844700000000  0.4325320000000 1.0
C      1  0.5441450000000  0.4852230000000  0.4374470000000 1.0
C      1  0.5521150000000  0.4246010000000  0.4768550000000 1.0
C      1  0.5323900000000  0.5933220000000  0.4756220000000 1.0
C      1  0.4024620000000  0.5020580000000  0.4779930000000 1.0
C      1  0.5839410000000  0.5195250000000  0.6061280000000 1.0
C      1  0.4772650000000  0.5504960000000  0.6067590000000 1.0
C      1  0.4667890000000  0.4375460000000  0.5920580000000 1.0
C      1  0.5884160000000  0.5698460000000  0.5424440000000 1.0
C      1  0.4094870000000  0.5528660000000  0.5621170000000 1.0
C      1  0.5018930000000  0.3926890000000  0.5366120000000 1.0
C      1  0.5163280000000  0.5128080000000  0.4613800000000 1.0
C      1  0.4607430000000  0.5075770000000  0.4411590000000 1.0
C      1  0.5178000000000  0.4916150000000  0.4431280000000 1.0
C      1  0.4029710000000  0.5277450000000  0.4154710000000 1.0
C      1  0.5037090000000  0.4048870000000  0.4432380000000 1.0
C      1  0.5841350000000  0.5408130000000  0.4401310000000 1.0
C      1  0.4772650000000  0.4930720000000  0.5315310000000 1.0
C      1  0.5245610000000  0.4937800000000  0.5325110000000 1.0
C      1  0.4962440000000  0.5088950000000  0.5459660000000 1.0
C      1  0.5347020000000  0.4324760000000  0.5845610000000 1.0
C      1  0.5348280000000  0.5578920000000  0.5948800000000 1.0
C      1  0.4179900000000  0.5215370000000  0.6078720000000 1.0
C      1  0.4770890000000  0.4381510000000  0.4661650000000 1.0
C      1  0.5624620000000  0.5081410000000  0.4826010000000 1.0
C      1  0.4490750000000  0.5468340000000  0.4822340000000 1.0
C      1  0.5978170000000  0.5394890000000  0.5591170000000 1.0
C      1  0.4382510000000  0.5687900000000  0.5650460000000 1.0
C      1  0.4753090000000  0.4026420000000  0.5505150000000 1.0
C      1  0.5082880000000  0.4257250000000  0.5726440000000 1.0
C      1  0.5553090000000  0.5439440000000  0.5797370000000 1.0
C      1  0.4374410000000  0.5305400000000  0.5912430000000 1.0
C      1  0.3986190000000  0.5413680000000  0.4412560000000 1.0
C      1  0.5011340000000  0.3831970000000  0.4613000000000 1.0
C      1  0.5851560000000  0.5635260000000  0.4597940000000 1.0
C      1  0.5194780000000  0.6099000000000  0.5230310000000 1.0
C      1  0.3874050000000  0.4754140000000  0.5469800000000 1.0
C      1  0.5797000000000  0.4119070000000  0.5203450000000 1.0
C      1  0.4616030000000  0.5020220000000  0.5094580000000 1.0
C      1  0.5242450000000  0.4806230000000  0.4989470000000 1.0
C      1  0.5054480000000  0.5299490000000  0.5181750000000 1.0
C      1  0.5272330000000  0.5245410000000  0.5064360000000 1.0
C      1  0.4619550000000  0.5269090000000  0.4975060000000 1.0
C      1  0.4976180000000  0.4709010000000  0.4924900000000 1.0
C      1  0.5150600000000  0.5650520000000  0.5445840000000 1.0
C      1  0.4333140000000  0.4782970000000  0.5408620000000 1.0
C      1  0.5507420000000  0.4532790000000  0.5373390000000 1.0
C      1  0.4573330000000  0.4626120000000  0.5797690000000 1.0
C      1  0.5406370000000  0.4616240000000  0.5820960000000 1.0
C      1  0.5058140000000  0.5475560000000  0.5933540000000 1.0
C      1  0.4995470000000  0.5850020000000  0.4041920000000 1.0
C      1  0.4422530000000  0.4381820000000  0.4220280000000 1.0
C      1  0.5879690000000  0.4660690000000  0.4188010000000 1.0
C      1  0.5612760000000  0.5086420000000  0.6168210000000 1.0
C      1  0.4727870000000  0.5277480000000  0.6246900000000 1.0
C      1  0.4823050000000  0.4452300000000  0.6147730000000 1.0
C      1  0.5546170000000  0.4722830000000  0.5597530000000 1.0
C      1  0.4988760000000  0.5529760000000  0.5647930000000 1.0
C      1  0.4529690000000  0.4615870000000  0.5519590000000 1.0
C      1  0.4224110000000  0.5796020000000  0.4685690000000 1.0
C      1  0.4549720000000  0.3960300000000  0.4774740000000 1.0
C      1  0.6182280000000  0.5370310000000  0.4841520000000 1.0
C      1  0.5659080000000  0.4584570000000  0.5130680000000 1.0
C      1  0.5041980000000  0.5834190000000  0.5230300000000 1.0
C      1  0.4087590000000  0.4706190000000  0.5236840000000 1.0
C      1  0.4333370000000  0.5034090000000  0.4417660000000 1.0
C      1  0.5258480000000  0.4185470000000  0.4324870000000 1.0
C      1  0.5377810000000  0.5516690000000  0.4431540000000 1.0
C      1  0.5450540000000  0.6065060000000  0.5102600000000 1.0
C      1  0.3850280000000  0.5036700000000  0.5565300000000 1.0
C      1  0.5548220000000  0.4064140000000  0.5051810000000 1.0
C      1  0.5696940000000  0.5065760000000  0.3992780000000 1.0
C      1  0.4774760000000  0.5383700000000  0.4092930000000 1.0
C      1  0.4909640000000  0.4443620000000  0.4023140000000 1.0
C      1  0.6119690000000  0.4497240000000  0.5425050000000 1.0
C      1  0.4780470000000  0.6297630000000  0.5409690000000 1.0
C      1  0.4051800000000  0.4298090000000  0.5609190000000 1.0
C      1  0.4060430000000  0.4968990000000  0.5059760000000 1.0
C      1  0.5462770000000  0.4545790000000  0.4887420000000 1.0
C      1  0.5203680000000  0.5705760000000  0.4926940000000 1.0
C      1  0.4174850000000  0.5192730000000  0.5224030000000 1.0
C      1  0.5190510000000  0.4327230000000  0.5076070000000 1.0
C      1  0.5509350000000  0.5614700000000  0.5119480000000 1.0
C      1  0.4576640000000  0.5906880000000  0.4659900000000 1.0
C      1  0.4333620000000  0.4160790000000  0.4717850000000 1.0
C      1  0.6204770000000  0.5106650000000  0.4790550000000 1.0
C      1  0.4818520000000  0.5649960000000  0.4021250000000 1.0
C      1  0.4702440000000  0.4317940000000  0.4192130000000 1.0
C      1  0.5933630000000  0.4949170000000  0.4124880000000 1.0
C      1  0.4193910000000  0.4875160000000  0.4605670000000 1.0
C      1  0.5510440000000  0.4254900000000  0.4462290000000 1.0
C      1  0.5300750000000  0.5777640000000  0.4404120000000 1.0
C      1  0.5656860000000  0.5848330000000  0.4644630000000 1.0
C      1  0.3913140000000  0.5248040000000  0.4641490000000 1.0
C      1  0.5124160000000  0.3586760000000  0.4584930000000 1.0
C      1  0.4625680000000  0.4905520000000  0.3881850000000 1.0
C      1  0.5501700000000  0.4538210000000  0.3744440000000 1.0
C      1  0.5582000000000  0.5543240000000  0.3828190000000 1.0
C      1  0.5453230000000  0.4461830000000  0.4002160000000 1.0
C      1  0.5456940000000  0.5752140000000  0.3945400000000 1.0
C      1  0.4349950000000  0.4855650000000  0.3981140000000 1.0
C      1  0.5327820000000  0.5066140000000  0.4848460000000 1.0
C      1  0.4866900000000  0.5392730000000  0.5024790000000 1.0
C      1  0.4925320000000  0.4615950000000  0.4663630000000 1.0
C      1  0.3883980000000  0.4105030000000  0.4889060000000 1.0
C      1  0.6198500000000  0.4634330000000  0.4689760000000 1.0
C      1  0.5063510000000  0.6108990000000  0.4705000000000 1.0
C      1  0.5671880000000  0.5287730000000  0.3819210000000 1.0
C      1  0.4722700000000  0.5173930000000  0.3905250000000 1.0
C      1  0.4812620000000  0.4678160000000  0.3878800000000 1.0
C      1  0.4216210000000  0.5057340000000  0.4155880000000 1.0
C      1  0.5195480000000  0.4361810000000  0.4091120000000 1.0
C      1  0.5566250000000  0.5331110000000  0.4356380000000 1.0
C      1  0.5527330000000  0.5083360000000  0.4222100000000 1.0
C      1  0.4774150000000  0.5304510000000  0.4370290000000 1.0
C      1  0.4965180000000  0.4749810000000  0.4432100000000 1.0
C      1  0.4131700000000  0.4222960000000  0.4922970000000 1.0
C      1  0.6063880000000  0.4870320000000  0.4721430000000 1.0
C      1  0.4787860000000  0.6103960000000  0.4662490000000 1.0
C      1  0.4133050000000  0.5456770000000  0.5117280000000 1.0
C      1  0.4963220000000  0.4141060000000  0.4983680000000 1.0
C      1  0.5749090000000  0.5472410000000  0.5025160000000 1.0
C      1  0.5727620000000  0.5201730000000  0.5054100000000 1.0
C      1  0.4248620000000  0.5595260000000  0.4900030000000 1.0
C      1  0.4746320000000  0.4329150000000  0.4946260000000 1.0
C      1  0.5663400000000  0.4455410000000  0.4213820000000 1.0
C      1  0.5262200000000  0.5849870000000  0.4132860000000 1.0
C      1  0.4305650000000  0.4578040000000  0.4046800000000 1.0
C      1  0.4988430000000  0.4983060000000  0.5763180000000 1.0
END
