TITL C-3201377-4638-1846 12346.7806879748 125000 -1015.05748189885 0 0 168 (C1) n - 1
REM
REM in /home/nfs/bkarasulu/CARBON/AIRSS/Generating-Clusters/LCBOP/Higher-Symm/SD-CG/FIRE-CG
REM
REM
REM
REM
REM
REM ./C.cell (b20cbc046b6831c77cfcea5457e17084)
REM AIRSS Version 0.9.1 bugfix July 2018 build 013d7b7c2542+ Fri, 06 Jul 2018 19:26:36 +0100
REM compiler GCC version 9.2.1 20190827 (Red Hat 9.2.1-1)
REM options -cpp -mtune=generic -march=x86-64 -g -O0 -fpre-include=/usr/include/finclude/math-vector-fortran.h
REM seed 706969030 -491176451 1383029422 1682450732 -1573399805 2018056099 390309517 -1435011395 -524975048 -2058531607 5742487 294423263 579671342 1618532464 -1953993825 785067841 2105769907 2146733951 -1255770250 2115542768 -1071541634 -1755224782 -439462269 -1412126325 351078030 552437693 1958170490 -414512438 635001536 -1338621116 685460619 -326213675 -1080751814
REM
CELL 1.54180   50.00000   50.00000   50.00000   90.00000   90.00000   90.00000
LATT -1
SFAC C  
C      1  0.5185470000000  0.4431670000000  0.4072790000000 1.0
C      1  0.5021330000000  0.4425740000000  0.5879970000000 1.0
C      1  0.3811150000000  0.5419280000000  0.3987560000000 1.0
C      1  0.3839170000000  0.5247220000000  0.5946450000000 1.0
C      1  0.4725810000000  0.4252540000000  0.4697680000000 1.0
C      1  0.4586700000000  0.4199110000000  0.5173250000000 1.0
C      1  0.3655490000000  0.3745510000000  0.5479250000000 1.0
C      1  0.4165310000000  0.3640540000000  0.4951680000000 1.0
C      1  0.5107780000000  0.5764670000000  0.4085990000000 1.0
C      1  0.4993930000000  0.5734840000000  0.5888220000000 1.0
C      1  0.3574630000000  0.4400580000000  0.5196130000000 1.0
C      1  0.4273470000000  0.4056220000000  0.5517860000000 1.0
C      1  0.5993800000000  0.5219290000000  0.4591440000000 1.0
C      1  0.6023790000000  0.5122420000000  0.5591000000000 1.0
C      1  0.5137390000000  0.5491430000000  0.5263480000000 1.0
C      1  0.5202530000000  0.5511740000000  0.4732120000000 1.0
C      1  0.5026320000000  0.4641440000000  0.5242380000000 1.0
C      1  0.5092680000000  0.4610300000000  0.4569460000000 1.0
C      1  0.4258220000000  0.3965000000000  0.5761440000000 1.0
C      1  0.3592900000000  0.4632130000000  0.5056620000000 1.0
C      1  0.4964790000000  0.6444160000000  0.5254670000000 1.0
C      1  0.4993850000000  0.6462170000000  0.4749650000000 1.0
C      1  0.4832370000000  0.4996650000000  0.4208340000000 1.0
C      1  0.4820190000000  0.4988240000000  0.5583240000000 1.0
C      1  0.4847740000000  0.4861600000000  0.5296630000000 1.0
C      1  0.4909210000000  0.4839260000000  0.4551700000000 1.0
C      1  0.4799620000000  0.5421850000000  0.4453350000000 1.0
C      1  0.4706230000000  0.5416050000000  0.5408110000000 1.0
C      1  0.4765270000000  0.5307130000000  0.5146860000000 1.0
C      1  0.4807070000000  0.5283110000000  0.4702490000000 1.0
C      1  0.5027910000000  0.5605030000000  0.4510150000000 1.0
C      1  0.4936070000000  0.5581170000000  0.5446620000000 1.0
C      1  0.4859100000000  0.5423950000000  0.3829250000000 1.0
C      1  0.4836770000000  0.5437170000000  0.6248040000000 1.0
C      1  0.4567910000000  0.5364300000000  0.6223580000000 1.0
C      1  0.4598070000000  0.5394340000000  0.3928030000000 1.0
C      1  0.4632270000000  0.4855440000000  0.4655560000000 1.0
C      1  0.4567050000000  0.4840860000000  0.5174600000000 1.0
C      1  0.4587970000000  0.5182250000000  0.5527650000000 1.0
C      1  0.4660910000000  0.5205780000000  0.4299620000000 1.0
C      1  0.5432710000000  0.4072850000000  0.4596820000000 1.0
C      1  0.5292980000000  0.4295820000000  0.5432400000000 1.0
C      1  0.4945550000000  0.5091250000000  0.5135130000000 1.0
C      1  0.5032870000000  0.5082500000000  0.4662280000000 1.0
C      1  0.5374750000000  0.4647560000000  0.4622680000000 1.0
C      1  0.5261110000000  0.4584040000000  0.5386340000000 1.0
C      1  0.5961600000000  0.4571930000000  0.4365310000000 1.0
C      1  0.5816900000000  0.4529890000000  0.5586770000000 1.0
C      1  0.5459730000000  0.5204690000000  0.4038190000000 1.0
C      1  0.5367220000000  0.5142720000000  0.5973490000000 1.0
C      1  0.4320080000000  0.4608700000000  0.5657840000000 1.0
C      1  0.4446670000000  0.4584880000000  0.4178270000000 1.0
C      1  0.4102300000000  0.5383870000000  0.4670460000000 1.0
C      1  0.4080310000000  0.5408300000000  0.5126960000000 1.0
C      1  0.5607830000000  0.4694660000000  0.5683180000000 1.0
C      1  0.5736010000000  0.4718510000000  0.4295030000000 1.0
C      1  0.5857890000000  0.4336290000000  0.5402460000000 1.0
C      1  0.6197480000000  0.4550080000000  0.4486620000000 1.0
C      1  0.4764390000000  0.4794630000000  0.5797240000000 1.0
C      1  0.4891970000000  0.4785310000000  0.4047460000000 1.0
C      1  0.4480340000000  0.5043920000000  0.4486720000000 1.0
C      1  0.4418290000000  0.5025270000000  0.5345250000000 1.0
C      1  0.4952990000000  0.5465280000000  0.6493900000000 1.0
C      1  0.4914390000000  0.5386420000000  0.3564190000000 1.0
C      1  0.4998960000000  0.4720340000000  0.5954010000000 1.0
C      1  0.5176470000000  0.4723350000000  0.3992370000000 1.0
C      1  0.5220420000000  0.5165830000000  0.4424110000000 1.0
C      1  0.5076600000000  0.5130250000000  0.5635400000000 1.0
C      1  0.4068940000000  0.5422310000000  0.3948860000000 1.0
C      1  0.4077380000000  0.5269600000000  0.6049980000000 1.0
C      1  0.5761460000000  0.5246010000000  0.4430060000000 1.0
C      1  0.5835890000000  0.5196600000000  0.5768770000000 1.0
C      1  0.4596340000000  0.4566690000000  0.5712920000000 1.0
C      1  0.4726410000000  0.4546450000000  0.4120060000000 1.0
C      1  0.5665060000000  0.4764950000000  0.4026560000000 1.0
C      1  0.5459080000000  0.4627650000000  0.5921960000000 1.0
C      1  0.4814970000000  0.4197420000000  0.5396770000000 1.0
C      1  0.4976680000000  0.4324190000000  0.4527160000000 1.0
C      1  0.4705990000000  0.6467600000000  0.4743110000000 1.0
C      1  0.4678050000000  0.6450190000000  0.5228530000000 1.0
C      1  0.5542130000000  0.5591220000000  0.5738330000000 1.0
C      1  0.5635830000000  0.5674610000000  0.4255420000000 1.0
C      1  0.4233910000000  0.4725220000000  0.4285480000000 1.0
C      1  0.4119570000000  0.4758180000000  0.5544270000000 1.0
C      1  0.5134170000000  0.6206830000000  0.4699840000000 1.0
C      1  0.5099290000000  0.6185400000000  0.5301980000000 1.0
C      1  0.5842770000000  0.5938470000000  0.4638030000000 1.0
C      1  0.5788770000000  0.5908470000000  0.5426770000000 1.0
C      1  0.5313260000000  0.5075870000000  0.5468170000000 1.0
C      1  0.5504470000000  0.5129470000000  0.4547710000000 1.0
C      1  0.5095090000000  0.4151690000000  0.5281710000000 1.0
C      1  0.5189180000000  0.4167920000000  0.4712370000000 1.0
C      1  0.5389060000000  0.4208390000000  0.5681380000000 1.0
C      1  0.5477320000000  0.4106560000000  0.4321520000000 1.0
C      1  0.4332820000000  0.5416370000000  0.3925020000000 1.0
C      1  0.4319900000000  0.5307010000000  0.6150180000000 1.0
C      1  0.5279700000000  0.4847700000000  0.6006390000000 1.0
C      1  0.5422500000000  0.4908150000000  0.3972220000000 1.0
C      1  0.4005540000000  0.5130220000000  0.5156110000000 1.0
C      1  0.4040930000000  0.5097960000000  0.4654200000000 1.0
C      1  0.5400440000000  0.4255230000000  0.4111950000000 1.0
C      1  0.5308150000000  0.4373450000000  0.5894930000000 1.0
C      1  0.5018900000000  0.5794480000000  0.5614580000000 1.0
C      1  0.5115420000000  0.5829660000000  0.4360650000000 1.0
C      1  0.5421360000000  0.4801940000000  0.5487390000000 1.0
C      1  0.5548420000000  0.4825480000000  0.4483650000000 1.0
C      1  0.5968830000000  0.5931120000000  0.5207820000000 1.0
C      1  0.5864920000000  0.5934810000000  0.4931190000000 1.0
C      1  0.5215040000000  0.5980040000000  0.5500800000000 1.0
C      1  0.5281330000000  0.6022550000000  0.4501970000000 1.0
C      1  0.4799010000000  0.4345700000000  0.5669680000000 1.0
C      1  0.4931500000000  0.4352840000000  0.4217870000000 1.0
C      1  0.5363150000000  0.5295560000000  0.5288130000000 1.0
C      1  0.5451710000000  0.5321960000000  0.4780270000000 1.0
C      1  0.5117640000000  0.5266830000000  0.5882610000000 1.0
C      1  0.5207480000000  0.5290670000000  0.4158700000000 1.0
C      1  0.4987150000000  0.5480380000000  0.6011890000000 1.0
C      1  0.5065500000000  0.5491590000000  0.4011500000000 1.0
C      1  0.6141770000000  0.5122960000000  0.4819550000000 1.0
C      1  0.6128640000000  0.5097060000000  0.5343000000000 1.0
C      1  0.5609500000000  0.5893420000000  0.4456190000000 1.0
C      1  0.5533810000000  0.5837040000000  0.5562390000000 1.0
C      1  0.5588730000000  0.5315430000000  0.5851130000000 1.0
C      1  0.5663200000000  0.5385110000000  0.4192070000000 1.0
C      1  0.4298730000000  0.4115270000000  0.5222870000000 1.0
C      1  0.3783220000000  0.4214700000000  0.5248290000000 1.0
C      1  0.4243100000000  0.3860460000000  0.5067590000000 1.0
C      1  0.3728450000000  0.3972210000000  0.5373330000000 1.0
C      1  0.4207570000000  0.4959480000000  0.4458420000000 1.0
C      1  0.4140170000000  0.4981730000000  0.5363120000000 1.0
C      1  0.4660870000000  0.5382910000000  0.4909020000000 1.0
C      1  0.4563810000000  0.6460810000000  0.4978510000000 1.0
C      1  0.4212810000000  0.5527320000000  0.4897940000000 1.0
C      1  0.5670350000000  0.4002770000000  0.5050860000000 1.0
C      1  0.4972140000000  0.4483210000000  0.5017860000000 1.0
C      1  0.4491600000000  0.5611770000000  0.4905920000000 1.0
C      1  0.5748490000000  0.4259840000000  0.5153490000000 1.0
C      1  0.5038230000000  0.3669100000000  0.5019950000000 1.0
C      1  0.3839840000000  0.4719380000000  0.4953840000000 1.0
C      1  0.5516140000000  0.3802690000000  0.5179240000000 1.0
C      1  0.4046110000000  0.4291520000000  0.5148610000000 1.0
C      1  0.5118700000000  0.4232210000000  0.4997710000000 1.0
C      1  0.5448340000000  0.6149650000000  0.5018360000000 1.0
C      1  0.5469860000000  0.4650430000000  0.4892360000000 1.0
C      1  0.5836510000000  0.5355840000000  0.5094020000000 1.0
C      1  0.6058070000000  0.5189130000000  0.5084930000000 1.0
C      1  0.5156300000000  0.6108880000000  0.5000290000000 1.0
C      1  0.4973000000000  0.5865220000000  0.4982600000000 1.0
C      1  0.3932600000000  0.4987240000000  0.4908520000000 1.0
C      1  0.4544020000000  0.4699340000000  0.4901050000000 1.0
C      1  0.5555980000000  0.5394140000000  0.5058790000000 1.0
C      1  0.5640670000000  0.3994820000000  0.4768420000000 1.0
C      1  0.5282110000000  0.3675680000000  0.5133480000000 1.0
C      1  0.6355450000000  0.4690440000000  0.4650050000000 1.0
C      1  0.4686720000000  0.4016620000000  0.4846180000000 1.0
C      1  0.5135570000000  0.5033130000000  0.4937320000000 1.0
C      1  0.4698930000000  0.4451070000000  0.4925170000000 1.0
C      1  0.5590910000000  0.5920640000000  0.4993940000000 1.0
C      1  0.4685100000000  0.5832460000000  0.4943500000000 1.0
C      1  0.4277780000000  0.4592750000000  0.4848700000000 1.0
C      1  0.4046330000000  0.4520200000000  0.4975470000000 1.0
C      1  0.5077850000000  0.6577620000000  0.5012270000000 1.0
C      1  0.5367150000000  0.4886930000000  0.5001480000000 1.0
C      1  0.6334890000000  0.4924280000000  0.4777800000000 1.0
C      1  0.4824390000000  0.3786570000000  0.4906460000000 1.0
C      1  0.5171640000000  0.5644930000000  0.5008070000000 1.0
C      1  0.5472400000000  0.5686990000000  0.5049700000000 1.0
C      1  0.5659340000000  0.4478570000000  0.4996900000000 1.0
END
