TITL C-3201377-4638-1200 0.00669063658459538 125000 -1034.81117032906 0 0 167 (C1) n - 1
REM
REM in /home/nfs/bkarasulu/CARBON/AIRSS/Generating-Clusters/LCBOP/Higher-Symm/SD-CG/FIRE-CG
REM
REM
REM
REM
REM
REM ./C.cell (b20cbc046b6831c77cfcea5457e17084)
REM AIRSS Version 0.9.1 bugfix July 2018 build 013d7b7c2542+ Fri, 06 Jul 2018 19:26:36 +0100
REM compiler GCC version 9.2.1 20190827 (Red Hat 9.2.1-1)
REM options -cpp -mtune=generic -march=x86-64 -g -O0 -fpre-include=/usr/include/finclude/math-vector-fortran.h
REM seed -80514689 1445194290 287917699 2020710211 1163169741 513770305 1558510001 936097387 -1568443692 -1875759875 614529471 778833589 933620805 1909399704 -1579001442 -25004589 -1212482813 1626393716 254589450 2103879307 836398466 -1049927380 -42266550 -410680336 1240236441 793378627 -1665550638 -1798490688 820406504 390601934 -816753195 1794438242 -965374664
REM
CELL 1.54180   50.00000   50.00000   50.00000   90.00000   90.00000   90.00000
LATT -1
SFAC C  
C      1  0.4248190000000  0.4238950000000  0.4635600000000 1.0
C      1  0.4752370000000  0.6102480000000  0.4608430000000 1.0
C      1  0.5975940000000  0.4697160000000  0.4603010000000 1.0
C      1  0.5453730000000  0.5473390000000  0.4082950000000 1.0
C      1  0.5113450000000  0.4357040000000  0.4057780000000 1.0
C      1  0.4320140000000  0.5395140000000  0.3930840000000 1.0
C      1  0.4359690000000  0.5132090000000  0.5416310000000 1.0
C      1  0.5375840000000  0.5510210000000  0.5399030000000 1.0
C      1  0.5327210000000  0.4320270000000  0.5399930000000 1.0
C      1  0.4852830000000  0.6346650000000  0.4999390000000 1.0
C      1  0.6210860000000  0.4451420000000  0.4918630000000 1.0
C      1  0.3940260000000  0.4217380000000  0.4990530000000 1.0
C      1  0.4080760000000  0.5152290000000  0.4256910000000 1.0
C      1  0.5749830000000  0.5792380000000  0.4329230000000 1.0
C      1  0.5247390000000  0.3933620000000  0.4289290000000 1.0
C      1  0.4734650000000  0.6099550000000  0.5392500000000 1.0
C      1  0.6139330000000  0.4628390000000  0.5363140000000 1.0
C      1  0.4182320000000  0.4274840000000  0.5401190000000 1.0
C      1  0.5716800000000  0.5941670000000  0.4574040000000 1.0
C      1  0.5387640000000  0.3901860000000  0.4537200000000 1.0
C      1  0.3905400000000  0.5140990000000  0.4501530000000 1.0
C      1  0.5089570000000  0.5786320000000  0.4554690000000 1.0
C      1  0.5545210000000  0.4540690000000  0.4708700000000 1.0
C      1  0.4371470000000  0.4686030000000  0.4694470000000 1.0
C      1  0.4963740000000  0.6257030000000  0.4751840000000 1.0
C      1  0.6046000000000  0.4419740000000  0.4685310000000 1.0
C      1  0.3986440000000  0.4338420000000  0.4736330000000 1.0
C      1  0.4445340000000  0.4435980000000  0.4596550000000 1.0
C      1  0.4823600000000  0.5851560000000  0.4502820000000 1.0
C      1  0.5699780000000  0.4749210000000  0.4601520000000 1.0
C      1  0.4606130000000  0.4526830000000  0.5262690000000 1.0
C      1  0.4778070000000  0.5662520000000  0.5163490000000 1.0
C      1  0.5707070000000  0.4853050000000  0.5265650000000 1.0
C      1  0.5630840000000  0.5369030000000  0.5343370000000 1.0
C      1  0.5036640000000  0.4231050000000  0.5350880000000 1.0
C      1  0.4341710000000  0.5396500000000  0.5296710000000 1.0
C      1  0.4904620000000  0.6586490000000  0.6010110000000 1.0
C      1  0.6604330000000  0.4198040000000  0.5858840000000 1.0
C      1  0.3569680000000  0.4226140000000  0.5922870000000 1.0
C      1  0.4844330000000  0.4379990000000  0.5185680000000 1.0
C      1  0.4549680000000  0.5496220000000  0.5106550000000 1.0
C      1  0.5631590000000  0.5118210000000  0.5188180000000 1.0
C      1  0.5234090000000  0.5636140000000  0.4008610000000 1.0
C      1  0.5361130000000  0.4495030000000  0.4054740000000 1.0
C      1  0.4289610000000  0.4944420000000  0.4276660000000 1.0
C      1  0.5478960000000  0.4340380000000  0.4531250000000 1.0
C      1  0.4207390000000  0.4809890000000  0.4511110000000 1.0
C      1  0.5285360000000  0.5926500000000  0.4412370000000 1.0
C      1  0.4408570000000  0.5120960000000  0.4857140000000 1.0
C      1  0.5437490000000  0.5603360000000  0.4807800000000 1.0
C      1  0.5471210000000  0.4239200000000  0.5133690000000 1.0
C      1  0.5504540000000  0.4682920000000  0.5163550000000 1.0
C      1  0.4578990000000  0.4787130000000  0.5147530000000 1.0
C      1  0.5027630000000  0.5608180000000  0.5034920000000 1.0
C      1  0.4384320000000  0.4472480000000  0.5437370000000 1.0
C      1  0.4811610000000  0.5825940000000  0.5397540000000 1.0
C      1  0.5873420000000  0.4695450000000  0.5437460000000 1.0
C      1  0.4673210000000  0.5414810000000  0.4604990000000 1.0
C      1  0.5388410000000  0.5096340000000  0.4701400000000 1.0
C      1  0.4910190000000  0.4478580000000  0.4639860000000 1.0
C      1  0.6308370000000  0.4483690000000  0.5531740000000 1.0
C      1  0.3975260000000  0.4251520000000  0.5589590000000 1.0
C      1  0.4784420000000  0.6270700000000  0.5607590000000 1.0
C      1  0.4218470000000  0.6064570000000  0.5628400000000 1.0
C      1  0.6339070000000  0.5069820000000  0.5634500000000 1.0
C      1  0.4411170000000  0.3857990000000  0.5699030000000 1.0
C      1  0.5054740000000  0.3914530000000  0.5886560000000 1.0
C      1  0.3928540000000  0.5455140000000  0.5761530000000 1.0
C      1  0.5925490000000  0.5566260000000  0.5864650000000 1.0
C      1  0.4460070000000  0.4848380000000  0.4901110000000 1.0
C      1  0.5170040000000  0.5671380000000  0.4798030000000 1.0
C      1  0.5537140000000  0.4475450000000  0.4977420000000 1.0
C      1  0.6347250000000  0.5160360000000  0.5382840000000 1.0
C      1  0.4471490000000  0.3764550000000  0.5455410000000 1.0
C      1  0.4139390000000  0.6076180000000  0.5372940000000 1.0
C      1  0.4506140000000  0.4294730000000  0.5987290000000 1.0
C      1  0.4514000000000  0.5735800000000  0.5923540000000 1.0
C      1  0.5968790000000  0.4900180000000  0.5974880000000 1.0
C      1  0.4094820000000  0.5537290000000  0.5283490000000 1.0
C      1  0.5887740000000  0.5489490000000  0.5356510000000 1.0
C      1  0.4984410000000  0.3951820000000  0.5379530000000 1.0
C      1  0.4964450000000  0.4093900000000  0.6063570000000 1.0
C      1  0.4103480000000  0.5442710000000  0.5964210000000 1.0
C      1  0.5861270000000  0.5388750000000  0.6054210000000 1.0
C      1  0.4335790000000  0.4661390000000  0.5656110000000 1.0
C      1  0.4953530000000  0.5723720000000  0.5629680000000 1.0
C      1  0.5748280000000  0.4551130000000  0.5660150000000 1.0
C      1  0.5306740000000  0.4615700000000  0.5353060000000 1.0
C      1  0.4596460000000  0.5004100000000  0.5327470000000 1.0
C      1  0.5185900000000  0.5443150000000  0.5196480000000 1.0
C      1  0.4931830000000  0.3929220000000  0.3928430000000 1.0
C      1  0.3836460000000  0.5434500000000  0.3943990000000 1.0
C      1  0.5930850000000  0.5480070000000  0.4014250000000 1.0
C      1  0.4649090000000  0.6207880000000  0.5146060000000 1.0
C      1  0.6217600000000  0.4679100000000  0.5096380000000 1.0
C      1  0.4152890000000  0.4129890000000  0.5161650000000 1.0
C      1  0.5225020000000  0.3812820000000  0.4757440000000 1.0
C      1  0.3894120000000  0.5374320000000  0.4667920000000 1.0
C      1  0.5882530000000  0.5840850000000  0.4786000000000 1.0
C      1  0.4526630000000  0.5374370000000  0.4844860000000 1.0
C      1  0.5416960000000  0.5106620000000  0.4985840000000 1.0
C      1  0.4897010000000  0.4380400000000  0.4904350000000 1.0
C      1  0.5011980000000  0.3788090000000  0.4924650000000 1.0
C      1  0.3967350000000  0.5587430000000  0.4821230000000 1.0
C      1  0.6013250000000  0.5640420000000  0.4916200000000 1.0
C      1  0.6202680000000  0.4946790000000  0.4973990000000 1.0
C      1  0.4357890000000  0.3966310000000  0.5035410000000 1.0
C      1  0.4424520000000  0.6105150000000  0.4988770000000 1.0
C      1  0.4846680000000  0.6432760000000  0.5807720000000 1.0
C      1  0.6459080000000  0.4337500000000  0.5693300000000 1.0
C      1  0.3768180000000  0.4238330000000  0.5754350000000 1.0
C      1  0.5098340000000  0.4663600000000  0.4575280000000 1.0
C      1  0.4882050000000  0.5229150000000  0.4570140000000 1.0
C      1  0.5135770000000  0.5164390000000  0.4600610000000 1.0
C      1  0.4728700000000  0.5555320000000  0.4135810000000 1.0
C      1  0.5506850000000  0.4978910000000  0.4225770000000 1.0
C      1  0.4688480000000  0.4606090000000  0.4209710000000 1.0
C      1  0.4069600000000  0.5331940000000  0.4040330000000 1.0
C      1  0.5711200000000  0.5582240000000  0.4143440000000 1.0
C      1  0.5097820000000  0.4073180000000  0.4093050000000 1.0
C      1  0.4966420000000  0.5650230000000  0.4015940000000 1.0
C      1  0.5495010000000  0.4722530000000  0.4101290000000 1.0
C      1  0.4544450000000  0.4869640000000  0.4165020000000 1.0
C      1  0.5857230000000  0.5124890000000  0.6102710000000 1.0
C      1  0.4760230000000  0.4263210000000  0.6104970000000 1.0
C      1  0.4348610000000  0.5532680000000  0.6027140000000 1.0
C      1  0.4885790000000  0.4527400000000  0.4011590000000 1.0
C      1  0.4584520000000  0.5346000000000  0.4010560000000 1.0
C      1  0.5392300000000  0.5193620000000  0.4077180000000 1.0
C      1  0.3918530000000  0.5510090000000  0.5499370000000 1.0
C      1  0.5962790000000  0.5600700000000  0.5601950000000 1.0
C      1  0.5043350000000  0.3840320000000  0.5629460000000 1.0
C      1  0.4682600000000  0.5077970000000  0.4014010000000 1.0
C      1  0.5166380000000  0.5124230000000  0.3918920000000 1.0
C      1  0.4920400000000  0.4723150000000  0.3808500000000 1.0
C      1  0.4072060000000  0.5715790000000  0.5055930000000 1.0
C      1  0.6053020000000  0.5443610000000  0.5120620000000 1.0
C      1  0.4846670000000  0.3834320000000  0.5154400000000 1.0
C      1  0.5892420000000  0.4174840000000  0.4618190000000 1.0
C      1  0.3850010000000  0.4587960000000  0.4669770000000 1.0
C      1  0.5256770000000  0.6255580000000  0.4714130000000 1.0
C      1  0.6136080000000  0.4915930000000  0.4698470000000 1.0
C      1  0.4346510000000  0.3996370000000  0.4753080000000 1.0
C      1  0.4485830000000  0.6119060000000  0.4712150000000 1.0
C      1  0.4195090000000  0.5977890000000  0.5110740000000 1.0
C      1  0.6212160000000  0.5193330000000  0.5132890000000 1.0
C      1  0.4557020000000  0.3830550000000  0.5191410000000 1.0
C      1  0.4679130000000  0.5626370000000  0.4411710000000 1.0
C      1  0.5561470000000  0.4975450000000  0.4508770000000 1.0
C      1  0.4688760000000  0.4458490000000  0.4460300000000 1.0
C      1  0.5458630000000  0.6089170000000  0.4577760000000 1.0
C      1  0.5613820000000  0.4088810000000  0.4559860000000 1.0
C      1  0.3930890000000  0.4853420000000  0.4585320000000 1.0
C      1  0.5231690000000  0.5647510000000  0.5606290000000 1.0
C      1  0.5554070000000  0.4334530000000  0.5613280000000 1.0
C      1  0.4247340000000  0.4932090000000  0.5596220000000 1.0
C      1  0.5185750000000  0.5168210000000  0.5146680000000 1.0
C      1  0.5185720000000  0.4813290000000  0.5494370000000 1.0
C      1  0.4825180000000  0.5097980000000  0.5443770000000 1.0
C      1  0.4399260000000  0.4055130000000  0.5879710000000 1.0
C      1  0.4373200000000  0.5957790000000  0.5818470000000 1.0
C      1  0.6211770000000  0.4952970000000  0.5838800000000 1.0
C      1  0.5818330000000  0.4668600000000  0.5908950000000 1.0
C      1  0.4402040000000  0.4546510000000  0.5907050000000 1.0
C      1  0.4786260000000  0.5697120000000  0.5856590000000 1.0
C      1  0.5077710000000  0.5030320000000  0.5365680000000 1.0
C      1  0.4920560000000  0.4997140000000  0.3879060000000 1.0
END
