TITL C-3201379-3821-2087 0.304423790317999 125000 -461.118018200342 0 0 76 (C1) n - 1
REM
REM in /home/nfs/bkarasulu/CARBON/AIRSS/Generating-Clusters/LCBOP/Higher-Symm/SD-CG/FIRE-CG
REM
REM
REM
REM
REM
REM ./C.cell (b20cbc046b6831c77cfcea5457e17084)
REM AIRSS Version 0.9.1 bugfix July 2018 build 013d7b7c2542+ Fri, 06 Jul 2018 19:26:36 +0100
REM compiler GCC version 9.2.1 20190827 (Red Hat 9.2.1-1)
REM options -cpp -mtune=generic -march=x86-64 -g -O0 -fpre-include=/usr/include/finclude/math-vector-fortran.h
REM seed 505372921 -1076932260 -160098348 1396090355 1168247273 164530785 556619786 -1622349823 1825171293 -198069394 -1146069339 376453164 -1285950225 -661912498 1841333404 533459215 415163697 -773645678 -1391700425 -561782320 -676910935 1782072760 -757602198 -775274211 -1782479672 1632811394 -321244882 -1508467914 1564620779 -1285927237 1592040955 1706239186 -1106768385
REM
CELL 1.54180   50.00000   50.00000   50.00000   90.00000   90.00000   90.00000
LATT -1
SFAC C  
C      1  0.5773430000000  0.4949910000000  0.4193010000000 1.0
C      1  0.5428460000000  0.5355530000000  0.4897910000000 1.0
C      1  0.4719770000000  0.4520730000000  0.5024410000000 1.0
C      1  0.4975720000000  0.4442620000000  0.4464060000000 1.0
C      1  0.4414070000000  0.5562140000000  0.4499580000000 1.0
C      1  0.4554620000000  0.4266080000000  0.5408370000000 1.0
C      1  0.5108650000000  0.5645050000000  0.3925020000000 1.0
C      1  0.4972770000000  0.4216790000000  0.6253790000000 1.0
C      1  0.4310470000000  0.4663100000000  0.5263600000000 1.0
C      1  0.4759010000000  0.5233640000000  0.4827890000000 1.0
C      1  0.5020940000000  0.4180550000000  0.5977300000000 1.0
C      1  0.5234410000000  0.5513800000000  0.4762070000000 1.0
C      1  0.4249570000000  0.4804830000000  0.5728110000000 1.0
C      1  0.4528690000000  0.4481100000000  0.5231040000000 1.0
C      1  0.4462930000000  0.5193220000000  0.4138130000000 1.0
C      1  0.4844540000000  0.5000070000000  0.4967950000000 1.0
C      1  0.5235340000000  0.6100090000000  0.4668750000000 1.0
C      1  0.5625470000000  0.4715380000000  0.4145650000000 1.0
C      1  0.4641200000000  0.4999350000000  0.4084850000000 1.0
C      1  0.4784820000000  0.5209000000000  0.4549390000000 1.0
C      1  0.6525040000000  0.5069100000000  0.5417990000000 1.0
C      1  0.4785980000000  0.5887420000000  0.4242080000000 1.0
C      1  0.4864340000000  0.4843960000000  0.4169040000000 1.0
C      1  0.4919370000000  0.5807360000000  0.4024240000000 1.0
C      1  0.4443060000000  0.5375840000000  0.5313720000000 1.0
C      1  0.4314830000000  0.4867250000000  0.5463130000000 1.0
C      1  0.4632950000000  0.4758310000000  0.6590670000000 1.0
C      1  0.4627970000000  0.4738500000000  0.4598690000000 1.0
C      1  0.4773680000000  0.5892420000000  0.4525660000000 1.0
C      1  0.5139640000000  0.4377190000000  0.6415120000000 1.0
C      1  0.5019560000000  0.5614340000000  0.4918770000000 1.0
C      1  0.4228010000000  0.4782080000000  0.5991520000000 1.0
C      1  0.4503310000000  0.4330140000000  0.6421100000000 1.0
C      1  0.5266650000000  0.5428940000000  0.4015390000000 1.0
C      1  0.5125760000000  0.4907440000000  0.4065210000000 1.0
C      1  0.5732400000000  0.5569950000000  0.4594370000000 1.0
C      1  0.4817230000000  0.4078310000000  0.5812620000000 1.0
C      1  0.5798230000000  0.5207540000000  0.4257370000000 1.0
C      1  0.5006730000000  0.4307300000000  0.4695480000000 1.0
C      1  0.4717750000000  0.4760030000000  0.4871520000000 1.0
C      1  0.5142630000000  0.4788010000000  0.5308680000000 1.0
C      1  0.5317050000000  0.5144760000000  0.5044080000000 1.0
C      1  0.4568570000000  0.5543920000000  0.5147780000000 1.0
C      1  0.5094040000000  0.4986170000000  0.5114850000000 1.0
C      1  0.4088100000000  0.4635820000000  0.5105230000000 1.0
C      1  0.5207420000000  0.4521250000000  0.5369270000000 1.0
C      1  0.5234010000000  0.4306230000000  0.5844980000000 1.0
C      1  0.4372810000000  0.5390780000000  0.4296300000000 1.0
C      1  0.4287730000000  0.4724780000000  0.6243910000000 1.0
C      1  0.5685810000000  0.5848080000000  0.4613490000000 1.0
C      1  0.4824520000000  0.4671950000000  0.4397180000000 1.0
C      1  0.4963180000000  0.5344150000000  0.4407410000000 1.0
C      1  0.4651820000000  0.4121650000000  0.5608890000000 1.0
C      1  0.5135930000000  0.4332290000000  0.5171990000000 1.0
C      1  0.5202560000000  0.5468090000000  0.4481770000000 1.0
C      1  0.4367840000000  0.5134700000000  0.5397300000000 1.0
C      1  0.5393620000000  0.5468430000000  0.4271080000000 1.0
C      1  0.5293650000000  0.4437820000000  0.5620980000000 1.0
C      1  0.5104010000000  0.4595110000000  0.6568230000000 1.0
C      1  0.4897000000000  0.4750640000000  0.6639410000000 1.0
C      1  0.5186280000000  0.5163350000000  0.3957130000000 1.0
C      1  0.6119340000000  0.5241620000000  0.5131520000000 1.0
C      1  0.4972950000000  0.6049250000000  0.4649430000000 1.0
C      1  0.5664430000000  0.5435440000000  0.4349920000000 1.0
C      1  0.4360830000000  0.4750210000000  0.4539560000000 1.0
C      1  0.5746870000000  0.4470820000000  0.4139710000000 1.0
C      1  0.4450960000000  0.4607050000000  0.6437210000000 1.0
C      1  0.5699510000000  0.5413490000000  0.4834050000000 1.0
C      1  0.5348270000000  0.4740670000000  0.4105200000000 1.0
C      1  0.4614770000000  0.5688250000000  0.4659040000000 1.0
C      1  0.5492990000000  0.6031480000000  0.4645940000000 1.0
C      1  0.5914930000000  0.5328080000000  0.4986990000000 1.0
C      1  0.4729550000000  0.5530350000000  0.4901950000000 1.0
C      1  0.4710800000000  0.4175350000000  0.6351360000000 1.0
C      1  0.4943970000000  0.4348930000000  0.4967690000000 1.0
C      1  0.6323870000000  0.5154650000000  0.5275940000000 1.0
END
