TITL C-3201375-1262-1481 191079.58059367 125000 -641.206554700611 0 0 106 (C1) n - 1
REM
REM in /home/nfs/bkarasulu/CARBON/AIRSS/Generating-Clusters/LCBOP/Higher-Symm/SD-CG/FIRE-CG
REM
REM
REM
REM
REM
REM ./C.cell (b20cbc046b6831c77cfcea5457e17084)
REM AIRSS Version 0.9.1 bugfix July 2018 build 013d7b7c2542+ Fri, 06 Jul 2018 19:26:36 +0100
REM compiler GCC version 9.2.1 20190827 (Red Hat 9.2.1-1)
REM options -cpp -mtune=generic -march=x86-64 -g -O0 -fpre-include=/usr/include/finclude/math-vector-fortran.h
REM seed 2107472996 -1220072818 -901375902 -2099256064 -2100718883 1711618565 350757026 522191487 -34991084 2040168518 616447403 401692860 -1361080183 -424681016 1511930656 -1428631527 249707570 -890425268 1633705533 1841917078 1324470963 387764503 2024580021 -1216536248 -232361916 1774260173 -757443180 1836312875 1283723675 -329829080 -860749348 680504200 -1670363929
REM
CELL 1.54180   50.00000   50.00000   50.00000   90.00000   90.00000   90.00000
LATT -1
SFAC C  
C      1  0.5356810000000  0.4885350000000  0.5037550000000 1.0
C      1  0.4842800000000  0.4877910000000  0.4668990000000 1.0
C      1  0.4826260000000  0.4884720000000  0.5309340000000 1.0
C      1  0.5086670000000  0.5064710000000  0.4663180000000 1.0
C      1  0.4679520000000  0.5055400000000  0.5101350000000 1.0
C      1  0.5265370000000  0.5079350000000  0.5264580000000 1.0
C      1  0.4612150000000  0.4902320000000  0.4870840000000 1.0
C      1  0.5099060000000  0.4940430000000  0.5457030000000 1.0
C      1  0.5320730000000  0.4916540000000  0.4731950000000 1.0
C      1  0.4119140000000  0.5355100000000  0.4616870000000 1.0
C      1  0.5117670000000  0.5373850000000  0.5962430000000 1.0
C      1  0.5777180000000  0.5354310000000  0.4426650000000 1.0
C      1  0.4042050000000  0.5050840000000  0.3904600000000 1.0
C      1  0.4554780000000  0.5014990000000  0.6357860000000 1.0
C      1  0.6407440000000  0.5009360000000  0.4722020000000 1.0
C      1  0.4931170000000  0.4640770000000  0.5151030000000 1.0
C      1  0.5174540000000  0.4638440000000  0.5090780000000 1.0
C      1  0.4963480000000  0.4611610000000  0.4750180000000 1.0
C      1  0.5393270000000  0.5843310000000  0.5173160000000 1.0
C      1  0.4962990000000  0.5834340000000  0.4577090000000 1.0
C      1  0.4655200000000  0.5835280000000  0.5242660000000 1.0
C      1  0.5789900000000  0.5393970000000  0.4705080000000 1.0
C      1  0.4353230000000  0.5394870000000  0.4465660000000 1.0
C      1  0.4870410000000  0.5407590000000  0.5832280000000 1.0
C      1  0.4674960000000  0.4747600000000  0.5531270000000 1.0
C      1  0.5628700000000  0.4751630000000  0.5039620000000 1.0
C      1  0.4689300000000  0.4772900000000  0.4426310000000 1.0
C      1  0.4450540000000  0.4156430000000  0.5306440000000 1.0
C      1  0.5541810000000  0.4162520000000  0.5340110000000 1.0
C      1  0.5016760000000  0.4167370000000  0.4357910000000 1.0
C      1  0.4728470000000  0.4128330000000  0.5367160000000 1.0
C      1  0.5459080000000  0.4130620000000  0.5068080000000 1.0
C      1  0.4820640000000  0.4137440000000  0.4564780000000 1.0
C      1  0.5572160000000  0.5540190000000  0.4817340000000 1.0
C      1  0.4563790000000  0.5532140000000  0.4600710000000 1.0
C      1  0.4880080000000  0.5552130000000  0.5586410000000 1.0
C      1  0.4218480000000  0.5185800000000  0.4040910000000 1.0
C      1  0.4579570000000  0.5162690000000  0.6144570000000 1.0
C      1  0.6209290000000  0.5156950000000  0.4804940000000 1.0
C      1  0.5121870000000  0.5541400000000  0.5439250000000 1.0
C      1  0.5324000000000  0.5525600000000  0.4681490000000 1.0
C      1  0.4568970000000  0.5515880000000  0.4883760000000 1.0
C      1  0.4272840000000  0.4584990000000  0.5341810000000 1.0
C      1  0.5672030000000  0.4588580000000  0.5481090000000 1.0
C      1  0.5068830000000  0.4601830000000  0.4190960000000 1.0
C      1  0.4272820000000  0.4318460000000  0.5472920000000 1.0
C      1  0.5778330000000  0.4319670000000  0.5411750000000 1.0
C      1  0.4961270000000  0.4332150000000  0.4122990000000 1.0
C      1  0.4622680000000  0.5282490000000  0.5896840000000 1.0
C      1  0.5972310000000  0.5276360000000  0.4889530000000 1.0
C      1  0.4415310000000  0.5289930000000  0.4208140000000 1.0
C      1  0.4321470000000  0.4538060000000  0.5045350000000 1.0
C      1  0.5389780000000  0.4546700000000  0.5589120000000 1.0
C      1  0.5304710000000  0.4553050000000  0.4384690000000 1.0
C      1  0.4134700000000  0.4242500000000  0.5693460000000 1.0
C      1  0.6036760000000  0.4237810000000  0.5419150000000 1.0
C      1  0.4843500000000  0.4256420000000  0.3890710000000 1.0
C      1  0.5380450000000  0.5442800000000  0.4103840000000 1.0
C      1  0.4039610000000  0.5440130000000  0.5122830000000 1.0
C      1  0.5595160000000  0.5457430000000  0.5778150000000 1.0
C      1  0.5444140000000  0.4691800000000  0.4593630000000 1.0
C      1  0.4424530000000  0.4685660000000  0.4825730000000 1.0
C      1  0.5147590000000  0.4696870000000  0.5617440000000 1.0
C      1  0.4640830000000  0.5657750000000  0.5469880000000 1.0
C      1  0.5592920000000  0.5656020000000  0.5078700000000 1.0
C      1  0.4778090000000  0.5651040000000  0.4451990000000 1.0
C      1  0.5231720000000  0.5750950000000  0.4541920000000 1.0
C      1  0.4493060000000  0.5743900000000  0.5029200000000 1.0
C      1  0.5288070000000  0.5767130000000  0.5425320000000 1.0
C      1  0.4507490000000  0.4576860000000  0.4558300000000 1.0
C      1  0.4877410000000  0.4564980000000  0.5640550000000 1.0
C      1  0.5613820000000  0.4568650000000  0.4808530000000 1.0
C      1  0.4730970000000  0.5326720000000  0.5025840000000 1.0
C      1  0.5165540000000  0.5345550000000  0.5234920000000 1.0
C      1  0.5123390000000  0.5334100000000  0.4752180000000 1.0
C      1  0.4692580000000  0.5283910000000  0.4133100000000 1.0
C      1  0.4422920000000  0.5272970000000  0.5690790000000 1.0
C      1  0.5895530000000  0.5274040000000  0.5166400000000 1.0
C      1  0.5279250000000  0.4262980000000  0.4431590000000 1.0
C      1  0.4382160000000  0.4251440000000  0.5042020000000 1.0
C      1  0.5350060000000  0.4260740000000  0.5532580000000 1.0
C      1  0.4899260000000  0.4030000000000  0.4808420000000 1.0
C      1  0.4893120000000  0.4023180000000  0.5170950000000 1.0
C      1  0.5210950000000  0.4021540000000  0.5012420000000 1.0
C      1  0.5754710000000  0.4786610000000  0.5291510000000 1.0
C      1  0.4858740000000  0.4799190000000  0.4197640000000 1.0
C      1  0.4395270000000  0.4784090000000  0.5506330000000 1.0
C      1  0.4831270000000  0.4290300000000  0.5579410000000 1.0
C      1  0.5592360000000  0.4293330000000  0.4875260000000 1.0
C      1  0.4587150000000  0.4302440000000  0.4540320000000 1.0
C      1  0.5216220000000  0.6000620000000  0.5029510000000 1.0
C      1  0.4932500000000  0.5995450000000  0.4800400000000 1.0
C      1  0.4862370000000  0.5997360000000  0.5155430000000 1.0
C      1  0.4304180000000  0.5026230000000  0.5615870000000 1.0
C      1  0.5893860000000  0.5030100000000  0.5312380000000 1.0
C      1  0.4815430000000  0.5038990000000  0.4057910000000 1.0
C      1  0.5382540000000  0.5398530000000  0.5929510000000 1.0
C      1  0.5616010000000  0.5379190000000  0.4213790000000 1.0
C      1  0.4016190000000  0.5378530000000  0.4863390000000 1.0
C      1  0.5121440000000  0.5510030000000  0.4108490000000 1.0
C      1  0.4174620000000  0.5505690000000  0.5344480000000 1.0
C      1  0.5718740000000  0.5516820000000  0.5548420000000 1.0
C      1  0.4400400000000  0.5498260000000  0.5513680000000 1.0
C      1  0.5751890000000  0.5501520000000  0.5268760000000 1.0
C      1  0.4860120000000  0.5502590000000  0.4214720000000 1.0
C      1  0.5007160000000  0.5379190000000  0.5004860000000 1.0
END
