TITL C-3201376-6384-1033 -63.8430903784256 125000 -582.11375192268 0 0 98 (C3h) n - 1
REM
REM in /home/nfs/bkarasulu/CARBON/AIRSS/Generating-Clusters/LCBOP/Higher-Symm/SD-CG/FIRE-CG
REM
REM
REM
REM
REM
REM ./C.cell (b20cbc046b6831c77cfcea5457e17084)
REM AIRSS Version 0.9.1 bugfix July 2018 build 013d7b7c2542+ Fri, 06 Jul 2018 19:26:36 +0100
REM compiler GCC version 9.2.1 20190827 (Red Hat 9.2.1-1)
REM options -cpp -mtune=generic -march=x86-64 -g -O0 -fpre-include=/usr/include/finclude/math-vector-fortran.h
REM seed 1330052925 658377613 1908421723 -722178242 -1321886682 668361061 1078176259 -799140109 2131749031 188204078 1914171033 2078848737 -1274965991 1740411335 -977595170 883155932 -2035091601 286304495 -675167829 43503747 872447459 1819913515 -1448858318 1419032657 -750306490 883470814 -519556619 -630883755 1567526767 1431238822 -1788857748 -786337701 -1488213856
REM
CELL 1.54180   50.00000   50.00000   50.00000   90.00000   90.00000   90.00000
LATT -1
SFAC C  
C      1  0.5262440000000  0.5115660000000  0.4238850000000 1.0
C      1  0.5261980000000  0.5606970000000  0.5478140000000 1.0
C      1  0.5261810000000  0.4288370000000  0.5283990000000 1.0
C      1  0.4752780000000  0.5115890000000  0.4238710000000 1.0
C      1  0.4752290000000  0.5606700000000  0.5478120000000 1.0
C      1  0.4752040000000  0.4288660000000  0.5284000000000 1.0
C      1  0.5530100000000  0.4269000000000  0.5179810000000 1.0
C      1  0.5530650000000  0.5215660000000  0.4274360000000 1.0
C      1  0.5530270000000  0.5526430000000  0.5547010000000 1.0
C      1  0.4483670000000  0.4269830000000  0.5179830000000 1.0
C      1  0.4484480000000  0.5215820000000  0.4274060000000 1.0
C      1  0.4484080000000  0.5526010000000  0.5547090000000 1.0
C      1  0.5650840000000  0.4977730000000  0.4403900000000 1.0
C      1  0.5650520000000  0.5533280000000  0.5276230000000 1.0
C      1  0.5650330000000  0.4500110000000  0.5321120000000 1.0
C      1  0.4364350000000  0.4977910000000  0.4403590000000 1.0
C      1  0.4363810000000  0.5532440000000  0.5276340000000 1.0
C      1  0.4363790000000  0.4500910000000  0.5321370000000 1.0
C      1  0.4871380000000  0.4011260000000  0.4738440000000 1.0
C      1  0.4871520000000  0.5727210000000  0.4271880000000 1.0
C      1  0.4871670000000  0.5273090000000  0.5991270000000 1.0
C      1  0.5142590000000  0.4011110000000  0.4738330000000 1.0
C      1  0.5142730000000  0.5727110000000  0.4271830000000 1.0
C      1  0.5142880000000  0.5273070000000  0.5991220000000 1.0
C      1  0.5672400000000  0.5479140000000  0.4774720000000 1.0
C      1  0.5672280000000  0.4961540000000  0.5524900000000 1.0
C      1  0.5672380000000  0.4570460000000  0.4701670000000 1.0
C      1  0.4342060000000  0.5478450000000  0.4775140000000 1.0
C      1  0.4342380000000  0.4962430000000  0.5525730000000 1.0
C      1  0.4341410000000  0.4570610000000  0.4700960000000 1.0
C      1  0.4488400000000  0.4326010000000  0.4819610000000 1.0
C      1  0.4488710000000  0.5499080000000  0.4503520000000 1.0
C      1  0.4488660000000  0.5185870000000  0.5678460000000 1.0
C      1  0.5525650000000  0.4325560000000  0.4819620000000 1.0
C      1  0.5525790000000  0.5499330000000  0.4503550000000 1.0
C      1  0.5525750000000  0.5186180000000  0.5678030000000 1.0
C      1  0.5288480000000  0.5256370000000  0.5135070000000 1.0
C      1  0.5288210000000  0.4760740000000  0.5151830000000 1.0
C      1  0.5288740000000  0.4994090000000  0.4714190000000 1.0
C      1  0.4726320000000  0.5256080000000  0.5134810000000 1.0
C      1  0.4725830000000  0.4760740000000  0.5151430000000 1.0
C      1  0.4726790000000  0.4993890000000  0.4713810000000 1.0
C      1  0.5579100000000  0.5044490000000  0.4670780000000 1.0
C      1  0.5578840000000  0.5268780000000  0.5200530000000 1.0
C      1  0.5578630000000  0.4697890000000  0.5129890000000 1.0
C      1  0.4436400000000  0.5044410000000  0.4670370000000 1.0
C      1  0.4436140000000  0.5267980000000  0.5200770000000 1.0
C      1  0.4435960000000  0.4698870000000  0.5130170000000 1.0
C      1  0.4856370000000  0.5801100000000  0.5268930000000 1.0
C      1  0.4856320000000  0.4372700000000  0.5556890000000 1.0
C      1  0.4856820000000  0.4837390000000  0.4175150000000 1.0
C      1  0.5157730000000  0.5801250000000  0.5268910000000 1.0
C      1  0.5157670000000  0.4372570000000  0.5556860000000 1.0
C      1  0.5158180000000  0.4837290000000  0.4175230000000 1.0
C      1  0.4259440000000  0.4773380000000  0.4944740000000 1.0
C      1  0.4262360000000  0.5164640000000  0.4828990000000 1.0
C      1  0.4262600000000  0.5068600000000  0.5232120000000 1.0
C      1  0.5752810000000  0.4772930000000  0.4945020000000 1.0
C      1  0.5753030000000  0.5167060000000  0.4828440000000 1.0
C      1  0.5752810000000  0.5070950000000  0.5228030000000 1.0
C      1  0.4874710000000  0.4739990000000  0.4671060000000 1.0
C      1  0.4874230000000  0.5420340000000  0.4936420000000 1.0
C      1  0.4873720000000  0.4850670000000  0.5393070000000 1.0
C      1  0.5141000000000  0.4739990000000  0.4671330000000 1.0
C      1  0.5140530000000  0.5420410000000  0.4936480000000 1.0
C      1  0.5140030000000  0.4850750000000  0.5393120000000 1.0
C      1  0.4425720000000  0.4684070000000  0.4417400000000 1.0
C      1  0.4425620000000  0.5667390000000  0.5015060000000 1.0
C      1  0.4425770000000  0.4659770000000  0.5569060000000 1.0
C      1  0.5588870000000  0.4683900000000  0.4417860000000 1.0
C      1  0.5588630000000  0.5668120000000  0.5014830000000 1.0
C      1  0.5588550000000  0.4659130000000  0.5568540000000 1.0
C      1  0.4698760000000  0.4596050000000  0.5691190000000 1.0
C      1  0.4698800000000  0.4609560000000  0.4301480000000 1.0
C      1  0.4698490000000  0.5805500000000  0.5008540000000 1.0
C      1  0.5315560000000  0.4595890000000  0.5690960000000 1.0
C      1  0.5315890000000  0.4609450000000  0.4301620000000 1.0
C      1  0.5315590000000  0.5805860000000  0.5008450000000 1.0
C      1  0.5164390000000  0.5803530000000  0.4752550000000 1.0
C      1  0.5164480000000  0.4818690000000  0.5816810000000 1.0
C      1  0.5164540000000  0.4389010000000  0.4431550000000 1.0
C      1  0.4849730000000  0.5803450000000  0.4752610000000 1.0
C      1  0.4850060000000  0.4818710000000  0.5816910000000 1.0
C      1  0.4849880000000  0.4389090000000  0.4431570000000 1.0
C      1  0.4712690000000  0.5086960000000  0.5845100000000 1.0
C      1  0.4712460000000  0.4230960000000  0.4650200000000 1.0
C      1  0.4712520000000  0.5693540000000  0.4506160000000 1.0
C      1  0.5301810000000  0.5086970000000  0.5844930000000 1.0
C      1  0.5301730000000  0.4230650000000  0.4650120000000 1.0
C      1  0.5301740000000  0.5693520000000  0.4506130000000 1.0
C      1  0.5146840000000  0.5164590000000  0.4506280000000 1.0
C      1  0.5146490000000  0.5350890000000  0.5386670000000 1.0
C      1  0.5146270000000  0.4495550000000  0.5107900000000 1.0
C      1  0.4868440000000  0.5164650000000  0.4506160000000 1.0
C      1  0.4868060000000  0.5350750000000  0.5386610000000 1.0
C      1  0.4867850000000  0.4495610000000  0.5107780000000 1.0
C      1  0.5264310000000  0.5003750000000  0.5000340000000 1.0
C      1  0.4750780000000  0.5003550000000  0.4999940000000 1.0
END
