TITL C-3201372-1405-2155 -3.05306537349796e-05 125000 -1125.70583959806 0 0 184 (C1) n - 1
REM
REM in /home/nfs/bkarasulu/CARBON/AIRSS/Generating-Clusters/LCBOP/Higher-Symm/SD-CG/FIRE-CG
REM
REM
REM
REM
REM
REM ./C.cell (b20cbc046b6831c77cfcea5457e17084)
REM AIRSS Version 0.9.1 bugfix July 2018 build 013d7b7c2542+ Fri, 06 Jul 2018 19:26:36 +0100
REM compiler GCC version 9.2.1 20190827 (Red Hat 9.2.1-1)
REM options -cpp -mtune=generic -march=x86-64 -g -O0 -fpre-include=/usr/include/finclude/math-vector-fortran.h
REM seed 627352039 -283049435 -678621836 985080153 -1978216267 -1931091591 -1898338640 -1007882118 -1272476883 -721448615 -1237861721 -57598405 -1801343457 -358429937 1056640795 1629343419 447133843 2090417878 2031233026 -1622626315 -1543040635 -649568910 -187725857 1895430825 1991970936 -385263069 -636490772 1484202145 1727946688 2035591272 343876017 -95929536 -1265351999
REM
CELL 1.54180   50.00000   50.00000   50.00000   90.00000   90.00000   90.00000
LATT -1
SFAC C  
C      1  0.4486120000000  0.5645930000000  0.4140560000000 1.0
C      1  0.4930890000000  0.5942880000000  0.5726590000000 1.0
C      1  0.5404310000000  0.3829260000000  0.4750480000000 1.0
C      1  0.4920930000000  0.4309900000000  0.5102690000000 1.0
C      1  0.5363830000000  0.5435690000000  0.4696900000000 1.0
C      1  0.5069080000000  0.5460520000000  0.4659010000000 1.0
C      1  0.3720770000000  0.5004360000000  0.4905090000000 1.0
C      1  0.4609650000000  0.5701910000000  0.5211540000000 1.0
C      1  0.4841530000000  0.5681280000000  0.5840590000000 1.0
C      1  0.5077010000000  0.5490580000000  0.3767310000000 1.0
C      1  0.4823080000000  0.5583270000000  0.3774290000000 1.0
C      1  0.4422160000000  0.4276880000000  0.5617390000000 1.0
C      1  0.5141100000000  0.5739870000000  0.5359250000000 1.0
C      1  0.5881080000000  0.4729600000000  0.5925280000000 1.0
C      1  0.6141630000000  0.4450230000000  0.5540130000000 1.0
C      1  0.4918100000000  0.4196090000000  0.4848600000000 1.0
C      1  0.5430790000000  0.3903300000000  0.5022980000000 1.0
C      1  0.5560740000000  0.5317920000000  0.5936680000000 1.0
C      1  0.4999730000000  0.4504000000000  0.5699070000000 1.0
C      1  0.5725940000000  0.4729020000000  0.5299640000000 1.0
C      1  0.4605590000000  0.4660650000000  0.5157560000000 1.0
C      1  0.3950980000000  0.5384260000000  0.4642770000000 1.0
C      1  0.5233360000000  0.5354220000000  0.3964690000000 1.0
C      1  0.4110550000000  0.4815350000000  0.4112470000000 1.0
C      1  0.4664720000000  0.3937060000000  0.5332770000000 1.0
C      1  0.6306480000000  0.5101440000000  0.4818590000000 1.0
C      1  0.3783610000000  0.4725010000000  0.4933460000000 1.0
C      1  0.4320040000000  0.5269810000000  0.4927670000000 1.0
C      1  0.4027780000000  0.5203170000000  0.5583960000000 1.0
C      1  0.5138700000000  0.4057860000000  0.4456710000000 1.0
C      1  0.5214890000000  0.5494010000000  0.4217030000000 1.0
C      1  0.5348120000000  0.5738710000000  0.4340500000000 1.0
C      1  0.4113400000000  0.5470190000000  0.4866450000000 1.0
C      1  0.4115350000000  0.4691480000000  0.5343300000000 1.0
C      1  0.5108760000000  0.5267650000000  0.6111900000000 1.0
C      1  0.4384390000000  0.4682000000000  0.4513500000000 1.0
C      1  0.5371290000000  0.4835110000000  0.6082410000000 1.0
C      1  0.4404300000000  0.3957430000000  0.4908020000000 1.0
C      1  0.5053930000000  0.5317510000000  0.5638500000000 1.0
C      1  0.4488820000000  0.5250580000000  0.3842490000000 1.0
C      1  0.5145710000000  0.4724730000000  0.4493890000000 1.0
C      1  0.5213320000000  0.4957720000000  0.4630970000000 1.0
C      1  0.3589860000000  0.5129770000000  0.5117040000000 1.0
C      1  0.5032240000000  0.5455980000000  0.5907980000000 1.0
C      1  0.3901190000000  0.4988570000000  0.4167330000000 1.0
C      1  0.5948970000000  0.5729360000000  0.4761720000000 1.0
C      1  0.6234170000000  0.4497740000000  0.5045220000000 1.0
C      1  0.4937070000000  0.5055740000000  0.5005460000000 1.0
C      1  0.5563410000000  0.4366980000000  0.5015350000000 1.0
C      1  0.6389770000000  0.4730660000000  0.5108450000000 1.0
C      1  0.4831720000000  0.4828520000000  0.5140860000000 1.0
C      1  0.5727660000000  0.4996620000000  0.4602690000000 1.0
C      1  0.3891600000000  0.4748010000000  0.5501630000000 1.0
C      1  0.3622700000000  0.4356130000000  0.5755020000000 1.0
C      1  0.4926520000000  0.5103180000000  0.6252610000000 1.0
C      1  0.4400970000000  0.4399330000000  0.5854230000000 1.0
C      1  0.5387690000000  0.4977710000000  0.5096080000000 1.0
C      1  0.5580450000000  0.3976330000000  0.4554970000000 1.0
C      1  0.5481920000000  0.4521320000000  0.4783100000000 1.0
C      1  0.4434390000000  0.5150470000000  0.4700000000000 1.0
C      1  0.5571400000000  0.5363240000000  0.5377110000000 1.0
C      1  0.3917060000000  0.4666530000000  0.4499060000000 1.0
C      1  0.6199510000000  0.4453920000000  0.4759220000000 1.0
C      1  0.4578170000000  0.5515110000000  0.3899700000000 1.0
C      1  0.5956780000000  0.4731610000000  0.4273810000000 1.0
C      1  0.5044860000000  0.4436170000000  0.5972780000000 1.0
C      1  0.5665240000000  0.5512560000000  0.5155300000000 1.0
C      1  0.4163850000000  0.4652500000000  0.4345440000000 1.0
C      1  0.5353940000000  0.5765080000000  0.5649130000000 1.0
C      1  0.5634300000000  0.4746950000000  0.4706920000000 1.0
C      1  0.5449610000000  0.4450550000000  0.5567270000000 1.0
C      1  0.5493300000000  0.4716980000000  0.5480590000000 1.0
C      1  0.4918130000000  0.4751520000000  0.4330810000000 1.0
C      1  0.6010990000000  0.4315550000000  0.4581340000000 1.0
C      1  0.5260040000000  0.5060020000000  0.3930350000000 1.0
C      1  0.4503160000000  0.6104660000000  0.5105010000000 1.0
C      1  0.4150980000000  0.5338040000000  0.5368760000000 1.0
C      1  0.6505780000000  0.5180170000000  0.5256680000000 1.0
C      1  0.5352500000000  0.6027560000000  0.4314460000000 1.0
C      1  0.3802210000000  0.5130470000000  0.4657880000000 1.0
C      1  0.3749220000000  0.4549110000000  0.5633950000000 1.0
C      1  0.5019850000000  0.5544430000000  0.5172730000000 1.0
C      1  0.5777910000000  0.4432380000000  0.5225910000000 1.0
C      1  0.5611320000000  0.6135430000000  0.4246230000000 1.0
C      1  0.4511630000000  0.5327260000000  0.4479150000000 1.0
C      1  0.5487930000000  0.5578380000000  0.5822840000000 1.0
C      1  0.5182410000000  0.4369010000000  0.5520950000000 1.0
C      1  0.4755350000000  0.4956010000000  0.4428740000000 1.0
C      1  0.3583150000000  0.5120980000000  0.5397670000000 1.0
C      1  0.3845770000000  0.4126020000000  0.4988310000000 1.0
C      1  0.4653290000000  0.3868160000000  0.5036840000000 1.0
C      1  0.4339250000000  0.4725080000000  0.5204360000000 1.0
C      1  0.6039850000000  0.4549320000000  0.5772120000000 1.0
C      1  0.3366600000000  0.5200530000000  0.5542680000000 1.0
C      1  0.4913990000000  0.3957320000000  0.5803330000000 1.0
C      1  0.4552070000000  0.4203640000000  0.5379570000000 1.0
C      1  0.5121060000000  0.4675100000000  0.6125890000000 1.0
C      1  0.5380660000000  0.4165250000000  0.5114380000000 1.0
C      1  0.4103220000000  0.5243100000000  0.5843450000000 1.0
C      1  0.5807390000000  0.3799280000000  0.5669320000000 1.0
C      1  0.5431360000000  0.4852020000000  0.4032980000000 1.0
C      1  0.5150080000000  0.4260640000000  0.5259510000000 1.0
C      1  0.5214480000000  0.5974510000000  0.5786110000000 1.0
C      1  0.4255980000000  0.4138810000000  0.4736620000000 1.0
C      1  0.4472840000000  0.4547670000000  0.6064950000000 1.0
C      1  0.4008470000000  0.4275290000000  0.4819920000000 1.0
C      1  0.4377700000000  0.5249000000000  0.5208570000000 1.0
C      1  0.4643200000000  0.5833030000000  0.4288500000000 1.0
C      1  0.4236920000000  0.5772140000000  0.5505360000000 1.0
C      1  0.5119870000000  0.3831360000000  0.4661270000000 1.0
C      1  0.5670220000000  0.4933280000000  0.5111360000000 1.0
C      1  0.4728290000000  0.4972350000000  0.5708430000000 1.0
C      1  0.4971550000000  0.6575780000000  0.4650600000000 1.0
C      1  0.5973940000000  0.4951370000000  0.4459420000000 1.0
C      1  0.5937880000000  0.5900310000000  0.4552770000000 1.0
C      1  0.5805710000000  0.6352150000000  0.4636670000000 1.0
C      1  0.4334950000000  0.5482390000000  0.4320870000000 1.0
C      1  0.5283350000000  0.4855300000000  0.5341360000000 1.0
C      1  0.4933300000000  0.5970540000000  0.5420030000000 1.0
C      1  0.4061830000000  0.5474570000000  0.4394230000000 1.0
C      1  0.5673250000000  0.6335050000000  0.4872350000000 1.0
C      1  0.4085450000000  0.5618860000000  0.5321020000000 1.0
C      1  0.4566560000000  0.4992880000000  0.3834070000000 1.0
C      1  0.5971550000000  0.4467120000000  0.4337780000000 1.0
C      1  0.5950880000000  0.5003480000000  0.5909810000000 1.0
C      1  0.4640020000000  0.4698460000000  0.6210320000000 1.0
C      1  0.4121560000000  0.5703130000000  0.5042920000000 1.0
C      1  0.4817610000000  0.3859520000000  0.5565330000000 1.0
C      1  0.5193890000000  0.5022100000000  0.4899340000000 1.0
C      1  0.3807630000000  0.4943480000000  0.4438640000000 1.0
C      1  0.5846090000000  0.5607130000000  0.4979010000000 1.0
C      1  0.4792420000000  0.4827690000000  0.3875960000000 1.0
C      1  0.5037440000000  0.4942470000000  0.3794230000000 1.0
C      1  0.5170290000000  0.6174760000000  0.4483440000000 1.0
C      1  0.4739570000000  0.5257820000000  0.5597000000000 1.0
C      1  0.4891720000000  0.5283560000000  0.5159150000000 1.0
C      1  0.4675190000000  0.4393850000000  0.5210190000000 1.0
C      1  0.5299740000000  0.5312860000000  0.5481570000000 1.0
C      1  0.5619770000000  0.4696850000000  0.6036350000000 1.0
C      1  0.5452660000000  0.5895450000000  0.4821130000000 1.0
C      1  0.4812050000000  0.4636400000000  0.4091350000000 1.0
C      1  0.4992000000000  0.4150660000000  0.5983600000000 1.0
C      1  0.4516150000000  0.4232860000000  0.4266240000000 1.0
C      1  0.4962370000000  0.6209350000000  0.4957370000000 1.0
C      1  0.4671600000000  0.4393740000000  0.4117630000000 1.0
C      1  0.5784330000000  0.5258600000000  0.5533950000000 1.0
C      1  0.5057440000000  0.4281450000000  0.4621350000000 1.0
C      1  0.6074100000000  0.4411510000000  0.5262090000000 1.0
C      1  0.6221000000000  0.4940030000000  0.4605230000000 1.0
C      1  0.5836850000000  0.4091350000000  0.4609780000000 1.0
C      1  0.5407320000000  0.4101240000000  0.4346770000000 1.0
C      1  0.6405970000000  0.5010500000000  0.5068360000000 1.0
C      1  0.4284850000000  0.5951200000000  0.5018520000000 1.0
C      1  0.4510130000000  0.5704440000000  0.5484060000000 1.0
C      1  0.4879550000000  0.5670870000000  0.4742460000000 1.0
C      1  0.4647390000000  0.5252340000000  0.5310780000000 1.0
C      1  0.5009260000000  0.5380370000000  0.4390840000000 1.0
C      1  0.4360230000000  0.4164400000000  0.4473590000000 1.0
C      1  0.5525540000000  0.6121600000000  0.4945850000000 1.0
C      1  0.5741540000000  0.4035040000000  0.5580010000000 1.0
C      1  0.5456960000000  0.4327120000000  0.4176650000000 1.0
C      1  0.5662610000000  0.6232400000000  0.3995780000000 1.0
C      1  0.5009010000000  0.4808960000000  0.5366920000000 1.0
C      1  0.4534310000000  0.4896910000000  0.4602180000000 1.0
C      1  0.4795710000000  0.6119450000000  0.5180760000000 1.0
C      1  0.4769860000000  0.5235700000000  0.4373560000000 1.0
C      1  0.5569300000000  0.5234340000000  0.4646490000000 1.0
C      1  0.3819850000000  0.5021890000000  0.5519560000000 1.0
C      1  0.5234070000000  0.4496190000000  0.4632070000000 1.0
C      1  0.5813600000000  0.6136120000000  0.4451440000000 1.0
C      1  0.4892050000000  0.3901890000000  0.4854620000000 1.0
C      1  0.4892660000000  0.4822370000000  0.6230760000000 1.0
C      1  0.5463200000000  0.4584990000000  0.4086290000000 1.0
C      1  0.5036630000000  0.6311870000000  0.4698510000000 1.0
C      1  0.5366120000000  0.5138080000000  0.6062180000000 1.0
C      1  0.4755940000000  0.5821710000000  0.4534990000000 1.0
C      1  0.5790820000000  0.5208230000000  0.5809030000000 1.0
C      1  0.5439650000000  0.5698520000000  0.4619610000000 1.0
C      1  0.4820960000000  0.5689040000000  0.5016410000000 1.0
C      1  0.5663060000000  0.4280470000000  0.5482030000000 1.0
C      1  0.4638260000000  0.5544320000000  0.5681880000000 1.0
C      1  0.3902930000000  0.4540010000000  0.4752330000000 1.0
C      1  0.6327540000000  0.4672840000000  0.4616360000000 1.0
C      1  0.4891370000000  0.4753790000000  0.5617260000000 1.0
END
