TITL C-3201378-2706-1021 -8.09453497252428e-07 125000 -506.42856114405 0 0 84 (C1) n - 1
REM
REM in /home/nfs/bkarasulu/CARBON/AIRSS/Generating-Clusters/LCBOP/Higher-Symm/SD-CG/FIRE-CG
REM
REM
REM
REM
REM
REM ./C.cell (b20cbc046b6831c77cfcea5457e17084)
REM AIRSS Version 0.9.1 bugfix July 2018 build 013d7b7c2542+ Fri, 06 Jul 2018 19:26:36 +0100
REM compiler GCC version 9.2.1 20190827 (Red Hat 9.2.1-1)
REM options -cpp -mtune=generic -march=x86-64 -g -O0 -fpre-include=/usr/include/finclude/math-vector-fortran.h
REM seed -1565708302 289235948 779604112 -1751536358 -1193941108 1775385553 939761524 -1212577140 1653792095 1356310541 -746730598 42467027 1378118113 1178230796 196257792 1233476909 -905987600 886211118 1244947766 2022727482 -308421538 1790684978 -651293440 552534810 584052203 -1042935952 -577961286 -1535757336 1282113705 -730632041 1014338096 1844254005 -2140561905
REM
CELL 1.54180   50.00000   50.00000   50.00000   90.00000   90.00000   90.00000
LATT -1
SFAC C  
C      1  0.4753180000000  0.4761940000000  0.5124730000000 1.0
C      1  0.5260550000000  0.5224000000000  0.4896560000000 1.0
C      1  0.4889330000000  0.5648240000000  0.5012220000000 1.0
C      1  0.5042500000000  0.4274530000000  0.4904000000000 1.0
C      1  0.4558740000000  0.5293170000000  0.4417310000000 1.0
C      1  0.5871850000000  0.3811630000000  0.5631050000000 1.0
C      1  0.5067790000000  0.4944600000000  0.5600110000000 1.0
C      1  0.5180580000000  0.5081840000000  0.4415840000000 1.0
C      1  0.4815690000000  0.5615470000000  0.4040610000000 1.0
C      1  0.5430960000000  0.4361600000000  0.5879890000000 1.0
C      1  0.5152000000000  0.4784380000000  0.4762890000000 1.0
C      1  0.4841560000000  0.5182720000000  0.5231770000000 1.0
C      1  0.4347920000000  0.5507730000000  0.5502020000000 1.0
C      1  0.5604360000000  0.4445860000000  0.4467090000000 1.0
C      1  0.4933270000000  0.5201610000000  0.5666260000000 1.0
C      1  0.5176820000000  0.4801910000000  0.4303730000000 1.0
C      1  0.4278520000000  0.4834320000000  0.5605660000000 1.0
C      1  0.5814350000000  0.5089790000000  0.4480540000000 1.0
C      1  0.4092530000000  0.5017470000000  0.5026330000000 1.0
C      1  0.6007220000000  0.4709190000000  0.4968080000000 1.0
C      1  0.4540600000000  0.4433600000000  0.4809420000000 1.0
C      1  0.5277760000000  0.5877750000000  0.5222060000000 1.0
C      1  0.5696330000000  0.4018000000000  0.5600100000000 1.0
C      1  0.4417160000000  0.5523590000000  0.4317080000000 1.0
C      1  0.5047470000000  0.4476230000000  0.5352100000000 1.0
C      1  0.4799720000000  0.5358540000000  0.4563900000000 1.0
C      1  0.5200920000000  0.6142090000000  0.5300020000000 1.0
C      1  0.4558200000000  0.4489160000000  0.4530470000000 1.0
C      1  0.5368900000000  0.4783110000000  0.4092890000000 1.0
C      1  0.4757490000000  0.5178290000000  0.5888720000000 1.0
C      1  0.5038910000000  0.5122770000000  0.5043670000000 1.0
C      1  0.4969220000000  0.4854460000000  0.4959220000000 1.0
C      1  0.6116030000000  0.4928370000000  0.4846450000000 1.0
C      1  0.3952380000000  0.4873840000000  0.5237840000000 1.0
C      1  0.5331340000000  0.5492930000000  0.4916520000000 1.0
C      1  0.4787790000000  0.4501980000000  0.5219560000000 1.0
C      1  0.5020190000000  0.5482640000000  0.4159720000000 1.0
C      1  0.5260130000000  0.4540470000000  0.5782880000000 1.0
C      1  0.5028230000000  0.5318440000000  0.4391970000000 1.0
C      1  0.5120540000000  0.4659530000000  0.5568790000000 1.0
C      1  0.4275290000000  0.5254240000000  0.5395680000000 1.0
C      1  0.5683500000000  0.4669070000000  0.4627820000000 1.0
C      1  0.5596700000000  0.4162470000000  0.5818720000000 1.0
C      1  0.4550730000000  0.5640710000000  0.4096530000000 1.0
C      1  0.4422310000000  0.4698810000000  0.4419020000000 1.0
C      1  0.5286910000000  0.6259660000000  0.5531240000000 1.0
C      1  0.5537130000000  0.5874210000000  0.5639420000000 1.0
C      1  0.4215070000000  0.4840610000000  0.4837140000000 1.0
C      1  0.5201140000000  0.4317170000000  0.5158440000000 1.0
C      1  0.4740110000000  0.5544990000000  0.4783190000000 1.0
C      1  0.5604760000000  0.4098480000000  0.5347660000000 1.0
C      1  0.4324110000000  0.5663820000000  0.4547490000000 1.0
C      1  0.4558100000000  0.3806690000000  0.5175560000000 1.0
C      1  0.5190480000000  0.6082390000000  0.4530910000000 1.0
C      1  0.4370210000000  0.4847100000000  0.5871870000000 1.0
C      1  0.5778280000000  0.5072590000000  0.4198970000000 1.0
C      1  0.4744610000000  0.4295830000000  0.4990130000000 1.0
C      1  0.5177490000000  0.5745050000000  0.4973800000000 1.0
C      1  0.5330700000000  0.5029430000000  0.4678270000000 1.0
C      1  0.4645020000000  0.4974960000000  0.5274900000000 1.0
C      1  0.5454640000000  0.6127280000000  0.5701750000000 1.0
C      1  0.4259760000000  0.4869580000000  0.4557960000000 1.0
C      1  0.4482370000000  0.5642150000000  0.5284150000000 1.0
C      1  0.5459540000000  0.4276590000000  0.4654740000000 1.0
C      1  0.6053070000000  0.5091300000000  0.4636280000000 1.0
C      1  0.4032850000000  0.4767480000000  0.5477810000000 1.0
C      1  0.4872520000000  0.5379720000000  0.5434140000000 1.0
C      1  0.5127050000000  0.4604920000000  0.4532840000000 1.0
C      1  0.4452750000000  0.5607860000000  0.4795310000000 1.0
C      1  0.5476660000000  0.4248340000000  0.5151500000000 1.0
C      1  0.4644080000000  0.4035190000000  0.5084840000000 1.0
C      1  0.5193310000000  0.5930580000000  0.4742530000000 1.0
C      1  0.5783190000000  0.4561140000000  0.4881220000000 1.0
C      1  0.4197350000000  0.5278570000000  0.5110700000000 1.0
C      1  0.4559890000000  0.5013520000000  0.5971480000000 1.0
C      1  0.5600310000000  0.4922640000000  0.4057230000000 1.0
C      1  0.4335720000000  0.5534660000000  0.5041070000000 1.0
C      1  0.5609100000000  0.4325820000000  0.4913430000000 1.0
C      1  0.4771620000000  0.5616540000000  0.5282620000000 1.0
C      1  0.5177200000000  0.4338850000000  0.4655480000000 1.0
C      1  0.5609710000000  0.4941900000000  0.4616060000000 1.0
C      1  0.4421540000000  0.5015430000000  0.5438800000000 1.0
C      1  0.5454000000000  0.5752570000000  0.5409290000000 1.0
C      1  0.4330100000000  0.4591310000000  0.4931940000000 1.0
END
