TITL C-3201374-830-439 -0.23777117430244 125000 -579.364465014242 0 0 96 (C1) n - 1
REM
REM in /home/nfs/bkarasulu/CARBON/AIRSS/Generating-Clusters/LCBOP/Higher-Symm/SD-CG/FIRE-CG
REM
REM
REM
REM
REM
REM ./C.cell (b20cbc046b6831c77cfcea5457e17084)
REM AIRSS Version 0.9.1 bugfix July 2018 build 013d7b7c2542+ Fri, 06 Jul 2018 19:26:36 +0100
REM compiler GCC version 9.2.1 20190827 (Red Hat 9.2.1-1)
REM options -cpp -mtune=generic -march=x86-64 -g -O0 -fpre-include=/usr/include/finclude/math-vector-fortran.h
REM seed 1065286353 -1626871748 414980555 -265231987 -2079492655 -2016726757 -973360134 1947401365 1223951735 531795183 -52030797 591844178 2018789266 2053310744 -653689136 889756981 -1332546604 500515661 -439157576 -1754942450 -1238321526 396886467 1959761589 16811390 1741360055 -690039710 -1183952475 -1899594827 -1695888553 578671318 -1046870195 1637589805 -76923622
REM
CELL 1.54180   50.00000   50.00000   50.00000   90.00000   90.00000   90.00000
LATT -1
SFAC C  
C      1  0.4978540000000  0.5091360000000  0.5844970000000 1.0
C      1  0.5069030000000  0.4821460000000  0.5854080000000 1.0
C      1  0.5794910000000  0.3997500000000  0.5228980000000 1.0
C      1  0.4283870000000  0.6210030000000  0.5050930000000 1.0
C      1  0.4804890000000  0.4094060000000  0.5155220000000 1.0
C      1  0.5279760000000  0.5979450000000  0.5168430000000 1.0
C      1  0.4910410000000  0.4916130000000  0.4294580000000 1.0
C      1  0.5159490000000  0.5058600000000  0.4335080000000 1.0
C      1  0.4703310000000  0.5142520000000  0.5839630000000 1.0
C      1  0.5342250000000  0.4760280000000  0.5874180000000 1.0
C      1  0.4391770000000  0.4982420000000  0.4361220000000 1.0
C      1  0.5663640000000  0.4979270000000  0.4380840000000 1.0
C      1  0.5337700000000  0.5750950000000  0.5579370000000 1.0
C      1  0.4728190000000  0.4109780000000  0.5643240000000 1.0
C      1  0.4929550000000  0.5185230000000  0.5155040000000 1.0
C      1  0.4832720000000  0.4535600000000  0.4985380000000 1.0
C      1  0.4920770000000  0.4024780000000  0.4893420000000 1.0
C      1  0.5123520000000  0.6002980000000  0.4938770000000 1.0
C      1  0.4895980000000  0.6002570000000  0.5474020000000 1.0
C      1  0.5083820000000  0.3836230000000  0.5452740000000 1.0
C      1  0.4223480000000  0.5200910000000  0.5630180000000 1.0
C      1  0.5568880000000  0.4436590000000  0.5562490000000 1.0
C      1  0.5806700000000  0.4736220000000  0.4439030000000 1.0
C      1  0.4250940000000  0.5195980000000  0.4497360000000 1.0
C      1  0.4979150000000  0.4919980000000  0.5224400000000 1.0
C      1  0.4673750000000  0.5274090000000  0.5087130000000 1.0
C      1  0.4494600000000  0.5344000000000  0.4903300000000 1.0
C      1  0.5034630000000  0.4663160000000  0.5134660000000 1.0
C      1  0.5593370000000  0.5796350000000  0.5449180000000 1.0
C      1  0.4531160000000  0.3969740000000  0.5771690000000 1.0
C      1  0.5495680000000  0.4061870000000  0.5231980000000 1.0
C      1  0.4553720000000  0.6125580000000  0.5103190000000 1.0
C      1  0.4684060000000  0.6101960000000  0.5346560000000 1.0
C      1  0.5340740000000  0.3864970000000  0.5385940000000 1.0
C      1  0.4452610000000  0.5177680000000  0.5761350000000 1.0
C      1  0.5529850000000  0.4604360000000  0.5766180000000 1.0
C      1  0.5631520000000  0.4522930000000  0.4519650000000 1.0
C      1  0.4437560000000  0.5403400000000  0.4616750000000 1.0
C      1  0.5565180000000  0.5926640000000  0.5190940000000 1.0
C      1  0.4663150000000  0.4349280000000  0.5132410000000 1.0
C      1  0.5152940000000  0.5910800000000  0.5422530000000 1.0
C      1  0.4857480000000  0.3996440000000  0.5415370000000 1.0
C      1  0.4395640000000  0.5930060000000  0.4706600000000 1.0
C      1  0.5693340000000  0.4072390000000  0.4790370000000 1.0
C      1  0.4180720000000  0.6099100000000  0.4805380000000 1.0
C      1  0.5908940000000  0.3996550000000  0.4964980000000 1.0
C      1  0.4118240000000  0.4554850000000  0.4462730000000 1.0
C      1  0.5871700000000  0.5469440000000  0.4395360000000 1.0
C      1  0.4074940000000  0.4434100000000  0.4710910000000 1.0
C      1  0.5901790000000  0.5689450000000  0.4564030000000 1.0
C      1  0.5399390000000  0.5364180000000  0.5000970000000 1.0
C      1  0.4751550000000  0.4174270000000  0.4696500000000 1.0
C      1  0.5198560000000  0.4185550000000  0.4529700000000 1.0
C      1  0.4946560000000  0.5732810000000  0.4578930000000 1.0
C      1  0.4358530000000  0.5684300000000  0.4580030000000 1.0
C      1  0.5712700000000  0.4269490000000  0.4595100000000 1.0
C      1  0.4903370000000  0.5917020000000  0.4786300000000 1.0
C      1  0.5191490000000  0.4043250000000  0.4787170000000 1.0
C      1  0.4669520000000  0.5060840000000  0.4341940000000 1.0
C      1  0.5383300000000  0.4909420000000  0.4412950000000 1.0
C      1  0.4894640000000  0.4604190000000  0.5809980000000 1.0
C      1  0.5155860000000  0.5308190000000  0.5820490000000 1.0
C      1  0.4380360000000  0.4359170000000  0.5096010000000 1.0
C      1  0.5751620000000  0.5928940000000  0.4980720000000 1.0
C      1  0.5149800000000  0.5338570000000  0.4358810000000 1.0
C      1  0.4941390000000  0.4632250000000  0.4292770000000 1.0
C      1  0.4187640000000  0.4462420000000  0.5280310000000 1.0
C      1  0.5917660000000  0.6154110000000  0.4920220000000 1.0
C      1  0.4265040000000  0.4736840000000  0.4334090000000 1.0
C      1  0.5777630000000  0.5227660000000  0.4336890000000 1.0
C      1  0.5093720000000  0.4477120000000  0.4507440000000 1.0
C      1  0.4929830000000  0.5484010000000  0.4454980000000 1.0
C      1  0.4691370000000  0.5332140000000  0.4456630000000 1.0
C      1  0.5360140000000  0.4632990000000  0.4510830000000 1.0
C      1  0.6060100000000  0.6133920000000  0.4676400000000 1.0
C      1  0.3938790000000  0.4532960000000  0.5163270000000 1.0
C      1  0.4867070000000  0.4448460000000  0.4714280000000 1.0
C      1  0.5154740000000  0.5337800000000  0.5097160000000 1.0
C      1  0.5447270000000  0.4343870000000  0.5326570000000 1.0
C      1  0.4017720000000  0.5215100000000  0.5463660000000 1.0
C      1  0.4290280000000  0.4288160000000  0.4827930000000 1.0
C      1  0.5763340000000  0.5694050000000  0.4814480000000 1.0
C      1  0.5266460000000  0.4518220000000  0.5198380000000 1.0
C      1  0.3829060000000  0.5227210000000  0.5284150000000 1.0
C      1  0.6053700000000  0.5920590000000  0.4510430000000 1.0
C      1  0.3881790000000  0.4519070000000  0.4898750000000 1.0
C      1  0.6163760000000  0.3935130000000  0.4897080000000 1.0
C      1  0.3938940000000  0.6144350000000  0.4692110000000 1.0
C      1  0.5938680000000  0.6371090000000  0.5083950000000 1.0
C      1  0.4235740000000  0.4497620000000  0.5546100000000 1.0
C      1  0.5616040000000  0.5471840000000  0.4895390000000 1.0
C      1  0.4474820000000  0.4143880000000  0.4671740000000 1.0
C      1  0.5436880000000  0.4039340000000  0.4927550000000 1.0
C      1  0.4639180000000  0.5986360000000  0.4859580000000 1.0
C      1  0.5267100000000  0.5537300000000  0.5742280000000 1.0
C      1  0.4806280000000  0.4363890000000  0.5736280000000 1.0
END
