TITL C-3201372-1405-1436 7152.57734456069 125000 -318.312142412024 0 0 53 (C1) n - 1
REM
REM in /home/nfs/bkarasulu/CARBON/AIRSS/Generating-Clusters/LCBOP/Higher-Symm/SD-CG/FIRE-CG
REM
REM
REM
REM
REM
REM ./C.cell (b20cbc046b6831c77cfcea5457e17084)
REM AIRSS Version 0.9.1 bugfix July 2018 build 013d7b7c2542+ Fri, 06 Jul 2018 19:26:36 +0100
REM compiler GCC version 9.2.1 20190827 (Red Hat 9.2.1-1)
REM options -cpp -mtune=generic -march=x86-64 -g -O0 -fpre-include=/usr/include/finclude/math-vector-fortran.h
REM seed 120362986 341409125 699187875 1947565057 459360585 -985733556 1705468823 -412868272 1563724222 1036925882 -1841410906 1946056968 -1043614585 826834160 -967145714 -1334737472 -1675657070 1952150490 598796390 734718468 384650092 -647207793 -925744096 1683510998 -292165029 301067850 -1353429232 968095006 -1201886537 -815422255 2084571891 -1767107120 68852261
REM
CELL 1.54180   50.00000   50.00000   50.00000   90.00000   90.00000   90.00000
LATT -1
SFAC C  
C      1  0.5081780000000  0.4759140000000  0.4864740000000 1.0
C      1  0.5077970000000  0.4960520000000  0.5291940000000 1.0
C      1  0.5040670000000  0.5210240000000  0.4910530000000 1.0
C      1  0.5386820000000  0.4932910000000  0.4371020000000 1.0
C      1  0.5402020000000  0.4471100000000  0.5391580000000 1.0
C      1  0.5379380000000  0.5581350000000  0.5263860000000 1.0
C      1  0.4566490000000  0.4556980000000  0.5184980000000 1.0
C      1  0.4552930000000  0.5407860000000  0.5321550000000 1.0
C      1  0.4536160000000  0.5074670000000  0.4495580000000 1.0
C      1  0.4340860000000  0.4889780000000  0.4614340000000 1.0
C      1  0.4358130000000  0.4732240000000  0.5298570000000 1.0
C      1  0.4376940000000  0.5402240000000  0.5087600000000 1.0
C      1  0.5247380000000  0.4915180000000  0.5515340000000 1.0
C      1  0.5194200000000  0.5437540000000  0.4840370000000 1.0
C      1  0.5248440000000  0.4601640000000  0.4698830000000 1.0
C      1  0.5003440000000  0.4304330000000  0.5147640000000 1.0
C      1  0.4992740000000  0.5483970000000  0.5551000000000 1.0
C      1  0.4984990000000  0.5221640000000  0.4335460000000 1.0
C      1  0.4174370000000  0.5208700000000  0.5077710000000 1.0
C      1  0.4151600000000  0.4988610000000  0.4795080000000 1.0
C      1  0.4161840000000  0.4836160000000  0.5127580000000 1.0
C      1  0.4805260000000  0.4810270000000  0.4868940000000 1.0
C      1  0.4811060000000  0.5047550000000  0.5265480000000 1.0
C      1  0.4783010000000  0.5084560000000  0.4972330000000 1.0
C      1  0.5587520000000  0.5134770000000  0.4749340000000 1.0
C      1  0.5612520000000  0.4697270000000  0.5031320000000 1.0
C      1  0.5601230000000  0.5164170000000  0.5263150000000 1.0
C      1  0.5426730000000  0.4493480000000  0.4899930000000 1.0
C      1  0.5412060000000  0.5153270000000  0.5502220000000 1.0
C      1  0.5381210000000  0.5333250000000  0.4646680000000 1.0
C      1  0.4943100000000  0.4533870000000  0.5551400000000 1.0
C      1  0.4925890000000  0.5709580000000  0.5141640000000 1.0
C      1  0.4932660000000  0.4755540000000  0.4350880000000 1.0
C      1  0.5189420000000  0.5632950000000  0.5050550000000 1.0
C      1  0.5210920000000  0.4709950000000  0.4430940000000 1.0
C      1  0.5220350000000  0.4627670000000  0.5555550000000 1.0
C      1  0.5631850000000  0.4957960000000  0.4522810000000 1.0
C      1  0.5647740000000  0.4594500000000  0.5301570000000 1.0
C      1  0.5628670000000  0.5448280000000  0.5207450000000 1.0
C      1  0.4806230000000  0.4440930000000  0.5313260000000 1.0
C      1  0.4793600000000  0.5571520000000  0.5356300000000 1.0
C      1  0.4792290000000  0.5008950000000  0.4368940000000 1.0
C      1  0.5260400000000  0.5203390000000  0.4405890000000 1.0
C      1  0.5284770000000  0.4362790000000  0.5136110000000 1.0
C      1  0.5267230000000  0.5421980000000  0.5493550000000 1.0
C      1  0.4606970000000  0.4615580000000  0.4903140000000 1.0
C      1  0.4597060000000  0.5137270000000  0.5424000000000 1.0
C      1  0.4510400000000  0.5343270000000  0.4596100000000 1.0
C      1  0.4467140000000  0.5477830000000  0.4827480000000 1.0
C      1  0.4425390000000  0.4625880000000  0.4687140000000 1.0
C      1  0.4431950000000  0.4922260000000  0.5500640000000 1.0
C      1  0.5216460000000  0.4979870000000  0.5021240000000 1.0
C      1  0.5526090000000  0.4994890000000  0.5016650000000 1.0
END
