TITL C-3201372-1405-378 -2.13088220181628e-08 125000 -444.542122183666 0 0 73 (C1) n - 1
REM
REM in /home/nfs/bkarasulu/CARBON/AIRSS/Generating-Clusters/LCBOP/Higher-Symm/SD-CG/FIRE-CG
REM
REM
REM
REM
REM
REM ./C.cell (b20cbc046b6831c77cfcea5457e17084)
REM AIRSS Version 0.9.1 bugfix July 2018 build 013d7b7c2542+ Fri, 06 Jul 2018 19:26:36 +0100
REM compiler GCC version 9.2.1 20190827 (Red Hat 9.2.1-1)
REM options -cpp -mtune=generic -march=x86-64 -g -O0 -fpre-include=/usr/include/finclude/math-vector-fortran.h
REM seed 425427258 -2026047212 -1196576415 -1979852513 -1501656145 442239479 -1070633875 -531461949 -1648588589 1465130420 -784145750 1831560637 1630393581 1006213326 -419535003 -297753265 150872289 504550802 1619274758 1837944067 -1449138392 1313129283 922771384 230810386 980429436 197312087 -1517107377 -1132960515 -40707379 434185892 439074717 628421510 889317727
REM
CELL 1.54180   50.00000   50.00000   50.00000   90.00000   90.00000   90.00000
LATT -1
SFAC C  
C      1  0.4501180000000  0.4135510000000  0.4351480000000 1.0
C      1  0.6011100000000  0.4996010000000  0.4352840000000 1.0
C      1  0.4504740000000  0.5866920000000  0.4350970000000 1.0
C      1  0.5434850000000  0.5984510000000  0.5147710000000 1.0
C      1  0.3936440000000  0.4880080000000  0.5151940000000 1.0
C      1  0.5642860000000  0.4134830000000  0.5148710000000 1.0
C      1  0.6031410000000  0.5358390000000  0.4993180000000 1.0
C      1  0.4181200000000  0.5707070000000  0.4992480000000 1.0
C      1  0.4802330000000  0.3933000000000  0.4991690000000 1.0
C      1  0.4794590000000  0.4083080000000  0.5230040000000 1.0
C      1  0.5904600000000  0.5276350000000  0.5231060000000 1.0
C      1  0.4315750000000  0.5639850000000  0.5230740000000 1.0
C      1  0.4675710000000  0.5732130000000  0.5524400000000 1.0
C      1  0.4536220000000  0.4348580000000  0.5525140000000 1.0
C      1  0.5803360000000  0.4919420000000  0.5525480000000 1.0
C      1  0.5522680000000  0.4948450000000  0.5487120000000 1.0
C      1  0.4791070000000  0.5474440000000  0.5487020000000 1.0
C      1  0.4701710000000  0.4577250000000  0.5487280000000 1.0
C      1  0.5903090000000  0.4928350000000  0.4795700000000 1.0
C      1  0.4617560000000  0.5810560000000  0.4794270000000 1.0
C      1  0.4494640000000  0.4260120000000  0.4795080000000 1.0
C      1  0.6128550000000  0.5201600000000  0.4496010000000 1.0
C      1  0.4267980000000  0.5865990000000  0.4494150000000 1.0
C      1  0.4619590000000  0.3929980000000  0.4493940000000 1.0
C      1  0.4933540000000  0.5627760000000  0.4450070000000 1.0
C      1  0.4498530000000  0.4626090000000  0.4452130000000 1.0
C      1  0.5586960000000  0.4748320000000  0.4450360000000 1.0
C      1  0.5653240000000  0.4384100000000  0.5054830000000 1.0
C      1  0.5213890000000  0.5868780000000  0.5053700000000 1.0
C      1  0.4146840000000  0.4746890000000  0.5056810000000 1.0
C      1  0.4578090000000  0.4771600000000  0.5311210000000 1.0
C      1  0.5416460000000  0.4744490000000  0.5310560000000 1.0
C      1  0.5020640000000  0.5483910000000  0.5310210000000 1.0
C      1  0.5013300000000  0.4225810000000  0.5353810000000 1.0
C      1  0.5671270000000  0.5394240000000  0.5354310000000 1.0
C      1  0.4330560000000  0.5379560000000  0.5355430000000 1.0
C      1  0.4824740000000  0.4899050000000  0.4676620000000 1.0
C      1  0.5183890000000  0.4887650000000  0.4673480000000 1.0
C      1  0.5027030000000  0.5213180000000  0.4675720000000 1.0
C      1  0.3912300000000  0.5080530000000  0.5327300000000 1.0
C      1  0.5481370000000  0.4013050000000  0.5323650000000 1.0
C      1  0.5620830000000  0.5905880000000  0.5323030000000 1.0
C      1  0.5681700000000  0.5664970000000  0.5420330000000 1.0
C      1  0.4091080000000  0.5253830000000  0.5423310000000 1.0
C      1  0.5242140000000  0.4081010000000  0.5420370000000 1.0
C      1  0.5132380000000  0.4734790000000  0.5319650000000 1.0
C      1  0.5171030000000  0.5242740000000  0.5319640000000 1.0
C      1  0.4711890000000  0.5022340000000  0.5320360000000 1.0
C      1  0.4643400000000  0.4001360000000  0.4771100000000 1.0
C      1  0.6052770000000  0.5186680000000  0.4772620000000 1.0
C      1  0.4319020000000  0.5810050000000  0.4771170000000 1.0
C      1  0.5839220000000  0.4837380000000  0.4524540000000 1.0
C      1  0.4728330000000  0.5799740000000  0.4523190000000 1.0
C      1  0.4449150000000  0.4362640000000  0.4524350000000 1.0
C      1  0.5006800000000  0.5358290000000  0.4441860000000 1.0
C      1  0.4698660000000  0.4820960000000  0.4443680000000 1.0
C      1  0.5318440000000  0.4824930000000  0.4440290000000 1.0
C      1  0.5189380000000  0.4893470000000  0.4206200000000 1.0
C      1  0.5012080000000  0.5210250000000  0.4208610000000 1.0
C      1  0.4815110000000  0.4907770000000  0.4209220000000 1.0
C      1  0.4974710000000  0.4510370000000  0.5406250000000 1.0
C      1  0.5444160000000  0.5218410000000  0.5406390000000 1.0
C      1  0.4596540000000  0.5271090000000  0.5407170000000 1.0
C      1  0.5927680000000  0.4993090000000  0.5280100000000 1.0
C      1  0.4549450000000  0.5801890000000  0.5278830000000 1.0
C      1  0.4537750000000  0.4204640000000  0.5279390000000 1.0
C      1  0.4733650000000  0.5797940000000  0.5052230000000 1.0
C      1  0.4448310000000  0.4366510000000  0.5053360000000 1.0
C      1  0.5832810000000  0.4835000000000  0.5053630000000 1.0
C      1  0.4999300000000  0.5701530000000  0.5116250000000 1.0
C      1  0.4399320000000  0.4644680000000  0.5117940000000 1.0
C      1  0.5615980000000  0.4653620000000  0.5117260000000 1.0
C      1  0.5005080000000  0.4999940000000  0.5303870000000 1.0
END
