TITL C-3201373-1215-1055 7.74094058705236e-08 125000 -114.428711887168 0 0 20 (C5v) n - 1
REM
REM in /home/nfs/bkarasulu/CARBON/AIRSS/Generating-Clusters/LCBOP/Higher-Symm/SD-CG/FIRE-CG
REM
REM
REM
REM
REM
REM ./C.cell (b20cbc046b6831c77cfcea5457e17084)
REM AIRSS Version 0.9.1 bugfix July 2018 build 013d7b7c2542+ Fri, 06 Jul 2018 19:26:36 +0100
REM compiler GCC version 9.2.1 20190827 (Red Hat 9.2.1-1)
REM options -cpp -mtune=generic -march=x86-64 -g -O0 -fpre-include=/usr/include/finclude/math-vector-fortran.h
REM seed 1623305034 1814127912 418495609 2131305355 -701180874 2124901611 -1033290947 1599830563 2145415155 -1424990377 -820407140 1828152484 722815236 568743752 -949255936 62382740 1032876335 964965634 995270750 -2000460866 -540770531 -347958410 580451586 -1820598712 24359519 848255554 48031985 -1519779667 -2011911226 1481065587 -1209178195 -534233179 1409487351
REM
CELL 1.54180   50.00000   50.00000   50.00000   90.00000   90.00000   90.00000
LATT -1
SFAC C  
C      1  0.4814330000000  0.4645930000000  0.4953720000000 1.0
C      1  0.4605890000000  0.5067170000000  0.4953720000000 1.0
C      1  0.4942090000000  0.5395580000000  0.4953720000000 1.0
C      1  0.5358330000000  0.5177310000000  0.4953720000000 1.0
C      1  0.5279360000000  0.4714000000000  0.4953730000000 1.0
C      1  0.4606330000000  0.4805200000000  0.5077630000000 1.0
C      1  0.4693080000000  0.5314210000000  0.5077620000000 1.0
C      1  0.5203980000000  0.5388990000000  0.5077620000000 1.0
C      1  0.5432990000000  0.4926210000000  0.5077630000000 1.0
C      1  0.5063620000000  0.4565400000000  0.5077630000000 1.0
C      1  0.5175060000000  0.4820780000000  0.4694000000000 1.0
C      1  0.4883650000000  0.4778120000000  0.4694000000000 1.0
C      1  0.4753030000000  0.5042090000000  0.4694000000000 1.0
C      1  0.4963720000000  0.5247880000000  0.4694000000000 1.0
C      1  0.5224540000000  0.5111110000000  0.4694000000000 1.0
C      1  0.4438810000000  0.4722310000000  0.5274650000000 1.0
C      1  0.4562480000000  0.5447910000000  0.5274650000000 1.0
C      1  0.5290780000000  0.5554520000000  0.5274650000000 1.0
C      1  0.5617230000000  0.4894810000000  0.5274660000000 1.0
C      1  0.5090690000000  0.4380470000000  0.5274660000000 1.0
END
