TITL C-3201378-2706-335 1.67878484770073e-07 125000 -299.263688567539 0 0 51 (C1) n - 1
REM
REM in /home/nfs/bkarasulu/CARBON/AIRSS/Generating-Clusters/LCBOP/Higher-Symm/SD-CG/FIRE-CG
REM
REM
REM
REM
REM
REM ./C.cell (b20cbc046b6831c77cfcea5457e17084)
REM AIRSS Version 0.9.1 bugfix July 2018 build 013d7b7c2542+ Fri, 06 Jul 2018 19:26:36 +0100
REM compiler GCC version 9.2.1 20190827 (Red Hat 9.2.1-1)
REM options -cpp -mtune=generic -march=x86-64 -g -O0 -fpre-include=/usr/include/finclude/math-vector-fortran.h
REM seed 1344108161 -1719795734 1892627164 2085251845 1578358080 752951415 1220203785 1237516649 -715823626 1085384376 -1663276638 -33508832 101074766 188612196 -1834919456 -702639990 -1613934149 -340404074 2082332278 1814327386 -1926185574 -2030540970 1603342606 660441287 -1867135364 -2097355550 -1964458884 -1795224334 -1638242443 1707395502 -43374963 309599708 -1764308633
REM
CELL 1.54180   50.00000   50.00000   50.00000   90.00000   90.00000   90.00000
LATT -1
SFAC C  
C      1  0.5198550000000  0.5071890000000  0.4961950000000 1.0
C      1  0.5090750000000  0.5332840000000  0.5005630000000 1.0
C      1  0.5145260000000  0.4904630000000  0.5194160000000 1.0
C      1  0.4744750000000  0.5311200000000  0.4544230000000 1.0
C      1  0.4604900000000  0.5239000000000  0.5596530000000 1.0
C      1  0.4592820000000  0.4395890000000  0.4986110000000 1.0
C      1  0.5276580000000  0.5366730000000  0.4473600000000 1.0
C      1  0.5180740000000  0.5234410000000  0.5568720000000 1.0
C      1  0.5099540000000  0.4263970000000  0.4921250000000 1.0
C      1  0.5542480000000  0.5474970000000  0.5305860000000 1.0
C      1  0.5436420000000  0.4548400000000  0.5151350000000 1.0
C      1  0.5612340000000  0.5030180000000  0.4625880000000 1.0
C      1  0.4326490000000  0.4764820000000  0.4851300000000 1.0
C      1  0.4396270000000  0.5254810000000  0.4888340000000 1.0
C      1  0.4294660000000  0.4993280000000  0.5310500000000 1.0
C      1  0.4914230000000  0.4853850000000  0.4559370000000 1.0
C      1  0.4727100000000  0.5508050000000  0.5241990000000 1.0
C      1  0.4760280000000  0.4705060000000  0.5334150000000 1.0
C      1  0.4906370000000  0.5240530000000  0.5642210000000 1.0
C      1  0.4833050000000  0.4259290000000  0.4946940000000 1.0
C      1  0.5005700000000  0.5386120000000  0.4458660000000 1.0
C      1  0.5632830000000  0.5476030000000  0.4800830000000 1.0
C      1  0.5582940000000  0.5004140000000  0.5274640000000 1.0
C      1  0.5425360000000  0.4561630000000  0.4682420000000 1.0
C      1  0.4497450000000  0.5412710000000  0.5370610000000 1.0
C      1  0.4541460000000  0.4580960000000  0.5209970000000 1.0
C      1  0.4679940000000  0.5019450000000  0.4568350000000 1.0
C      1  0.5117630000000  0.4955350000000  0.4724560000000 1.0
C      1  0.4855170000000  0.5255840000000  0.5168670000000 1.0
C      1  0.4860000000000  0.4968830000000  0.5249970000000 1.0
C      1  0.4335450000000  0.5252940000000  0.5175840000000 1.0
C      1  0.4322750000000  0.4763810000000  0.5147800000000 1.0
C      1  0.4442270000000  0.4997400000000  0.4742040000000 1.0
C      1  0.5600910000000  0.4789920000000  0.5076030000000 1.0
C      1  0.5588340000000  0.4791710000000  0.4776450000000 1.0
C      1  0.5638520000000  0.5540850000000  0.5061960000000 1.0
C      1  0.5384290000000  0.4697230000000  0.5620230000000 1.0
C      1  0.5398660000000  0.4400300000000  0.4222860000000 1.0
C      1  0.5227740000000  0.5795470000000  0.4812900000000 1.0
C      1  0.5015980000000  0.4633420000000  0.4415420000000 1.0
C      1  0.4874670000000  0.5719650000000  0.5134300000000 1.0
C      1  0.4975680000000  0.4538350000000  0.5420970000000 1.0
C      1  0.4419150000000  0.5013430000000  0.5576080000000 1.0
C      1  0.4424260000000  0.4503430000000  0.4777390000000 1.0
C      1  0.4551580000000  0.5440340000000  0.4722040000000 1.0
C      1  0.5244420000000  0.4654240000000  0.5356060000000 1.0
C      1  0.5283040000000  0.4528380000000  0.4435030000000 1.0
C      1  0.5092570000000  0.5622390000000  0.4972750000000 1.0
C      1  0.5521520000000  0.5299770000000  0.4607900000000 1.0
C      1  0.5439710000000  0.5228260000000  0.5409860000000 1.0
C      1  0.5336390000000  0.4413880000000  0.4917350000000 1.0
END
