TITL C-3201372-1405-265 3616.67138351645 125000 -1011.66498039217 0 0 167 (C1) n - 1
REM
REM in /home/nfs/bkarasulu/CARBON/AIRSS/Generating-Clusters/LCBOP/Higher-Symm/SD-CG/FIRE-CG
REM
REM
REM
REM
REM
REM ./C.cell (b20cbc046b6831c77cfcea5457e17084)
REM AIRSS Version 0.9.1 bugfix July 2018 build 013d7b7c2542+ Fri, 06 Jul 2018 19:26:36 +0100
REM compiler GCC version 9.2.1 20190827 (Red Hat 9.2.1-1)
REM options -cpp -mtune=generic -march=x86-64 -g -O0 -fpre-include=/usr/include/finclude/math-vector-fortran.h
REM seed -1814609733 -305330981 -472457652 463365492 772262709 -1350810826 -652034585 1520606843 1176167962 -456299251 -2013614776 436580704 716928640 135812430 -216293838 1807763674 349211558 1725473951 -1546543629 408984115 -769961288 -1321615913 455371621 -457430752 344780841 -1052450528 -1932878878 -745019098 -278639755 1829932732 1715081309 -204760413 -81501534
REM
CELL 1.54180   50.00000   50.00000   50.00000   90.00000   90.00000   90.00000
LATT -1
SFAC C  
C      1  0.4309630000000  0.5639110000000  0.4789560000000 1.0
C      1  0.5686180000000  0.5634000000000  0.5156500000000 1.0
C      1  0.5289240000000  0.4157990000000  0.4928090000000 1.0
C      1  0.4691110000000  0.4152930000000  0.5108350000000 1.0
C      1  0.5829950000000  0.4271400000000  0.4903370000000 1.0
C      1  0.4267450000000  0.4242660000000  0.5312940000000 1.0
C      1  0.5706440000000  0.5550220000000  0.4528890000000 1.0
C      1  0.4240220000000  0.5564030000000  0.5371040000000 1.0
C      1  0.5576630000000  0.5568500000000  0.4070380000000 1.0
C      1  0.4388760000000  0.5577850000000  0.5833440000000 1.0
C      1  0.4184840000000  0.4536890000000  0.4483210000000 1.0
C      1  0.5763490000000  0.4439550000000  0.5390920000000 1.0
C      1  0.4532590000000  0.5329540000000  0.3768650000000 1.0
C      1  0.5448920000000  0.5325940000000  0.6117570000000 1.0
C      1  0.4914800000000  0.6071120000000  0.4835550000000 1.0
C      1  0.5090980000000  0.6071920000000  0.5080280000000 1.0
C      1  0.4417690000000  0.5412130000000  0.5201810000000 1.0
C      1  0.5562680000000  0.5415900000000  0.4742480000000 1.0
C      1  0.4787420000000  0.5604750000000  0.4456140000000 1.0
C      1  0.5228010000000  0.5609470000000  0.5478980000000 1.0
C      1  0.4776320000000  0.5875330000000  0.4362530000000 1.0
C      1  0.5213680000000  0.5880890000000  0.5560120000000 1.0
C      1  0.6330480000000  0.5067290000000  0.4977270000000 1.0
C      1  0.3626120000000  0.5014820000000  0.5181080000000 1.0
C      1  0.4686280000000  0.5928930000000  0.4936460000000 1.0
C      1  0.5318110000000  0.5926060000000  0.4979970000000 1.0
C      1  0.4245100000000  0.4003310000000  0.4640360000000 1.0
C      1  0.5737160000000  0.3812740000000  0.5518920000000 1.0
C      1  0.5626850000000  0.4441180000000  0.3673750000000 1.0
C      1  0.4679850000000  0.4006620000000  0.6485080000000 1.0
C      1  0.4581200000000  0.5244750000000  0.5358690000000 1.0
C      1  0.5396740000000  0.5220670000000  0.4620880000000 1.0
C      1  0.5668150000000  0.4306890000000  0.4659860000000 1.0
C      1  0.4345360000000  0.4224090000000  0.5591400000000 1.0
C      1  0.4996640000000  0.6010510000000  0.5419730000000 1.0
C      1  0.5001610000000  0.6002100000000  0.4495180000000 1.0
C      1  0.3938760000000  0.5165820000000  0.5502340000000 1.0
C      1  0.6074900000000  0.5241330000000  0.4612680000000 1.0
C      1  0.4646410000000  0.4079940000000  0.4303160000000 1.0
C      1  0.5349880000000  0.3978220000000  0.5769120000000 1.0
C      1  0.4748430000000  0.4187600000000  0.4842500000000 1.0
C      1  0.4671010000000  0.4395770000000  0.4700000000000 1.0
C      1  0.5088280000000  0.4860670000000  0.5946770000000 1.0
C      1  0.4953720000000  0.4727230000000  0.4116070000000 1.0
C      1  0.5855790000000  0.4888640000000  0.5227140000000 1.0
C      1  0.4183900000000  0.4925880000000  0.4754100000000 1.0
C      1  0.4095260000000  0.4650250000000  0.4738260000000 1.0
C      1  0.5959090000000  0.4633360000000  0.5299370000000 1.0
C      1  0.5593140000000  0.4402950000000  0.3929400000000 1.0
C      1  0.4646770000000  0.4099100000000  0.6243590000000 1.0
C      1  0.5580810000000  0.5038470000000  0.4250850000000 1.0
C      1  0.4456450000000  0.5028540000000  0.5766990000000 1.0
C      1  0.4084620000000  0.4265570000000  0.5083400000000 1.0
C      1  0.5757050000000  0.4214310000000  0.5191870000000 1.0
C      1  0.5934520000000  0.5630660000000  0.5281260000000 1.0
C      1  0.4031450000000  0.5654330000000  0.4778920000000 1.0
C      1  0.4677580000000  0.5172540000000  0.5893780000000 1.0
C      1  0.5338550000000  0.5123120000000  0.4089950000000 1.0
C      1  0.4394700000000  0.5713040000000  0.5578030000000 1.0
C      1  0.5556280000000  0.5710280000000  0.4332430000000 1.0
C      1  0.5558560000000  0.5881690000000  0.5112600000000 1.0
C      1  0.4452780000000  0.5880800000000  0.4793870000000 1.0
C      1  0.5252460000000  0.5508470000000  0.6100630000000 1.0
C      1  0.4733130000000  0.5502500000000  0.3801350000000 1.0
C      1  0.5775440000000  0.3952960000000  0.5294760000000 1.0
C      1  0.4118770000000  0.4082900000000  0.4865680000000 1.0
C      1  0.3972570000000  0.5433190000000  0.5380570000000 1.0
C      1  0.5904740000000  0.5358330000000  0.4421590000000 1.0
C      1  0.4204750000000  0.5016670000000  0.5891800000000 1.0
C      1  0.5829070000000  0.5179960000000  0.4204640000000 1.0
C      1  0.3576560000000  0.5279130000000  0.5139040000000 1.0
C      1  0.6463780000000  0.5218940000000  0.5152650000000 1.0
C      1  0.4819110000000  0.4442850000000  0.5620870000000 1.0
C      1  0.5205160000000  0.4542770000000  0.4509040000000 1.0
C      1  0.4787040000000  0.4986880000000  0.4808780000000 1.0
C      1  0.5196290000000  0.4982110000000  0.5129650000000 1.0
C      1  0.5164140000000  0.5317360000000  0.4502420000000 1.0
C      1  0.4828500000000  0.5337190000000  0.5444280000000 1.0
C      1  0.4547940000000  0.4620070000000  0.5259350000000 1.0
C      1  0.5443750000000  0.4650560000000  0.4880470000000 1.0
C      1  0.4882320000000  0.5686510000000  0.3951270000000 1.0
C      1  0.5097070000000  0.5708690000000  0.5974530000000 1.0
C      1  0.5218000000000  0.4450560000000  0.6173550000000 1.0
C      1  0.4781930000000  0.4605430000000  0.3673490000000 1.0
C      1  0.5242450000000  0.5916390000000  0.5839420000000 1.0
C      1  0.4739760000000  0.5897720000000  0.4083680000000 1.0
C      1  0.4743730000000  0.4656810000000  0.5456250000000 1.0
C      1  0.5187620000000  0.4704390000000  0.4747000000000 1.0
C      1  0.6193930000000  0.5596540000000  0.5328670000000 1.0
C      1  0.3831310000000  0.5643910000000  0.4955040000000 1.0
C      1  0.3980730000000  0.5108230000000  0.5774090000000 1.0
C      1  0.5985190000000  0.5138660000000  0.3984560000000 1.0
C      1  0.4467660000000  0.4684140000000  0.4046080000000 1.0
C      1  0.5539960000000  0.4657270000000  0.5865650000000 1.0
C      1  0.5389830000000  0.4397790000000  0.5004680000000 1.0
C      1  0.4510950000000  0.4347800000000  0.5199840000000 1.0
C      1  0.4498160000000  0.5071650000000  0.4431000000000 1.0
C      1  0.5475270000000  0.5041960000000  0.5501990000000 1.0
C      1  0.4446720000000  0.5419970000000  0.4917480000000 1.0
C      1  0.5551240000000  0.5414350000000  0.5028180000000 1.0
C      1  0.5135070000000  0.5631850000000  0.4067770000000 1.0
C      1  0.4834420000000  0.5673650000000  0.5869810000000 1.0
C      1  0.5248240000000  0.5758400000000  0.4756370000000 1.0
C      1  0.4748210000000  0.5763640000000  0.5164420000000 1.0
C      1  0.5565530000000  0.4521530000000  0.5597270000000 1.0
C      1  0.4421020000000  0.4571550000000  0.4310930000000 1.0
C      1  0.5295140000000  0.4832420000000  0.5366770000000 1.0
C      1  0.4658950000000  0.4867350000000  0.4576590000000 1.0
C      1  0.4691010000000  0.5283850000000  0.4793830000000 1.0
C      1  0.5302710000000  0.5277330000000  0.5148220000000 1.0
C      1  0.5294270000000  0.4565680000000  0.5484710000000 1.0
C      1  0.4677350000000  0.4588860000000  0.4481720000000 1.0
C      1  0.4336530000000  0.4976750000000  0.4987040000000 1.0
C      1  0.5854960000000  0.4939640000000  0.4941490000000 1.0
C      1  0.6097310000000  0.4379020000000  0.4911860000000 1.0
C      1  0.4046290000000  0.4739270000000  0.5241980000000 1.0
C      1  0.4951020000000  0.4515250000000  0.4339380000000 1.0
C      1  0.5095020000000  0.4371800000000  0.5581630000000 1.0
C      1  0.4806970000000  0.3954260000000  0.5263710000000 1.0
C      1  0.5207860000000  0.4017620000000  0.4712910000000 1.0
C      1  0.5035820000000  0.5198560000000  0.5592370000000 1.0
C      1  0.4961500000000  0.5174350000000  0.4354160000000 1.0
C      1  0.4423520000000  0.4003820000000  0.4437270000000 1.0
C      1  0.5574610000000  0.3838290000000  0.5730200000000 1.0
C      1  0.6165050000000  0.4529100000000  0.5130340000000 1.0
C      1  0.4023680000000  0.4542920000000  0.5012160000000 1.0
C      1  0.5382940000000  0.6114320000000  0.5960880000000 1.0
C      1  0.4594330000000  0.6089940000000  0.3958640000000 1.0
C      1  0.5685160000000  0.4878970000000  0.5969010000000 1.0
C      1  0.4312480000000  0.4889100000000  0.3929930000000 1.0
C      1  0.4364410000000  0.5128910000000  0.3821160000000 1.0
C      1  0.5615380000000  0.5120280000000  0.6070170000000 1.0
C      1  0.6088330000000  0.5069760000000  0.4834100000000 1.0
C      1  0.3859050000000  0.4943400000000  0.5326700000000 1.0
C      1  0.5334460000000  0.5417430000000  0.4014820000000 1.0
C      1  0.4639150000000  0.5463210000000  0.5924210000000 1.0
C      1  0.4025440000000  0.5200080000000  0.4377800000000 1.0
C      1  0.5929670000000  0.5186070000000  0.5599970000000 1.0
C      1  0.5150290000000  0.4092720000000  0.5611180000000 1.0
C      1  0.4909460000000  0.4193740000000  0.4319820000000 1.0
C      1  0.4736600000000  0.4672550000000  0.3934650000000 1.0
C      1  0.5274760000000  0.4648280000000  0.5992120000000 1.0
C      1  0.5074750000000  0.4992930000000  0.4157440000000 1.0
C      1  0.4944230000000  0.5074030000000  0.5830350000000 1.0
C      1  0.4990260000000  0.3923090000000  0.5454210000000 1.0
C      1  0.5097180000000  0.4037890000000  0.4467960000000 1.0
C      1  0.5540680000000  0.4987090000000  0.4539980000000 1.0
C      1  0.4448830000000  0.5022370000000  0.5475260000000 1.0
C      1  0.5262380000000  0.5835030000000  0.4313110000000 1.0
C      1  0.4719460000000  0.5861000000000  0.5599300000000 1.0
C      1  0.5067760000000  0.5436380000000  0.5080700000000 1.0
C      1  0.4924970000000  0.5439850000000  0.4856850000000 1.0
C      1  0.4339860000000  0.4836220000000  0.5253590000000 1.0
C      1  0.5640160000000  0.4837120000000  0.4775750000000 1.0
C      1  0.4595240000000  0.4287320000000  0.5734480000000 1.0
C      1  0.5470630000000  0.4407780000000  0.4460320000000 1.0
C      1  0.4685910000000  0.5309890000000  0.4465050000000 1.0
C      1  0.5307850000000  0.5299030000000  0.5472110000000 1.0
C      1  0.3770120000000  0.5485620000000  0.5176950000000 1.0
C      1  0.6407700000000  0.5441110000000  0.5290940000000 1.0
C      1  0.5755100000000  0.5047140000000  0.5441630000000 1.0
C      1  0.4225500000000  0.5074630000000  0.4513040000000 1.0
C      1  0.5050770000000  0.5565220000000  0.4627010000000 1.0
C      1  0.4943250000000  0.5573270000000  0.5301600000000 1.0
C      1  0.4619490000000  0.4195800000000  0.5998490000000 1.0
C      1  0.5547520000000  0.4384310000000  0.4189680000000 1.0
C      1  0.5038060000000  0.4889100000000  0.4903840000000 1.0
END
