TITL C-3201379-3821-536 33223.3642247714 125000 -1144.5719881951 0 0 188 (C1) n - 1
REM
REM in /home/nfs/bkarasulu/CARBON/AIRSS/Generating-Clusters/LCBOP/Higher-Symm/SD-CG/FIRE-CG
REM
REM
REM
REM
REM
REM ./C.cell (b20cbc046b6831c77cfcea5457e17084)
REM AIRSS Version 0.9.1 bugfix July 2018 build 013d7b7c2542+ Fri, 06 Jul 2018 19:26:36 +0100
REM compiler GCC version 9.2.1 20190827 (Red Hat 9.2.1-1)
REM options -cpp -mtune=generic -march=x86-64 -g -O0 -fpre-include=/usr/include/finclude/math-vector-fortran.h
REM seed 1658356058 -1892166665 -67878217 -1040570197 626922165 -605852333 1969444400 735652130 1906897955 -145157835 -113875047 1070848174 888441032 -85284402 -2037180954 -1955096271 80906187 714592585 851668559 -1299439796 450421234 -1575613334 231782204 1892198692 1125821875 140778360 -1612279791 1584385881 1666992452 -731927459 -1285188299 -1127560332 1776122709
REM
CELL 1.54180   50.00000   50.00000   50.00000   90.00000   90.00000   90.00000
LATT -1
SFAC C  
C      1  0.4280370000000  0.5077590000000  0.4731010000000 1.0
C      1  0.4493620000000  0.5077240000000  0.5596330000000 1.0
C      1  0.5428220000000  0.5074950000000  0.5643830000000 1.0
C      1  0.5862830000000  0.5095050000000  0.4792690000000 1.0
C      1  0.4982190000000  0.5085380000000  0.4240000000000 1.0
C      1  0.4367680000000  0.5887800000000  0.4867570000000 1.0
C      1  0.4640180000000  0.5917210000000  0.5570590000000 1.0
C      1  0.5466890000000  0.5958980000000  0.5450200000000 1.0
C      1  0.5611970000000  0.5877520000000  0.4714870000000 1.0
C      1  0.4942530000000  0.5894870000000  0.4352990000000 1.0
C      1  0.4286420000000  0.4657090000000  0.5419820000000 1.0
C      1  0.5219760000000  0.4650700000000  0.5834550000000 1.0
C      1  0.5900350000000  0.4679910000000  0.5055240000000 1.0
C      1  0.5196480000000  0.4642310000000  0.4255490000000 1.0
C      1  0.4381890000000  0.4698600000000  0.4448880000000 1.0
C      1  0.5674900000000  0.4863280000000  0.4041060000000 1.0
C      1  0.4263870000000  0.4943420000000  0.3999100000000 1.0
C      1  0.3815640000000  0.4899530000000  0.5334960000000 1.0
C      1  0.4959760000000  0.4875480000000  0.6230740000000 1.0
C      1  0.6193060000000  0.4941500000000  0.5437190000000 1.0
C      1  0.5301520000000  0.5092190000000  0.5138560000000 1.0
C      1  0.5434960000000  0.5050010000000  0.4885520000000 1.0
C      1  0.4957600000000  0.5128640000000  0.4719830000000 1.0
C      1  0.4616140000000  0.4986290000000  0.5070060000000 1.0
C      1  0.4828730000000  0.5082670000000  0.5252060000000 1.0
C      1  0.4709850000000  0.4778680000000  0.6204960000000 1.0
C      1  0.6087360000000  0.4804890000000  0.5644270000000 1.0
C      1  0.5889360000000  0.4758510000000  0.4164740000000 1.0
C      1  0.4450860000000  0.4802320000000  0.3864050000000 1.0
C      1  0.3761380000000  0.4777270000000  0.5100740000000 1.0
C      1  0.3906620000000  0.4787240000000  0.4857790000000 1.0
C      1  0.4522740000000  0.4788540000000  0.5992140000000 1.0
C      1  0.5823810000000  0.4799650000000  0.5750540000000 1.0
C      1  0.5972740000000  0.4766870000000  0.4436000000000 1.0
C      1  0.4732310000000  0.4792660000000  0.3910580000000 1.0
C      1  0.4236490000000  0.4236530000000  0.5120680000000 1.0
C      1  0.4889910000000  0.4247270000000  0.5769630000000 1.0
C      1  0.5714880000000  0.4280380000000  0.5324440000000 1.0
C      1  0.5504590000000  0.4235330000000  0.4431460000000 1.0
C      1  0.4624710000000  0.4278900000000  0.4331890000000 1.0
C      1  0.4030360000000  0.5079210000000  0.5389400000000 1.0
C      1  0.5098850000000  0.5050140000000  0.6056930000000 1.0
C      1  0.6070320000000  0.5110310000000  0.5242080000000 1.0
C      1  0.5484930000000  0.5054850000000  0.4130890000000 1.0
C      1  0.4305720000000  0.5118160000000  0.4221210000000 1.0
C      1  0.5947300000000  0.5544780000000  0.4598950000000 1.0
C      1  0.4940270000000  0.5549540000000  0.4012750000000 1.0
C      1  0.4044900000000  0.5552100000000  0.4744360000000 1.0
C      1  0.4408050000000  0.5562240000000  0.5834110000000 1.0
C      1  0.5618340000000  0.5572190000000  0.5735320000000 1.0
C      1  0.5669900000000  0.5875500000000  0.5000620000000 1.0
C      1  0.5229480000000  0.5858200000000  0.4398200000000 1.0
C      1  0.4500910000000  0.5895420000000  0.4604820000000 1.0
C      1  0.4446930000000  0.5876070000000  0.5351510000000 1.0
C      1  0.5196660000000  0.6009260000000  0.5559380000000 1.0
C      1  0.5019240000000  0.4000390000000  0.4448880000000 1.0
C      1  0.4472060000000  0.3981460000000  0.4747170000000 1.0
C      1  0.4614370000000  0.3988080000000  0.5421140000000 1.0
C      1  0.5292570000000  0.3996150000000  0.5482440000000 1.0
C      1  0.5518980000000  0.4003420000000  0.4887060000000 1.0
C      1  0.4280120000000  0.4947890000000  0.5450700000000 1.0
C      1  0.5238820000000  0.4937330000000  0.5830380000000 1.0
C      1  0.5944860000000  0.4965720000000  0.5030860000000 1.0
C      1  0.5234000000000  0.4945900000000  0.4224600000000 1.0
C      1  0.4349890000000  0.4982120000000  0.4471160000000 1.0
C      1  0.4353480000000  0.4490230000000  0.5194900000000 1.0
C      1  0.5001170000000  0.4508370000000  0.5722720000000 1.0
C      1  0.5706310000000  0.4561460000000  0.5227460000000 1.0
C      1  0.5411720000000  0.4504880000000  0.4406740000000 1.0
C      1  0.4627750000000  0.4569430000000  0.4399080000000 1.0
C      1  0.4869010000000  0.5221070000000  0.4476840000000 1.0
C      1  0.4436660000000  0.5165500000000  0.4958230000000 1.0
C      1  0.4733420000000  0.5212870000000  0.5498510000000 1.0
C      1  0.5430350000000  0.5220730000000  0.5373640000000 1.0
C      1  0.5606920000000  0.5231090000000  0.4764920000000 1.0
C      1  0.4609120000000  0.4266230000000  0.5829100000000 1.0
C      1  0.5695810000000  0.4274690000000  0.5609120000000 1.0
C      1  0.5777720000000  0.4247590000000  0.4536680000000 1.0
C      1  0.4764220000000  0.4255520000000  0.4077900000000 1.0
C      1  0.4085540000000  0.4264800000000  0.4877150000000 1.0
C      1  0.5602330000000  0.5318410000000  0.4169840000000 1.0
C      1  0.4398250000000  0.5381540000000  0.4147710000000 1.0
C      1  0.3985320000000  0.5347430000000  0.5285770000000 1.0
C      1  0.4995500000000  0.5311380000000  0.6038930000000 1.0
C      1  0.6014310000000  0.5381130000000  0.5336690000000 1.0
C      1  0.4982160000000  0.4834930000000  0.5360120000000 1.0
C      1  0.5244410000000  0.4839450000000  0.5258600000000 1.0
C      1  0.5340100000000  0.4866900000000  0.4701570000000 1.0
C      1  0.5045040000000  0.4862140000000  0.4693090000000 1.0
C      1  0.4709260000000  0.4741370000000  0.4992420000000 1.0
C      1  0.5520260000000  0.5456930000000  0.5259820000000 1.0
C      1  0.5430830000000  0.5410320000000  0.4628620000000 1.0
C      1  0.4708060000000  0.5445100000000  0.4523780000000 1.0
C      1  0.4449390000000  0.5407210000000  0.5097530000000 1.0
C      1  0.4918800000000  0.5421160000000  0.5576430000000 1.0
C      1  0.5013470000000  0.4360760000000  0.5282760000000 1.0
C      1  0.5288140000000  0.4401870000000  0.5259400000000 1.0
C      1  0.5382100000000  0.4449680000000  0.4871310000000 1.0
C      1  0.4926600000000  0.4369070000000  0.4700770000000 1.0
C      1  0.4722590000000  0.4295950000000  0.4903400000000 1.0
C      1  0.6014730000000  0.4494750000000  0.4868640000000 1.0
C      1  0.5137530000000  0.4506240000000  0.4000090000000 1.0
C      1  0.4155100000000  0.4530710000000  0.4495750000000 1.0
C      1  0.4248330000000  0.4508260000000  0.5661400000000 1.0
C      1  0.5440890000000  0.4498940000000  0.5925220000000 1.0
C      1  0.4455060000000  0.4085430000000  0.5644250000000 1.0
C      1  0.5474320000000  0.4088470000000  0.5697510000000 1.0
C      1  0.5788980000000  0.4080520000000  0.4785910000000 1.0
C      1  0.5008350000000  0.4081080000000  0.4145190000000 1.0
C      1  0.4208390000000  0.4090190000000  0.4665620000000 1.0
C      1  0.5696310000000  0.5069350000000  0.5755270000000 1.0
C      1  0.5998830000000  0.5042450000000  0.4547040000000 1.0
C      1  0.4843730000000  0.5062110000000  0.3987930000000 1.0
C      1  0.3997800000000  0.5057030000000  0.4779930000000 1.0
C      1  0.4473410000000  0.5059300000000  0.5880760000000 1.0
C      1  0.5392360000000  0.4214280000000  0.5943640000000 1.0
C      1  0.5998940000000  0.4211600000000  0.4934480000000 1.0
C      1  0.5216230000000  0.4227440000000  0.4004040000000 1.0
C      1  0.4166230000000  0.4248930000000  0.4428310000000 1.0
C      1  0.4203310000000  0.4224250000000  0.5626710000000 1.0
C      1  0.4932230000000  0.5891260000000  0.5507180000000 1.0
C      1  0.5447600000000  0.5903450000000  0.5167240000000 1.0
C      1  0.5325150000000  0.5856130000000  0.4658320000000 1.0
C      1  0.4781790000000  0.5896200000000  0.4597490000000 1.0
C      1  0.4545060000000  0.5858190000000  0.5093110000000 1.0
C      1  0.4200100000000  0.5568880000000  0.5299280000000 1.0
C      1  0.5084830000000  0.5448910000000  0.5810970000000 1.0
C      1  0.5833870000000  0.5598200000000  0.5202670000000 1.0
C      1  0.5452320000000  0.5552290000000  0.4291240000000 1.0
C      1  0.4479450000000  0.5579980000000  0.4364070000000 1.0
C      1  0.4443710000000  0.4015440000000  0.5111840000000 1.0
C      1  0.4950840000000  0.4031960000000  0.5560250000000 1.0
C      1  0.5497580000000  0.4038020000000  0.5193050000000 1.0
C      1  0.5318990000000  0.4042130000000  0.4589150000000 1.0
C      1  0.4697350000000  0.4042900000000  0.4531770000000 1.0
C      1  0.4243630000000  0.5546250000000  0.5603560000000 1.0
C      1  0.5347640000000  0.5554860000000  0.5818440000000 1.0
C      1  0.5985190000000  0.5567020000000  0.4881280000000 1.0
C      1  0.5217320000000  0.5552100000000  0.4075360000000 1.0
C      1  0.4197900000000  0.5577670000000  0.4508610000000 1.0
C      1  0.5432240000000  0.4632710000000  0.5280050000000 1.0
C      1  0.5464080000000  0.4622200000000  0.4661760000000 1.0
C      1  0.4921440000000  0.4618790000000  0.4481660000000 1.0
C      1  0.4568180000000  0.4510150000000  0.5009000000000 1.0
C      1  0.4920410000000  0.4577360000000  0.5456620000000 1.0
C      1  0.4515160000000  0.5397210000000  0.3890120000000 1.0
C      1  0.3786150000000  0.5362830000000  0.5084330000000 1.0
C      1  0.4737950000000  0.5370600000000  0.6138980000000 1.0
C      1  0.6037940000000  0.5397130000000  0.5621010000000 1.0
C      1  0.5886150000000  0.5333170000000  0.4174580000000 1.0
C      1  0.5263820000000  0.5589930000000  0.4752780000000 1.0
C      1  0.4835940000000  0.5629150000000  0.4697440000000 1.0
C      1  0.4650500000000  0.5592120000000  0.5086570000000 1.0
C      1  0.4955500000000  0.5628650000000  0.5392960000000 1.0
C      1  0.5331910000000  0.5639320000000  0.5177380000000 1.0
C      1  0.5940740000000  0.4512720000000  0.4580530000000 1.0
C      1  0.4849450000000  0.4522120000000  0.3947310000000 1.0
C      1  0.4019470000000  0.4539910000000  0.4759200000000 1.0
C      1  0.4463430000000  0.4534350000000  0.5862680000000 1.0
C      1  0.5691050000000  0.4537060000000  0.5771710000000 1.0
C      1  0.5801160000000  0.5345360000000  0.5767470000000 1.0
C      1  0.6014410000000  0.5312660000000  0.4426760000000 1.0
C      1  0.4790790000000  0.5332190000000  0.3889220000000 1.0
C      1  0.3885730000000  0.5322610000000  0.4822720000000 1.0
C      1  0.4498070000000  0.5330790000000  0.5991390000000 1.0
C      1  0.5727590000000  0.5709030000000  0.4504400000000 1.0
C      1  0.4784240000000  0.5729410000000  0.4174620000000 1.0
C      1  0.4142250000000  0.5719950000000  0.4955350000000 1.0
C      1  0.4558140000000  0.5806640000000  0.5823090000000 1.0
C      1  0.5680850000000  0.5762990000000  0.5523790000000 1.0
C      1  0.5000390000000  0.3378620000000  0.4999340000000 1.0
C      1  0.5002530000000  0.6716470000000  0.4997440000000 1.0
C      1  0.5019640000000  0.5237930000000  0.5045630000000 1.0
C      1  0.5004290000000  0.7246530000000  0.4996220000000 1.0
C      1  0.4886220000000  0.4169350000000  0.5109470000000 1.0
C      1  0.4997380000000  0.6186620000000  0.5008810000000 1.0
C      1  0.5003830000000  0.3113790000000  0.4990990000000 1.0
C      1  0.5116940000000  0.4473760000000  0.4876110000000 1.0
C      1  0.4998930000000  0.6451550000000  0.5001140000000 1.0
C      1  0.5003940000000  0.7507230000000  0.4996440000000 1.0
C      1  0.4961220000000  0.3901590000000  0.5071920000000 1.0
C      1  0.4989560000000  0.3641850000000  0.5027110000000 1.0
C      1  0.5008520000000  0.5575380000000  0.5024700000000 1.0
C      1  0.5004210000000  0.6981460000000  0.4996260000000 1.0
C      1  0.5005090000000  0.2588060000000  0.4996440000000 1.0
C      1  0.4987400000000  0.4722340000000  0.4943150000000 1.0
C      1  0.5001720000000  0.5933060000000  0.5017460000000 1.0
C      1  0.5004850000000  0.2848740000000  0.4992930000000 1.0
END
