TITL C-3201378-2706-1241 -4.77562644341873e-07 125000 -956.942365473695 0 0 155 (C3) n - 1
REM
REM in /home/nfs/bkarasulu/CARBON/AIRSS/Generating-Clusters/LCBOP/Higher-Symm/SD-CG/FIRE-CG
REM
REM
REM
REM
REM
REM ./C.cell (b20cbc046b6831c77cfcea5457e17084)
REM AIRSS Version 0.9.1 bugfix July 2018 build 013d7b7c2542+ Fri, 06 Jul 2018 19:26:36 +0100
REM compiler GCC version 9.2.1 20190827 (Red Hat 9.2.1-1)
REM options -cpp -mtune=generic -march=x86-64 -g -O0 -fpre-include=/usr/include/finclude/math-vector-fortran.h
REM seed -2100549556 1294383566 -315734150 604580695 23061206 -106956597 -1650613415 -211509176 -889878113 -1135264849 981499139 1428724370 -381361843 214886040 1401207983 -637950177 1805627395 -1575374765 1927523943 -199828599 1827487335 2017946898 -1368050361 -110560679 -1914010891 967370803 -1387048340 1762301414 2037333190 -765747848 -557757423 -2003055418 -2025651046
REM
CELL 1.54180   50.00000   50.00000   50.00000   90.00000   90.00000   90.00000
LATT -1
SFAC C  
C      1  0.5583720000000  0.5040310000000  0.5438780000000 1.0
C      1  0.4874380000000  0.5461560000000  0.5719260000000 1.0
C      1  0.5559350000000  0.5715240000000  0.4825570000000 1.0
C      1  0.4281840000000  0.5128630000000  0.5459630000000 1.0
C      1  0.5837440000000  0.5206830000000  0.4223800000000 1.0
C      1  0.4287770000000  0.4827430000000  0.4441780000000 1.0
C      1  0.5175530000000  0.4443700000000  0.5713410000000 1.0
C      1  0.4796160000000  0.4225620000000  0.4163750000000 1.0
C      1  0.4962740000000  0.5440610000000  0.4417380000000 1.0
C      1  0.4562370000000  0.4419280000000  0.5038430000000 1.0
C      1  0.5777340000000  0.4165600000000  0.5205060000000 1.0
C      1  0.4541480000000  0.5721170000000  0.5126690000000 1.0
C      1  0.5097710000000  0.6223150000000  0.4851070000000 1.0
C      1  0.5972640000000  0.4648530000000  0.4751530000000 1.0
C      1  0.4541920000000  0.4683180000000  0.6026800000000 1.0
C      1  0.5249650000000  0.4030360000000  0.4646730000000 1.0
C      1  0.5136610000000  0.3862610000000  0.5250960000000 1.0
C      1  0.5319870000000  0.6028690000000  0.5459150000000 1.0
C      1  0.3974350000000  0.5461050000000  0.4681210000000 1.0
C      1  0.6140420000000  0.5252760000000  0.4864540000000 1.0
C      1  0.3779850000000  0.4852990000000  0.4903410000000 1.0
C      1  0.5149980000000  0.4905370000000  0.6221300000000 1.0
C      1  0.4750260000000  0.4866340000000  0.3860730000000 1.0
C      1  0.5354490000000  0.4753310000000  0.4028520000000 1.0
C      1  0.4178660000000  0.5510180000000  0.4866060000000 1.0
C      1  0.5394420000000  0.4966570000000  0.4213190000000 1.0
C      1  0.5057730000000  0.4087610000000  0.5402070000000 1.0
C      1  0.5787960000000  0.4608610000000  0.4964780000000 1.0
C      1  0.3969320000000  0.4688540000000  0.5042370000000 1.0
C      1  0.5915420000000  0.5403890000000  0.4943400000000 1.0
C      1  0.4599140000000  0.4945220000000  0.4085710000000 1.0
C      1  0.5314450000000  0.5044300000000  0.6031820000000 1.0
C      1  0.4492800000000  0.4868010000000  0.5822480000000 1.0
C      1  0.5135030000000  0.5824380000000  0.5508280000000 1.0
C      1  0.4958770000000  0.6033670000000  0.4686610000000 1.0
C      1  0.5036410000000  0.4215030000000  0.4606780000000 1.0
C      1  0.4509520000000  0.5875530000000  0.5393670000000 1.0
C      1  0.5963920000000  0.5458500000000  0.4183340000000 1.0
C      1  0.5462260000000  0.4513940000000  0.5769560000000 1.0
C      1  0.5817790000000  0.4039130000000  0.5456740000000 1.0
C      1  0.4413560000000  0.4191200000000  0.4968540000000 1.0
C      1  0.5489120000000  0.5771370000000  0.4538840000000 1.0
C      1  0.4231630000000  0.4540710000000  0.4512040000000 1.0
C      1  0.5811800000000  0.4970420000000  0.5587600000000 1.0
C      1  0.4127480000000  0.5395620000000  0.5491570000000 1.0
C      1  0.4607390000000  0.5493520000000  0.5873610000000 1.0
C      1  0.5032640000000  0.5589410000000  0.4189300000000 1.0
C      1  0.4544490000000  0.4185160000000  0.4037260000000 1.0
C      1  0.6006820000000  0.4556140000000  0.5389980000000 1.0
C      1  0.4193930000000  0.5219890000000  0.5941500000000 1.0
C      1  0.5200090000000  0.6070600000000  0.4265500000000 1.0
C      1  0.4059600000000  0.5809070000000  0.5217910000000 1.0
C      1  0.6010650000000  0.5745050000000  0.4591300000000 1.0
C      1  0.3932380000000  0.4267410000000  0.4801080000000 1.0
C      1  0.5735560000000  0.4802990000000  0.6068790000000 1.0
C      1  0.4257970000000  0.4593130000000  0.3990500000000 1.0
C      1  0.5446910000000  0.5391750000000  0.3994300000000 1.0
C      1  0.4611220000000  0.3996160000000  0.4554290000000 1.0
C      1  0.5409810000000  0.3992400000000  0.5743260000000 1.0
C      1  0.4783150000000  0.5943440000000  0.5807140000000 1.0
C      1  0.5059260000000  0.4569480000000  0.5444550000000 1.0
C      1  0.4556350000000  0.5409830000000  0.5097430000000 1.0
C      1  0.5275830000000  0.5070580000000  0.4683820000000 1.0
C      1  0.4903670000000  0.5446670000000  0.5407930000000 1.0
C      1  0.4997220000000  0.5511340000000  0.4695470000000 1.0
C      1  0.4932420000000  0.4685680000000  0.4725330000000 1.0
C      1  0.5317320000000  0.4727190000000  0.5068740000000 1.0
C      1  0.4491650000000  0.4697370000000  0.5003920000000 1.0
C      1  0.5433550000000  0.5446400000000  0.4941850000000 1.0
C      1  0.4556620000000  0.4943710000000  0.4567580000000 1.0
C      1  0.5305630000000  0.5005820000000  0.5509490000000 1.0
C      1  0.4593170000000  0.5099350000000  0.5444770000000 1.0
C      1  0.4312270000000  0.5291550000000  0.4999810000000 1.0
C      1  0.5205430000000  0.5030580000000  0.4414930000000 1.0
C      1  0.4971010000000  0.4335000000000  0.5287540000000 1.0
C      1  0.5586220000000  0.4797600000000  0.5028770000000 1.0
C      1  0.4231220000000  0.4803190000000  0.5077090000000 1.0
C      1  0.5668020000000  0.5289370000000  0.5030120000000 1.0
C      1  0.4713650000000  0.5031960000000  0.4333110000000 1.0
C      1  0.5199810000000  0.5079010000000  0.5769920000000 1.0
C      1  0.4711440000000  0.5001740000000  0.5688860000000 1.0
C      1  0.5001300000000  0.5690750000000  0.5289650000000 1.0
C      1  0.4924040000000  0.5771780000000  0.4801270000000 1.0
C      1  0.4972400000000  0.4416780000000  0.4795750000000 1.0
C      1  0.5868110000000  0.4431870000000  0.5176630000000 1.0
C      1  0.4249980000000  0.5013460000000  0.5750360000000 1.0
C      1  0.4972320000000  0.6086900000000  0.4410320000000 1.0
C      1  0.4250760000000  0.5753010000000  0.5011500000000 1.0
C      1  0.5861910000000  0.5653430000000  0.4812390000000 1.0
C      1  0.3916080000000  0.4412250000000  0.5028840000000 1.0
C      1  0.5590740000000  0.5030760000000  0.6085070000000 1.0
C      1  0.4349590000000  0.4814230000000  0.4139220000000 1.0
C      1  0.5571160000000  0.5178410000000  0.4133030000000 1.0
C      1  0.4824570000000  0.4134870000000  0.4430030000000 1.0
C      1  0.5188730000000  0.4141130000000  0.5651610000000 1.0
C      1  0.4989570000000  0.5752280000000  0.5751100000000 1.0
C      1  0.4955700000000  0.5013000000000  0.6393430000000 1.0
C      1  0.5526710000000  0.5965920000000  0.5276740000000 1.0
C      1  0.6315430000000  0.5099840000000  0.5023340000000 1.0
C      1  0.4724340000000  0.4476340000000  0.5964050000000 1.0
C      1  0.5222230000000  0.4511780000000  0.4096900000000 1.0
C      1  0.4903210000000  0.5025110000000  0.3685710000000 1.0
C      1  0.4977830000000  0.3687590000000  0.5098030000000 1.0
C      1  0.5491190000000  0.4098730000000  0.4778980000000 1.0
C      1  0.4990080000000  0.6395300000000  0.5045340000000 1.0
C      1  0.3607710000000  0.5047280000000  0.5011030000000 1.0
C      1  0.5904280000000  0.4780770000000  0.4509990000000 1.0
C      1  0.4037120000000  0.5278620000000  0.4474380000000 1.0
C      1  0.5348040000000  0.4836430000000  0.3756160000000 1.0
C      1  0.5410180000000  0.3862260000000  0.5179260000000 1.0
C      1  0.3709580000000  0.5472350000000  0.4780160000000 1.0
C      1  0.4821970000000  0.4592760000000  0.3860400000000 1.0
C      1  0.5127190000000  0.4628270000000  0.6169470000000 1.0
C      1  0.4530620000000  0.4782150000000  0.6291570000000 1.0
C      1  0.5220910000000  0.6293460000000  0.5470430000000 1.0
C      1  0.5374800000000  0.6171310000000  0.4873870000000 1.0
C      1  0.5166530000000  0.3758000000000  0.4653190000000 1.0
C      1  0.6244990000000  0.4654990000000  0.4834670000000 1.0
C      1  0.3831700000000  0.4875770000000  0.4626320000000 1.0
C      1  0.6140760000000  0.5181050000000  0.4590970000000 1.0
C      1  0.5163400000000  0.4983450000000  0.3624290000000 1.0
C      1  0.5580750000000  0.4041200000000  0.5040760000000 1.0
C      1  0.3570710000000  0.5304480000000  0.4938960000000 1.0
C      1  0.4960460000000  0.4422210000000  0.4039360000000 1.0
C      1  0.5005280000000  0.4491510000000  0.5954690000000 1.0
C      1  0.4698490000000  0.4940950000000  0.6430420000000 1.0
C      1  0.5062120000000  0.6432310000000  0.5302540000000 1.0
C      1  0.5511550000000  0.5956530000000  0.4995800000000 1.0
C      1  0.5019490000000  0.3626150000000  0.4837840000000 1.0
C      1  0.6376860000000  0.4839640000000  0.4981690000000 1.0
C      1  0.4046490000000  0.4997680000000  0.4489570000000 1.0
C      1  0.5961820000000  0.5042540000000  0.4420400000000 1.0
C      1  0.4581560000000  0.5982990000000  0.5629100000000 1.0
C      1  0.6037980000000  0.5667540000000  0.4335240000000 1.0
C      1  0.5663940000000  0.4582500000000  0.5931610000000 1.0
C      1  0.5665870000000  0.3965080000000  0.5665770000000 1.0
C      1  0.4454490000000  0.4012110000000  0.4771360000000 1.0
C      1  0.5420570000000  0.5933410000000  0.4337140000000 1.0
C      1  0.4069580000000  0.4339030000000  0.4580600000000 1.0
C      1  0.5990870000000  0.4773220000000  0.5546690000000 1.0
C      1  0.4020040000000  0.5631050000000  0.5419510000000 1.0
C      1  0.4371950000000  0.5421480000000  0.5981050000000 1.0
C      1  0.5229840000000  0.5548480000000  0.4010230000000 1.0
C      1  0.4335460000000  0.4337070000000  0.3963200000000 1.0
C      1  0.5638700000000  0.5045990000000  0.5158260000000 1.0
C      1  0.4930410000000  0.5166750000000  0.5774430000000 1.0
C      1  0.4836290000000  0.5776310000000  0.5070670000000 1.0
C      1  0.4226700000000  0.5072590000000  0.5164820000000 1.0
C      1  0.4957050000000  0.5160080000000  0.4362430000000 1.0
C      1  0.4842890000000  0.4364310000000  0.5044130000000 1.0
C      1  0.5158470000000  0.5283980000000  0.4870920000000 1.0
C      1  0.5130200000000  0.4844550000000  0.5282130000000 1.0
C      1  0.4759260000000  0.5243760000000  0.5241860000000 1.0
C      1  0.4719030000000  0.4872800000000  0.4842670000000 1.0
C      1  0.4931560000000  0.5071450000000  0.5069570000000 1.0
END
