TITL C-3201372-1405-1533 0.385546293674107 125000 -540.090278201158 0 0 91 (C1) n - 1
REM
REM in /home/nfs/bkarasulu/CARBON/AIRSS/Generating-Clusters/LCBOP/Higher-Symm/SD-CG/FIRE-CG
REM
REM
REM
REM
REM
REM ./C.cell (b20cbc046b6831c77cfcea5457e17084)
REM AIRSS Version 0.9.1 bugfix July 2018 build 013d7b7c2542+ Fri, 06 Jul 2018 19:26:36 +0100
REM compiler GCC version 9.2.1 20190827 (Red Hat 9.2.1-1)
REM options -cpp -mtune=generic -march=x86-64 -g -O0 -fpre-include=/usr/include/finclude/math-vector-fortran.h
REM seed 1715339272 -311937838 1974140371 1955726740 1486258400 -29717614 353069620 -265528366 32752830 687427077 1381196014 -1470183160 1128327472 -489118314 1396782388 1199790564 957599381 1728787127 -799456025 1636859036 -1381807935 -1742692757 1536415330 1722766208 878729370 2058294070 481350380 -1777381013 2003593832 -1265087704 -1393145434 463987455 -2004596148
REM
CELL 1.54180   50.00000   50.00000   50.00000   90.00000   90.00000   90.00000
LATT -1
SFAC C  
C      1  0.4949340000000  0.5647690000000  0.4354840000000 1.0
C      1  0.3896150000000  0.4626480000000  0.3744280000000 1.0
C      1  0.5343060000000  0.4407890000000  0.5231370000000 1.0
C      1  0.5314830000000  0.4524890000000  0.5916290000000 1.0
C      1  0.5357000000000  0.4977980000000  0.4945100000000 1.0
C      1  0.5238810000000  0.4137970000000  0.4510870000000 1.0
C      1  0.3180850000000  0.5185840000000  0.4611050000000 1.0
C      1  0.5827270000000  0.4519020000000  0.5290570000000 1.0
C      1  0.4594990000000  0.5018540000000  0.3915880000000 1.0
C      1  0.5427670000000  0.5748870000000  0.5660540000000 1.0
C      1  0.4727620000000  0.4922710000000  0.5639190000000 1.0
C      1  0.4628180000000  0.4434140000000  0.4638990000000 1.0
C      1  0.4867390000000  0.4341550000000  0.5296130000000 1.0
C      1  0.3346970000000  0.5073560000000  0.4444430000000 1.0
C      1  0.5164000000000  0.5029680000000  0.5548670000000 1.0
C      1  0.6688060000000  0.5276680000000  0.4472640000000 1.0
C      1  0.4937390000000  0.4329680000000  0.5011990000000 1.0
C      1  0.5054460000000  0.5836280000000  0.4534580000000 1.0
C      1  0.4743280000000  0.5253500000000  0.3985980000000 1.0
C      1  0.5125640000000  0.4390320000000  0.5421270000000 1.0
C      1  0.3926810000000  0.4750340000000  0.3986200000000 1.0
C      1  0.5081030000000  0.4664000000000  0.5903920000000 1.0
C      1  0.4564890000000  0.5418950000000  0.4153630000000 1.0
C      1  0.5332720000000  0.5164320000000  0.6219350000000 1.0
C      1  0.4729530000000  0.5110000000000  0.5419370000000 1.0
C      1  0.4091870000000  0.5224850000000  0.5059690000000 1.0
C      1  0.5568750000000  0.4820700000000  0.5043770000000 1.0
C      1  0.5208370000000  0.5701790000000  0.5514810000000 1.0
C      1  0.4338700000000  0.5006330000000  0.4052580000000 1.0
C      1  0.4894550000000  0.4664660000000  0.6118860000000 1.0
C      1  0.5114010000000  0.5435030000000  0.4254160000000 1.0
C      1  0.4668050000000  0.5652080000000  0.4277750000000 1.0
C      1  0.4994500000000  0.5232910000000  0.5433280000000 1.0
C      1  0.5422070000000  0.4976060000000  0.5503250000000 1.0
C      1  0.5675580000000  0.5330250000000  0.5813110000000 1.0
C      1  0.4774730000000  0.5119040000000  0.6207980000000 1.0
C      1  0.5521150000000  0.5199010000000  0.6010600000000 1.0
C      1  0.5753070000000  0.5326610000000  0.5335310000000 1.0
C      1  0.6258900000000  0.5082370000000  0.4706070000000 1.0
C      1  0.3520040000000  0.4960550000000  0.4278490000000 1.0
C      1  0.5429010000000  0.5105330000000  0.6469900000000 1.0
C      1  0.4184640000000  0.4778110000000  0.4101510000000 1.0
C      1  0.3705830000000  0.4852030000000  0.4124000000000 1.0
C      1  0.5291640000000  0.4340080000000  0.4311200000000 1.0
C      1  0.5006580000000  0.4842140000000  0.5693750000000 1.0
C      1  0.5225680000000  0.4281340000000  0.4992320000000 1.0
C      1  0.5447780000000  0.4540440000000  0.4462520000000 1.0
C      1  0.4494540000000  0.5879380000000  0.4301180000000 1.0
C      1  0.5217570000000  0.4346880000000  0.4051080000000 1.0
C      1  0.4339630000000  0.5162100000000  0.5129560000000 1.0
C      1  0.5619340000000  0.5606590000000  0.5782670000000 1.0
C      1  0.5556910000000  0.4590740000000  0.5214360000000 1.0
C      1  0.5322340000000  0.4792570000000  0.4508960000000 1.0
C      1  0.4419160000000  0.5457180000000  0.6430970000000 1.0
C      1  0.5014730000000  0.5308260000000  0.4020670000000 1.0
C      1  0.4751060000000  0.4965860000000  0.4958340000000 1.0
C      1  0.4307260000000  0.5929470000000  0.4107430000000 1.0
C      1  0.6042320000000  0.4985560000000  0.4823980000000 1.0
C      1  0.4918510000000  0.4778720000000  0.4831050000000 1.0
C      1  0.4286370000000  0.4580190000000  0.4271370000000 1.0
C      1  0.4552420000000  0.4844740000000  0.5849030000000 1.0
C      1  0.4322920000000  0.5265500000000  0.4183860000000 1.0
C      1  0.5359990000000  0.5025050000000  0.4353730000000 1.0
C      1  0.5823590000000  0.4895090000000  0.4943130000000 1.0
C      1  0.5370200000000  0.5379530000000  0.4676400000000 1.0
C      1  0.5927260000000  0.4945480000000  0.5585040000000 1.0
C      1  0.4603230000000  0.5080930000000  0.5168890000000 1.0
C      1  0.5055790000000  0.5503290000000  0.5422490000000 1.0
C      1  0.5364680000000  0.4204860000000  0.4762490000000 1.0
C      1  0.5584720000000  0.4387010000000  0.4680020000000 1.0
C      1  0.5830800000000  0.4365130000000  0.4817170000000 1.0
C      1  0.5591420000000  0.5364970000000  0.5124040000000 1.0
C      1  0.4440030000000  0.4430580000000  0.5599260000000 1.0
C      1  0.6475260000000  0.5180330000000  0.4588380000000 1.0
C      1  0.4824860000000  0.4507430000000  0.4822090000000 1.0
C      1  0.5185960000000  0.4845080000000  0.4759270000000 1.0
C      1  0.4620750000000  0.4338590000000  0.5424340000000 1.0
C      1  0.4716140000000  0.6139570000000  0.4682360000000 1.0
C      1  0.4966650000000  0.6040040000000  0.4685950000000 1.0
C      1  0.4690550000000  0.4864860000000  0.6103580000000 1.0
C      1  0.3851070000000  0.5280160000000  0.4976460000000 1.0
C      1  0.4388960000000  0.4625900000000  0.5778190000000 1.0
C      1  0.4519890000000  0.6056780000000  0.4518450000000 1.0
C      1  0.5418680000000  0.5259510000000  0.4926570000000 1.0
C      1  0.5051480000000  0.5184970000000  0.6187820000000 1.0
C      1  0.5941830000000  0.4382380000000  0.5066480000000 1.0
C      1  0.4442030000000  0.4464210000000  0.4452280000000 1.0
C      1  0.4592540000000  0.5294100000000  0.6324850000000 1.0
C      1  0.5809280000000  0.5205160000000  0.5588400000000 1.0
C      1  0.5942570000000  0.4695910000000  0.5480410000000 1.0
C      1  0.5301240000000  0.5296720000000  0.4414910000000 1.0
END
