TITL C-3201372-1405-1289 -851.857828283589 125000 -948.04148896715 0 0 157 (C1) n - 1
REM
REM in /home/nfs/bkarasulu/CARBON/AIRSS/Generating-Clusters/LCBOP/Higher-Symm/SD-CG/FIRE-CG
REM
REM
REM
REM
REM
REM ./C.cell (b20cbc046b6831c77cfcea5457e17084)
REM AIRSS Version 0.9.1 bugfix July 2018 build 013d7b7c2542+ Fri, 06 Jul 2018 19:26:36 +0100
REM compiler GCC version 9.2.1 20190827 (Red Hat 9.2.1-1)
REM options -cpp -mtune=generic -march=x86-64 -g -O0 -fpre-include=/usr/include/finclude/math-vector-fortran.h
REM seed -152138735 1917338180 -922869927 666677544 -2131340994 -915860246 -511658624 -755576826 257260262 -321267648 1713956929 -447569855 97484300 417674351 433866449 1776537203 1205959171 -168320972 -1551361180 -1167959040 -535105468 -1006753986 -25208797 -2089581054 1297182028 -772873461 -544183673 1664575758 -922463441 -1426671552 -549610451 -1628585913 1081157508
REM
CELL 1.54180   50.00000   50.00000   50.00000   90.00000   90.00000   90.00000
LATT -1
SFAC C  
C      1  0.5950900000000  0.5145380000000  0.4748270000000 1.0
C      1  0.5937650000000  0.4878280000000  0.4935940000000 1.0
C      1  0.6008540000000  0.5013570000000  0.5204710000000 1.0
C      1  0.6100660000000  0.4555320000000  0.5438620000000 1.0
C      1  0.6141730000000  0.5600310000000  0.5054440000000 1.0
C      1  0.6050430000000  0.4795790000000  0.4452140000000 1.0
C      1  0.5703450000000  0.4566460000000  0.4143290000000 1.0
C      1  0.5701430000000  0.4430410000000  0.5794920000000 1.0
C      1  0.5737180000000  0.5981640000000  0.5069460000000 1.0
C      1  0.3893470000000  0.5734420000000  0.4027340000000 1.0
C      1  0.4014920000000  0.4966200000000  0.3969750000000 1.0
C      1  0.4744540000000  0.4289690000000  0.5845630000000 1.0
C      1  0.3925470000000  0.4259520000000  0.4814180000000 1.0
C      1  0.4193860000000  0.4269140000000  0.5441660000000 1.0
C      1  0.4373670000000  0.5895560000000  0.5188320000000 1.0
C      1  0.4954520000000  0.5492270000000  0.5370620000000 1.0
C      1  0.4694250000000  0.5323060000000  0.4365950000000 1.0
C      1  0.4814370000000  0.4639510000000  0.5278890000000 1.0
C      1  0.4537280000000  0.4652700000000  0.5276980000000 1.0
C      1  0.4671590000000  0.5495320000000  0.5339400000000 1.0
C      1  0.4049760000000  0.5210970000000  0.4847960000000 1.0
C      1  0.5317480000000  0.5875010000000  0.4475140000000 1.0
C      1  0.4787270000000  0.3998560000000  0.5016780000000 1.0
C      1  0.5464720000000  0.5056990000000  0.6106250000000 1.0
C      1  0.4277360000000  0.4634170000000  0.4648990000000 1.0
C      1  0.4483020000000  0.4937610000000  0.5753760000000 1.0
C      1  0.4281370000000  0.5710070000000  0.4727720000000 1.0
C      1  0.5396320000000  0.4581350000000  0.4672940000000 1.0
C      1  0.5577060000000  0.4971740000000  0.5596970000000 1.0
C      1  0.5504480000000  0.5538950000000  0.4816230000000 1.0
C      1  0.4364180000000  0.4464300000000  0.5385640000000 1.0
C      1  0.4523630000000  0.5730680000000  0.5334000000000 1.0
C      1  0.3801300000000  0.5156440000000  0.4791280000000 1.0
C      1  0.5036680000000  0.4205590000000  0.4276370000000 1.0
C      1  0.5036220000000  0.4706750000000  0.6097670000000 1.0
C      1  0.4969840000000  0.6065190000000  0.4879290000000 1.0
C      1  0.5233850000000  0.4843150000000  0.5073250000000 1.0
C      1  0.5281620000000  0.5076430000000  0.5250140000000 1.0
C      1  0.5166710000000  0.5211350000000  0.4780310000000 1.0
C      1  0.5621190000000  0.5000220000000  0.4379920000000 1.0
C      1  0.5671520000000  0.4563470000000  0.5298630000000 1.0
C      1  0.5765690000000  0.5509640000000  0.5267800000000 1.0
C      1  0.4288750000000  0.5306210000000  0.3167240000000 1.0
C      1  0.3167550000000  0.3557640000000  0.3986670000000 1.0
C      1  0.3680470000000  0.5615730000000  0.7305870000000 1.0
C      1  0.4948070000000  0.4818110000000  0.4990260000000 1.0
C      1  0.5072070000000  0.5221540000000  0.5396580000000 1.0
C      1  0.4933660000000  0.5104680000000  0.4878510000000 1.0
C      1  0.4931390000000  0.5116980000000  0.5630220000000 1.0
C      1  0.4696300000000  0.5459860000000  0.4621380000000 1.0
C      1  0.4790710000000  0.4669670000000  0.4749840000000 1.0
C      1  0.4646270000000  0.5087980000000  0.5584700000000 1.0
C      1  0.4446340000000  0.5475450000000  0.4762830000000 1.0
C      1  0.4490290000000  0.4714690000000  0.4816550000000 1.0
C      1  0.4618770000000  0.5513870000000  0.4159290000000 1.0
C      1  0.4127190000000  0.3919560000000  0.4236700000000 1.0
C      1  0.4411480000000  0.5255280000000  0.6634810000000 1.0
C      1  0.5327150000000  0.4668950000000  0.4410310000000 1.0
C      1  0.5384680000000  0.4765180000000  0.5586290000000 1.0
C      1  0.5386580000000  0.5608010000000  0.5062920000000 1.0
C      1  0.4873940000000  0.4374810000000  0.4719250000000 1.0
C      1  0.5048930000000  0.5141200000000  0.5888840000000 1.0
C      1  0.4913050000000  0.5653640000000  0.4631280000000 1.0
C      1  0.4227830000000  0.5345680000000  0.6803100000000 1.0
C      1  0.4547620000000  0.5433100000000  0.3902780000000 1.0
C      1  0.3888450000000  0.3826250000000  0.4169520000000 1.0
C      1  0.4576950000000  0.4142580000000  0.4405010000000 1.0
C      1  0.4773160000000  0.5072480000000  0.6293570000000 1.0
C      1  0.4678730000000  0.5979830000000  0.4430010000000 1.0
C      1  0.5503100000000  0.5583240000000  0.5322620000000 1.0
C      1  0.5341670000000  0.4944730000000  0.4334740000000 1.0
C      1  0.5410490000000  0.4552090000000  0.5401180000000 1.0
C      1  0.5212500000000  0.4224660000000  0.5083180000000 1.0
C      1  0.5466270000000  0.5453850000000  0.5797420000000 1.0
C      1  0.5202530000000  0.5419340000000  0.4296160000000 1.0
C      1  0.4276040000000  0.5893490000000  0.4939720000000 1.0
C      1  0.4101750000000  0.4434780000000  0.4735920000000 1.0
C      1  0.4039270000000  0.4069660000000  0.5506930000000 1.0
C      1  0.6189360000000  0.5294240000000  0.4332070000000 1.0
C      1  0.5968600000000  0.4162240000000  0.5142050000000 1.0
C      1  0.6199010000000  0.5564960000000  0.5557610000000 1.0
C      1  0.5850230000000  0.4439760000000  0.3951560000000 1.0
C      1  0.5804560000000  0.4197010000000  0.5904800000000 1.0
C      1  0.5870250000000  0.6209390000000  0.5159170000000 1.0
C      1  0.4551720000000  0.5233740000000  0.5353550000000 1.0
C      1  0.4318210000000  0.5266530000000  0.4911370000000 1.0
C      1  0.4445670000000  0.4829610000000  0.5076000000000 1.0
C      1  0.5551590000000  0.5101640000000  0.5345060000000 1.0
C      1  0.5440640000000  0.5277140000000  0.4738910000000 1.0
C      1  0.5439610000000  0.4732250000000  0.4910200000000 1.0
C      1  0.6155900000000  0.4830320000000  0.5372770000000 1.0
C      1  0.6107840000000  0.5378190000000  0.4876190000000 1.0
C      1  0.6056730000000  0.4684680000000  0.4723990000000 1.0
C      1  0.5172170000000  0.4522840000000  0.5921350000000 1.0
C      1  0.5191860000000  0.6047580000000  0.5067250000000 1.0
C      1  0.5262290000000  0.4280380000000  0.4151250000000 1.0
C      1  0.5465290000000  0.6037150000000  0.4946060000000 1.0
C      1  0.5432480000000  0.4495580000000  0.4205610000000 1.0
C      1  0.5472720000000  0.4551350000000  0.5946710000000 1.0
C      1  0.3835400000000  0.5746230000000  0.3769000000000 1.0
C      1  0.3866350000000  0.5029220000000  0.3759490000000 1.0
C      1  0.4726510000000  0.4013510000000  0.5873690000000 1.0
C      1  0.3789080000000  0.5764510000000  0.3513100000000 1.0
C      1  0.3715270000000  0.5074180000000  0.3551850000000 1.0
C      1  0.4704250000000  0.3753960000000  0.5880560000000 1.0
C      1  0.5110890000000  0.5707700000000  0.5476980000000 1.0
C      1  0.4862430000000  0.5084430000000  0.4350150000000 1.0
C      1  0.4968120000000  0.4466280000000  0.5443250000000 1.0
C      1  0.4383430000000  0.5343640000000  0.3407230000000 1.0
C      1  0.3405490000000  0.3645910000000  0.4046310000000 1.0
C      1  0.3860860000000  0.5526670000000  0.7140060000000 1.0
C      1  0.5312220000000  0.5247050000000  0.5945230000000 1.0
C      1  0.5149660000000  0.5644680000000  0.4458990000000 1.0
C      1  0.4962700000000  0.4203050000000  0.4937040000000 1.0
C      1  0.5887510000000  0.5724870000000  0.5113530000000 1.0
C      1  0.5807790000000  0.4785530000000  0.4300050000000 1.0
C      1  0.5833160000000  0.4521010000000  0.5543150000000 1.0
C      1  0.5993090000000  0.5525150000000  0.5729510000000 1.0
C      1  0.6078370000000  0.5539600000000  0.4324490000000 1.0
C      1  0.5716440000000  0.4100740000000  0.5062800000000 1.0
C      1  0.4044320000000  0.5436150000000  0.6971520000000 1.0
C      1  0.4471450000000  0.5383300000000  0.3654060000000 1.0
C      1  0.3647290000000  0.3735780000000  0.4107270000000 1.0
C      1  0.4143570000000  0.4874410000000  0.4182450000000 1.0
C      1  0.4536860000000  0.4462470000000  0.5923330000000 1.0
C      1  0.3981300000000  0.5734870000000  0.4277370000000 1.0
C      1  0.4233890000000  0.4759220000000  0.4403200000000 1.0
C      1  0.4442070000000  0.4709280000000  0.5885410000000 1.0
C      1  0.4112630000000  0.5736520000000  0.4507430000000 1.0
C      1  0.4830690000000  0.4244470000000  0.4464350000000 1.0
C      1  0.4944000000000  0.4973140000000  0.6097920000000 1.0
C      1  0.4831620000000  0.5930550000000  0.4671100000000 1.0
C      1  0.5767820000000  0.5096910000000  0.5762560000000 1.0
C      1  0.5703700000000  0.5659300000000  0.4653520000000 1.0
C      1  0.5473480000000  0.4308800000000  0.4702650000000 1.0
C      1  0.5464230000000  0.4172520000000  0.4950560000000 1.0
C      1  0.5756040000000  0.5383680000000  0.5794380000000 1.0
C      1  0.5888280000000  0.5671800000000  0.4459870000000 1.0
C      1  0.5443270000000  0.6032130000000  0.4657740000000 1.0
C      1  0.4614290000000  0.3821240000000  0.5097620000000 1.0
C      1  0.5535090000000  0.4792930000000  0.6098300000000 1.0
C      1  0.4619650000000  0.5794230000000  0.4234920000000 1.0
C      1  0.4357310000000  0.4023450000000  0.4317100000000 1.0
C      1  0.4594680000000  0.5164670000000  0.6466160000000 1.0
C      1  0.4975770000000  0.4413080000000  0.5729110000000 1.0
C      1  0.5126020000000  0.5952210000000  0.5328520000000 1.0
C      1  0.4814430000000  0.4838890000000  0.4488140000000 1.0
C      1  0.5666190000000  0.5146830000000  0.4622620000000 1.0
C      1  0.5694780000000  0.4702830000000  0.5041360000000 1.0
C      1  0.5801980000000  0.5221020000000  0.5264290000000 1.0
C      1  0.5140970000000  0.5140920000000  0.4290670000000 1.0
C      1  0.5207430000000  0.4384180000000  0.5317490000000 1.0
C      1  0.5366820000000  0.5607250000000  0.5571340000000 1.0
C      1  0.6127620000000  0.5075620000000  0.4494910000000 1.0
C      1  0.6146650000000  0.4329450000000  0.5264960000000 1.0
C      1  0.6289410000000  0.5579550000000  0.5300390000000 1.0
C      1  0.4433160000000  0.5112110000000  0.5121670000000 1.0
END
