TITL C-3201372-1405-868 -1.81600190777255 125000 -774.351455240401 0 0 128 (C1) n - 1
REM
REM in /home/nfs/bkarasulu/CARBON/AIRSS/Generating-Clusters/LCBOP/Higher-Symm/SD-CG/FIRE-CG
REM
REM
REM
REM
REM
REM ./C.cell (b20cbc046b6831c77cfcea5457e17084)
REM AIRSS Version 0.9.1 bugfix July 2018 build 013d7b7c2542+ Fri, 06 Jul 2018 19:26:36 +0100
REM compiler GCC version 9.2.1 20190827 (Red Hat 9.2.1-1)
REM options -cpp -mtune=generic -march=x86-64 -g -O0 -fpre-include=/usr/include/finclude/math-vector-fortran.h
REM seed 952742104 295876056 -104036654 2145277136 1609635193 539880397 1896528414 1703260276 -1176758832 -318171803 -1429558674 -862149182 -1551889707 208773906 -287657143 -1344616110 -881977732 -1607258193 -1531972253 -1352583287 925764856 -1225579710 158740182 -1675270094 -532846173 2027585358 1116839711 -283540990 1670219232 -344380682 -1329976685 2050212277 -1829847480
REM
CELL 1.54180   50.00000   50.00000   50.00000   90.00000   90.00000   90.00000
LATT -1
SFAC C  
C      1  0.4385860000000  0.5192010000000  0.5089870000000 1.0
C      1  0.5514360000000  0.5086240000000  0.4943920000000 1.0
C      1  0.4694200000000  0.4975070000000  0.5392790000000 1.0
C      1  0.5309990000000  0.4922190000000  0.4431760000000 1.0
C      1  0.5960450000000  0.5191570000000  0.6432720000000 1.0
C      1  0.4570220000000  0.4700210000000  0.3947880000000 1.0
C      1  0.5966800000000  0.5204100000000  0.4856850000000 1.0
C      1  0.3951650000000  0.5088470000000  0.5069560000000 1.0
C      1  0.5113490000000  0.5045220000000  0.4276240000000 1.0
C      1  0.4913750000000  0.4936170000000  0.5574040000000 1.0
C      1  0.4236460000000  0.5126040000000  0.4504960000000 1.0
C      1  0.5718530000000  0.5007720000000  0.5527250000000 1.0
C      1  0.4265350000000  0.5407470000000  0.5233240000000 1.0
C      1  0.5687740000000  0.5273020000000  0.4836440000000 1.0
C      1  0.6051550000000  0.5339720000000  0.5097510000000 1.0
C      1  0.3906750000000  0.5361980000000  0.4939250000000 1.0
C      1  0.5879850000000  0.5452020000000  0.5303780000000 1.0
C      1  0.4092330000000  0.5531600000000  0.4774120000000 1.0
C      1  0.4754370000000  0.5631030000000  0.4174020000000 1.0
C      1  0.5228500000000  0.5528280000000  0.5894080000000 1.0
C      1  0.4672690000000  0.5160960000000  0.5150670000000 1.0
C      1  0.5243980000000  0.5156390000000  0.4942110000000 1.0
C      1  0.4211910000000  0.5007880000000  0.4947710000000 1.0
C      1  0.5623700000000  0.4872140000000  0.5083710000000 1.0
C      1  0.4418200000000  0.4504340000000  0.4086870000000 1.0
C      1  0.6121880000000  0.5206890000000  0.6642390000000 1.0
C      1  0.5632070000000  0.5401950000000  0.4590690000000 1.0
C      1  0.4111770000000  0.5381970000000  0.5454190000000 1.0
C      1  0.5639210000000  0.5843230000000  0.5079490000000 1.0
C      1  0.4366990000000  0.5898560000000  0.5018650000000 1.0
C      1  0.5429220000000  0.4654420000000  0.3979890000000 1.0
C      1  0.4502710000000  0.4600610000000  0.5812340000000 1.0
C      1  0.5417120000000  0.5335490000000  0.5975720000000 1.0
C      1  0.4567890000000  0.5437280000000  0.4081980000000 1.0
C      1  0.4648770000000  0.5871070000000  0.4953930000000 1.0
C      1  0.5357840000000  0.5836190000000  0.5138940000000 1.0
C      1  0.4866480000000  0.5058610000000  0.4405760000000 1.0
C      1  0.5118570000000  0.4777010000000  0.5444310000000 1.0
C      1  0.4230750000000  0.4892020000000  0.4683680000000 1.0
C      1  0.5704270000000  0.4789110000000  0.5336660000000 1.0
C      1  0.5689090000000  0.4952650000000  0.5806530000000 1.0
C      1  0.4225030000000  0.5094920000000  0.4225800000000 1.0
C      1  0.5631750000000  0.5154100000000  0.5999800000000 1.0
C      1  0.4444910000000  0.5183490000000  0.4060950000000 1.0
C      1  0.5561480000000  0.5753410000000  0.5563860000000 1.0
C      1  0.4441010000000  0.5830280000000  0.4534920000000 1.0
C      1  0.5256460000000  0.4103790000000  0.4751970000000 1.0
C      1  0.4728070000000  0.4048380000000  0.5108560000000 1.0
C      1  0.4718720000000  0.5749390000000  0.4434920000000 1.0
C      1  0.5283780000000  0.5682910000000  0.5658340000000 1.0
C      1  0.4340690000000  0.4366700000000  0.4688350000000 1.0
C      1  0.5630790000000  0.4299390000000  0.5225720000000 1.0
C      1  0.4515710000000  0.4520900000000  0.5539030000000 1.0
C      1  0.5439830000000  0.4512270000000  0.4224960000000 1.0
C      1  0.5423030000000  0.5350200000000  0.5350870000000 1.0
C      1  0.4549460000000  0.5422630000000  0.4722870000000 1.0
C      1  0.5419550000000  0.4115940000000  0.5314390000000 1.0
C      1  0.4552800000000  0.4207300000000  0.4559000000000 1.0
C      1  0.4770600000000  0.5446700000000  0.5148100000000 1.0
C      1  0.5195270000000  0.5434180000000  0.4946320000000 1.0
C      1  0.5173380000000  0.4001380000000  0.5349630000000 1.0
C      1  0.4799710000000  0.4095510000000  0.4517940000000 1.0
C      1  0.5661050000000  0.5277420000000  0.4134470000000 1.0
C      1  0.4321930000000  0.5107570000000  0.5759080000000 1.0
C      1  0.4641300000000  0.4705470000000  0.5040320000000 1.0
C      1  0.5388680000000  0.4594190000000  0.4739420000000 1.0
C      1  0.5310900000000  0.4873100000000  0.3876840000000 1.0
C      1  0.4695000000000  0.4727980000000  0.5952070000000 1.0
C      1  0.5949010000000  0.4743590000000  0.4671950000000 1.0
C      1  0.4017870000000  0.4657900000000  0.5293960000000 1.0
C      1  0.4929850000000  0.5675510000000  0.4638780000000 1.0
C      1  0.5077690000000  0.5647340000000  0.5449480000000 1.0
C      1  0.4803280000000  0.5617020000000  0.5383440000000 1.0
C      1  0.5202250000000  0.5601040000000  0.4705750000000 1.0
C      1  0.4237860000000  0.5798240000000  0.4772260000000 1.0
C      1  0.5753980000000  0.5721590000000  0.5324580000000 1.0
C      1  0.5724890000000  0.4473450000000  0.5689430000000 1.0
C      1  0.4228130000000  0.4615840000000  0.4270650000000 1.0
C      1  0.4591910000000  0.5177860000000  0.5854110000000 1.0
C      1  0.5400680000000  0.5329640000000  0.4022580000000 1.0
C      1  0.5066270000000  0.4955270000000  0.5007630000000 1.0
C      1  0.4779050000000  0.4963780000000  0.4936130000000 1.0
C      1  0.5007690000000  0.5659630000000  0.4050570000000 1.0
C      1  0.4957460000000  0.5516440000000  0.5978690000000 1.0
C      1  0.5086080000000  0.4046730000000  0.4522660000000 1.0
C      1  0.4885580000000  0.3973270000000  0.5342350000000 1.0
C      1  0.4288660000000  0.5366900000000  0.4635520000000 1.0
C      1  0.5685820000000  0.5266770000000  0.5416200000000 1.0
C      1  0.5711150000000  0.4298880000000  0.4937360000000 1.0
C      1  0.4271260000000  0.4286080000000  0.4965670000000 1.0
C      1  0.5485970000000  0.5644670000000  0.4631610000000 1.0
C      1  0.4577480000000  0.5780340000000  0.5448070000000 1.0
C      1  0.4099310000000  0.4847740000000  0.4162030000000 1.0
C      1  0.5709800000000  0.4676250000000  0.5869640000000 1.0
C      1  0.4576610000000  0.4712620000000  0.5324950000000 1.0
C      1  0.5401110000000  0.4662280000000  0.4469290000000 1.0
C      1  0.5226590000000  0.5101300000000  0.4019810000000 1.0
C      1  0.4791220000000  0.4964860000000  0.5835010000000 1.0
C      1  0.5767760000000  0.5241270000000  0.4393230000000 1.0
C      1  0.4104720000000  0.5113270000000  0.5559550000000 1.0
C      1  0.4256460000000  0.4618870000000  0.4563440000000 1.0
C      1  0.5705200000000  0.4510550000000  0.5408410000000 1.0
C      1  0.4426950000000  0.4240060000000  0.4020810000000 1.0
C      1  0.6280660000000  0.5221950000000  0.6848610000000 1.0
C      1  0.4572480000000  0.4969120000000  0.3924060000000 1.0
C      1  0.5799370000000  0.5175550000000  0.6223070000000 1.0
C      1  0.3978940000000  0.4943360000000  0.5339530000000 1.0
C      1  0.5978180000000  0.5029010000000  0.4619740000000 1.0
C      1  0.4755190000000  0.5005330000000  0.4644190000000 1.0
C      1  0.5156380000000  0.4730740000000  0.5159290000000 1.0
C      1  0.4548790000000  0.4241460000000  0.5543870000000 1.0
C      1  0.5405050000000  0.4235500000000  0.4204440000000 1.0
C      1  0.4440360000000  0.4072200000000  0.5075120000000 1.0
C      1  0.5544420000000  0.4119250000000  0.4776050000000 1.0
C      1  0.5229490000000  0.4048220000000  0.4280740000000 1.0
C      1  0.4725960000000  0.4039680000000  0.5565630000000 1.0
C      1  0.4708000000000  0.5418290000000  0.5946160000000 1.0
C      1  0.5258900000000  0.5572990000000  0.4007110000000 1.0
C      1  0.5645030000000  0.5829820000000  0.4792560000000 1.0
C      1  0.4368620000000  0.5888290000000  0.5304640000000 1.0
C      1  0.5129100000000  0.4272660000000  0.4940550000000 1.0
C      1  0.4857820000000  0.4252800000000  0.4969170000000 1.0
C      1  0.4744800000000  0.5595520000000  0.4876700000000 1.0
C      1  0.5248490000000  0.5565320000000  0.5211880000000 1.0
C      1  0.5871160000000  0.4510520000000  0.4802750000000 1.0
C      1  0.4108440000000  0.4451920000000  0.5137920000000 1.0
C      1  0.4714340000000  0.4478760000000  0.4909440000000 1.0
C      1  0.5246220000000  0.4526510000000  0.4976190000000 1.0
END
