TITL C-3201377-4638-2112 2011.71594239949 125000 -98.1885634882982 0 0 24 (Oh) n - 1
REM
REM in /home/nfs/bkarasulu/CARBON/AIRSS/Generating-Clusters/LCBOP/Higher-Symm/SD-CG/FIRE-CG
REM
REM
REM
REM
REM
REM ./C.cell (b20cbc046b6831c77cfcea5457e17084)
REM AIRSS Version 0.9.1 bugfix July 2018 build 013d7b7c2542+ Fri, 06 Jul 2018 19:26:36 +0100
REM compiler GCC version 9.2.1 20190827 (Red Hat 9.2.1-1)
REM options -cpp -mtune=generic -march=x86-64 -g -O0 -fpre-include=/usr/include/finclude/math-vector-fortran.h
REM seed 647767715 1477129362 -1021827367 -296678274 827810480 751448069 -561186079 517661244 -1526205057 1303947042 -1447204015 -584169345 551431053 -202635104 779596043 203943491 -1047418453 411307677 431567408 1467559831 1828148579 1755666575 1494241094 1463838627 -1798281136 -1228152063 -1282399428 -1370707369 -1244933680 527953338 -1314836998 197051322 -179761236
REM
CELL 1.54180   50.00000   50.00000   50.00000   90.00000   90.00000   90.00000
LATT -1
SFAC C  
C      1  0.4865470000000  0.4616550000000  0.5385830000000 1.0
C      1  0.5385580000000  0.4869670000000  0.4609060000000 1.0
C      1  0.4614770000000  0.5384210000000  0.4864950000000 1.0
C      1  0.5135150000000  0.4615590000000  0.4615510000000 1.0
C      1  0.4867810000000  0.5391990000000  0.4616050000000 1.0
C      1  0.5131540000000  0.5384410000000  0.5392050000000 1.0
C      1  0.4615870000000  0.4870340000000  0.5392420000000 1.0
C      1  0.5384960000000  0.5134820000000  0.5385840000000 1.0
C      1  0.4607790000000  0.5129470000000  0.4614450000000 1.0
C      1  0.5393150000000  0.5385830000000  0.5131930000000 1.0
C      1  0.4615500000000  0.4608050000000  0.5132070000000 1.0
C      1  0.5382820000000  0.4609100000000  0.4870800000000 1.0
C      1  0.4867230000000  0.5385830000000  0.5391190000000 1.0
C      1  0.5385050000000  0.5134120000000  0.4614320000000 1.0
C      1  0.4608890000000  0.4614650000000  0.4867930000000 1.0
C      1  0.5131880000000  0.5384750000000  0.4607750000000 1.0
C      1  0.4870770000000  0.4616910000000  0.4607180000000 1.0
C      1  0.5129890000000  0.4609950000000  0.5386010000000 1.0
C      1  0.4613270000000  0.5134690000000  0.5383790000000 1.0
C      1  0.5391670000000  0.4870400000000  0.5384110000000 1.0
C      1  0.4615650000000  0.4865090000000  0.4614560000000 1.0
C      1  0.5383820000000  0.4616430000000  0.5135220000000 1.0
C      1  0.4607150000000  0.5382880000000  0.5129330000000 1.0
C      1  0.5394330000000  0.5384260000000  0.4867650000000 1.0
END
