TITL C-3201373-1215-506 8.65401522921765 125000 -849.632927589082 0 0 143 (D3) n - 1
REM
REM in /home/nfs/bkarasulu/CARBON/AIRSS/Generating-Clusters/LCBOP/Higher-Symm/SD-CG/FIRE-CG
REM
REM
REM
REM
REM
REM ./C.cell (b20cbc046b6831c77cfcea5457e17084)
REM AIRSS Version 0.9.1 bugfix July 2018 build 013d7b7c2542+ Fri, 06 Jul 2018 19:26:36 +0100
REM compiler GCC version 9.2.1 20190827 (Red Hat 9.2.1-1)
REM options -cpp -mtune=generic -march=x86-64 -g -O0 -fpre-include=/usr/include/finclude/math-vector-fortran.h
REM seed -2060012155 533976734 -1261287598 -1780080930 -1460618660 1486069635 2080507495 -1058581090 453773873 -556173517 105459719 910690335 1792239262 -2111729413 1745560150 -1304326111 -1565118107 -108581080 -1364034691 -1143908459 647138104 -1661361566 -2019489993 1422133905 -661858019 -512556599 1557962509 900634962 1661026551 -1857175400 189743834 -845122077 508683801
REM
CELL 1.54180   50.00000   50.00000   50.00000   90.00000   90.00000   90.00000
LATT -1
SFAC C  
C      1  0.5422920000000  0.3612990000000  0.5107120000000 1.0
C      1  0.3585320000000  0.5327300000000  0.5108260000000 1.0
C      1  0.5988760000000  0.6061540000000  0.5108330000000 1.0
C      1  0.5423010000000  0.6388300000000  0.4906490000000 1.0
C      1  0.3585270000000  0.4674150000000  0.4905830000000 1.0
C      1  0.5988640000000  0.3939700000000  0.4905130000000 1.0
C      1  0.4968440000000  0.5285480000000  0.4281390000000 1.0
C      1  0.5260450000000  0.4885200000000  0.4281140000000 1.0
C      1  0.4767790000000  0.4832450000000  0.4281180000000 1.0
C      1  0.4968600000000  0.4715840000000  0.5732330000000 1.0
C      1  0.5260650000000  0.5116100000000  0.5732510000000 1.0
C      1  0.4767990000000  0.5168900000000  0.5732600000000 1.0
C      1  0.5837900000000  0.5402540000000  0.4916760000000 1.0
C      1  0.4927500000000  0.4073260000000  0.4916180000000 1.0
C      1  0.4231520000000  0.5526330000000  0.4917030000000 1.0
C      1  0.5837890000000  0.4598710000000  0.5096740000000 1.0
C      1  0.4927610000000  0.5928070000000  0.5097560000000 1.0
C      1  0.4231500000000  0.4475060000000  0.5096880000000 1.0
C      1  0.2381350000000  0.4564330000000  0.4364400000000 1.0
C      1  0.5929510000000  0.7486200000000  0.4365470000000 1.0
C      1  0.6685850000000  0.2952480000000  0.4362990000000 1.0
C      1  0.2381560000000  0.5437230000000  0.5650000000000 1.0
C      1  0.5929460000000  0.2515050000000  0.5648000000000 1.0
C      1  0.6686190000000  0.7048700000000  0.5650290000000 1.0
C      1  0.4160920000000  0.5005420000000  0.4750850000000 1.0
C      1  0.5421970000000  0.5724250000000  0.4751070000000 1.0
C      1  0.5413970000000  0.4272730000000  0.4750300000000 1.0
C      1  0.4160980000000  0.4995980000000  0.5263080000000 1.0
C      1  0.5421980000000  0.4277040000000  0.5262540000000 1.0
C      1  0.5414100000000  0.5728560000000  0.5263310000000 1.0
C      1  0.4241040000000  0.4627590000000  0.5614930000000 1.0
C      1  0.5055260000000  0.5843180000000  0.5615460000000 1.0
C      1  0.5700890000000  0.4530250000000  0.5614690000000 1.0
C      1  0.4240920000000  0.5373800000000  0.4398990000000 1.0
C      1  0.5055030000000  0.4158140000000  0.4398240000000 1.0
C      1  0.5700770000000  0.5471010000000  0.4398850000000 1.0
C      1  0.4894650000000  0.5260250000000  0.5273820000000 1.0
C      1  0.5276140000000  0.4961050000000  0.5273610000000 1.0
C      1  0.4826280000000  0.4780270000000  0.5273570000000 1.0
C      1  0.4894560000000  0.4741090000000  0.4739930000000 1.0
C      1  0.5276070000000  0.5040250000000  0.4740040000000 1.0
C      1  0.4826230000000  0.5221070000000  0.4740190000000 1.0
C      1  0.5862970000000  0.4334070000000  0.5204760000000 1.0
C      1  0.3989840000000  0.4585590000000  0.5205130000000 1.0
C      1  0.5144220000000  0.6082010000000  0.5205770000000 1.0
C      1  0.5862980000000  0.5667180000000  0.4808740000000 1.0
C      1  0.3989820000000  0.5415830000000  0.4808850000000 1.0
C      1  0.5144080000000  0.3919300000000  0.4807910000000 1.0
C      1  0.2623220000000  0.5418090000000  0.5542790000000 1.0
C      1  0.6548720000000  0.6849060000000  0.5543030000000 1.0
C      1  0.5825220000000  0.2733990000000  0.5540960000000 1.0
C      1  0.2623040000000  0.4583440000000  0.4471550000000 1.0
C      1  0.6548420000000  0.3152130000000  0.4470280000000 1.0
C      1  0.5825280000000  0.7267260000000  0.4472540000000 1.0
C      1  0.3106280000000  0.4621690000000  0.4685810000000 1.0
C      1  0.5616930000000  0.6829500000000  0.4686650000000 1.0
C      1  0.6273630000000  0.3551310000000  0.4684840000000 1.0
C      1  0.3106400000000  0.5379800000000  0.5328400000000 1.0
C      1  0.5616850000000  0.3171770000000  0.5326910000000 1.0
C      1  0.6273840000000  0.6449900000000  0.5328550000000 1.0
C      1  0.6134940000000  0.3749460000000  0.4793090000000 1.0
C      1  0.3347300000000  0.4642640000000  0.4793930000000 1.0
C      1  0.5514630000000  0.6610220000000  0.4794680000000 1.0
C      1  0.6135110000000  0.6251760000000  0.5220330000000 1.0
C      1  0.3347380000000  0.5358830000000  0.5220220000000 1.0
C      1  0.5514550000000  0.3391060000000  0.5218900000000 1.0
C      1  0.5403790000000  0.5093550000000  0.4464720000000 1.0
C      1  0.4876670000000  0.4604020000000  0.4464530000000 1.0
C      1  0.4716280000000  0.5305280000000  0.4464920000000 1.0
C      1  0.5403920000000  0.4907740000000  0.5548890000000 1.0
C      1  0.4876850000000  0.5397320000000  0.5549220000000 1.0
C      1  0.4716400000000  0.4696070000000  0.5548870000000 1.0
C      1  0.6032010000000  0.7701530000000  0.4260170000000 1.0
C      1  0.6821010000000  0.2756110000000  0.4257460000000 1.0
C      1  0.2143650000000  0.4545530000000  0.4259010000000 1.0
C      1  0.6031970000000  0.2299710000000  0.5753280000000 1.0
C      1  0.6821400000000  0.7245060000000  0.5755780000000 1.0
C      1  0.2143880000000  0.5456040000000  0.5755450000000 1.0
C      1  0.5121170000000  0.5284830000000  0.4851090000000 1.0
C      1  0.5183890000000  0.4752870000000  0.4850800000000 1.0
C      1  0.4691840000000  0.4964530000000  0.4850970000000 1.0
C      1  0.5121180000000  0.4716480000000  0.5162600000000 1.0
C      1  0.5183950000000  0.5248440000000  0.5162870000000 1.0
C      1  0.4691880000000  0.5036820000000  0.5162820000000 1.0
C      1  0.4482830000000  0.5924220000000  0.5144220000000 1.0
C      1  0.6056980000000  0.4985790000000  0.5143520000000 1.0
C      1  0.4457200000000  0.4091760000000  0.5143260000000 1.0
C      1  0.4482720000000  0.4077150000000  0.4869630000000 1.0
C      1  0.6056940000000  0.5015440000000  0.4869920000000 1.0
C      1  0.4457240000000  0.5909620000000  0.4870600000000 1.0
C      1  0.4482090000000  0.4500050000000  0.5515040000000 1.0
C      1  0.4824220000000  0.5698270000000  0.5515620000000 1.0
C      1  0.5690840000000  0.4802860000000  0.5515040000000 1.0
C      1  0.4482000000000  0.5501320000000  0.4498820000000 1.0
C      1  0.4824030000000  0.4303070000000  0.4498140000000 1.0
C      1  0.5690730000000  0.5198400000000  0.4498500000000 1.0
C      1  0.4578280000000  0.4968140000000  0.5651440000000 1.0
C      1  0.5181600000000  0.5380830000000  0.5651580000000 1.0
C      1  0.5237330000000  0.4652000000000  0.5651190000000 1.0
C      1  0.4578120000000  0.5033220000000  0.4362390000000 1.0
C      1  0.5181390000000  0.4620480000000  0.4362090000000 1.0
C      1  0.5237200000000  0.5349310000000  0.4362470000000 1.0
C      1  0.4351780000000  0.5410390000000  0.5144500000000 1.0
C      1  0.5677510000000  0.5356200000000  0.5144300000000 1.0
C      1  0.4967720000000  0.4235180000000  0.5143800000000 1.0
C      1  0.4351710000000  0.4590990000000  0.4869390000000 1.0
C      1  0.5677450000000  0.4645060000000  0.4869240000000 1.0
C      1  0.4967750000000  0.5766150000000  0.4869930000000 1.0
C      1  0.6411290000000  0.6649470000000  0.5435800000000 1.0
C      1  0.5721020000000  0.2952880000000  0.5433940000000 1.0
C      1  0.2864810000000  0.5398960000000  0.5435600000000 1.0
C      1  0.6411030000000  0.3351730000000  0.4577550000000 1.0
C      1  0.5721090000000  0.7048390000000  0.4579590000000 1.0
C      1  0.2864670000000  0.4602550000000  0.4578670000000 1.0
C      1  0.5813370000000  0.4113800000000  0.5027390000000 1.0
C      1  0.3823770000000  0.4738800000000  0.5027980000000 1.0
C      1  0.5359830000000  0.6149350000000  0.5028520000000 1.0
C      1  0.5813440000000  0.5887450000000  0.4986110000000 1.0
C      1  0.3823780000000  0.5262620000000  0.4986040000000 1.0
C      1  0.5359730000000  0.3851950000000  0.4985100000000 1.0
C      1  0.4086380000000  0.5239010000000  0.4592140000000 1.0
C      1  0.5661430000000  0.5672110000000  0.4592170000000 1.0
C      1  0.5248990000000  0.4091530000000  0.4591390000000 1.0
C      1  0.4086470000000  0.4762400000000  0.5421810000000 1.0
C      1  0.5661480000000  0.4329160000000  0.5421380000000 1.0
C      1  0.5249170000000  0.5909780000000  0.5422260000000 1.0
C      1  0.4717320000000  0.5840650000000  0.5281800000000 1.0
C      1  0.5867450000000  0.4824420000000  0.5281110000000 1.0
C      1  0.4412300000000  0.4336490000000  0.5281040000000 1.0
C      1  0.4717170000000  0.4160700000000  0.4732000000000 1.0
C      1  0.5867390000000  0.5176830000000  0.4732380000000 1.0
C      1  0.4412290000000  0.5664890000000  0.4732830000000 1.0
C      1  0.5420150000000  0.4557940000000  0.4786070000000 1.0
C      1  0.4404850000000  0.4857430000000  0.4786360000000 1.0
C      1  0.5171870000000  0.5586970000000  0.4786640000000 1.0
C      1  0.5420250000000  0.5443350000000  0.5227540000000 1.0
C      1  0.4404920000000  0.5143940000000  0.5227520000000 1.0
C      1  0.5171880000000  0.4414340000000  0.5227030000000 1.0
C      1  0.3975880000000  0.5000710000000  0.5006990000000 1.0
C      1  0.5510580000000  0.5886670000000  0.5007260000000 1.0
C      1  0.5510500000000  0.4114610000000  0.5006330000000 1.0
C      1  0.4999090000000  0.5000230000000  0.5824220000000 1.0
C      1  0.4998880000000  0.5001090000000  0.4189500000000 1.0
END
