TITL C-3201376-6384-241 3.46445136742978e-06 125000 -614.829181080494 0 0 104 (C1) n - 1
REM
REM in /home/nfs/bkarasulu/CARBON/AIRSS/Generating-Clusters/LCBOP/Higher-Symm/SD-CG/FIRE-CG
REM
REM
REM
REM
REM
REM ./C.cell (b20cbc046b6831c77cfcea5457e17084)
REM AIRSS Version 0.9.1 bugfix July 2018 build 013d7b7c2542+ Fri, 06 Jul 2018 19:26:36 +0100
REM compiler GCC version 9.2.1 20190827 (Red Hat 9.2.1-1)
REM options -cpp -mtune=generic -march=x86-64 -g -O0 -fpre-include=/usr/include/finclude/math-vector-fortran.h
REM seed -1966022379 393753008 1879912687 2036560918 567822001 1323389424 -1102862271 -900369127 1728101385 -55306146 8306302 879867062 1937118274 -1466223965 1562872098 -1187935332 2032923546 -1123816607 336915164 235655458 -1846074662 1676755858 -277762336 2102677864 1764088710 1558359788 468710176 -1808861941 1366823524 1053889963 -1338029624 2082465692 961468153
REM
CELL 1.54180   50.00000   50.00000   50.00000   90.00000   90.00000   90.00000
LATT -1
SFAC C  
C      1  0.4390530000000  0.4696730000000  0.4761880000000 1.0
C      1  0.4374390000000  0.4630090000000  0.5238660000000 1.0
C      1  0.4409520000000  0.5083310000000  0.5414530000000 1.0
C      1  0.4479590000000  0.5372630000000  0.5030250000000 1.0
C      1  0.4400560000000  0.5145910000000  0.4622350000000 1.0
C      1  0.4725880000000  0.5653070000000  0.5443590000000 1.0
C      1  0.4717890000000  0.5610010000000  0.4470080000000 1.0
C      1  0.4649860000000  0.4677720000000  0.4241980000000 1.0
C      1  0.4624460000000  0.4161290000000  0.5048630000000 1.0
C      1  0.4689120000000  0.4760570000000  0.5792220000000 1.0
C      1  0.5751310000000  0.5248930000000  0.5753590000000 1.0
C      1  0.5758610000000  0.5840240000000  0.5026010000000 1.0
C      1  0.5762440000000  0.5288940000000  0.4229660000000 1.0
C      1  0.5792210000000  0.4474710000000  0.4561390000000 1.0
C      1  0.5664410000000  0.4389420000000  0.5466100000000 1.0
C      1  0.4953920000000  0.5012290000000  0.4490310000000 1.0
C      1  0.4936180000000  0.4493550000000  0.4799390000000 1.0
C      1  0.4958610000000  0.4600520000000  0.5378640000000 1.0
C      1  0.4986370000000  0.5200310000000  0.5425000000000 1.0
C      1  0.5037940000000  0.5517550000000  0.4872470000000 1.0
C      1  0.5024500000000  0.4506600000000  0.4501830000000 1.0
C      1  0.5017620000000  0.4319350000000  0.5273940000000 1.0
C      1  0.5072570000000  0.5020170000000  0.5658410000000 1.0
C      1  0.5087690000000  0.5657260000000  0.5147080000000 1.0
C      1  0.5078890000000  0.5281360000000  0.4406190000000 1.0
C      1  0.5781600000000  0.5402080000000  0.4490430000000 1.0
C      1  0.5922780000000  0.4729220000000  0.4572320000000 1.0
C      1  0.5713850000000  0.4477730000000  0.5199590000000 1.0
C      1  0.5849930000000  0.5021990000000  0.5612110000000 1.0
C      1  0.5866570000000  0.5631400000000  0.5187510000000 1.0
C      1  0.4548070000000  0.5746820000000  0.4671060000000 1.0
C      1  0.4473080000000  0.4903570000000  0.4171810000000 1.0
C      1  0.4439320000000  0.4178430000000  0.4822840000000 1.0
C      1  0.4485860000000  0.4557220000000  0.5729770000000 1.0
C      1  0.4541920000000  0.5531550000000  0.5633640000000 1.0
C      1  0.4020200000000  0.5212130000000  0.5175840000000 1.0
C      1  0.4018070000000  0.5233420000000  0.4886180000000 1.0
C      1  0.3988530000000  0.4961710000000  0.4776000000000 1.0
C      1  0.3977050000000  0.4773460000000  0.5000830000000 1.0
C      1  0.3991270000000  0.4927830000000  0.5251110000000 1.0
C      1  0.5850580000000  0.5502080000000  0.5684120000000 1.0
C      1  0.5831350000000  0.5842430000000  0.4754050000000 1.0
C      1  0.5931770000000  0.5069410000000  0.4182270000000 1.0
C      1  0.5869650000000  0.4287440000000  0.4756240000000 1.0
C      1  0.5792480000000  0.4522090000000  0.5676290000000 1.0
C      1  0.5719050000000  0.5229340000000  0.4697480000000 1.0
C      1  0.5931970000000  0.4869410000000  0.4815620000000 1.0
C      1  0.5639230000000  0.4729680000000  0.5106020000000 1.0
C      1  0.5852860000000  0.5031350000000  0.5336090000000 1.0
C      1  0.5875920000000  0.5378570000000  0.5075270000000 1.0
C      1  0.4970880000000  0.5512580000000  0.5378410000000 1.0
C      1  0.4978700000000  0.5516790000000  0.4560270000000 1.0
C      1  0.4907740000000  0.4735420000000  0.4357530000000 1.0
C      1  0.4887770000000  0.4275640000000  0.5014330000000 1.0
C      1  0.4941380000000  0.4756940000000  0.5648150000000 1.0
C      1  0.4279320000000  0.5326180000000  0.5283040000000 1.0
C      1  0.4276940000000  0.5360870000000  0.4788900000000 1.0
C      1  0.4223690000000  0.4899270000000  0.4595340000000 1.0
C      1  0.4206540000000  0.4574550000000  0.4986920000000 1.0
C      1  0.4226590000000  0.4835580000000  0.5422670000000 1.0
C      1  0.5148170000000  0.5065930000000  0.5195010000000 1.0
C      1  0.5308120000000  0.5369270000000  0.4869220000000 1.0
C      1  0.5062820000000  0.4937800000000  0.4758600000000 1.0
C      1  0.5138920000000  0.4695690000000  0.4908370000000 1.0
C      1  0.5159880000000  0.4757680000000  0.5198150000000 1.0
C      1  0.4189570000000  0.4290290000000  0.4907750000000 1.0
C      1  0.4232560000000  0.4686210000000  0.5679070000000 1.0
C      1  0.4285740000000  0.5521470000000  0.5504340000000 1.0
C      1  0.4285950000000  0.5631370000000  0.4672050000000 1.0
C      1  0.4217980000000  0.4864510000000  0.4301540000000 1.0
C      1  0.5837110000000  0.5670300000000  0.4548710000000 1.0
C      1  0.5995210000000  0.4856150000000  0.4332130000000 1.0
C      1  0.5834660000000  0.4297690000000  0.5021180000000 1.0
C      1  0.5872740000000  0.4770540000000  0.5734310000000 1.0
C      1  0.5896270000000  0.5650620000000  0.5466020000000 1.0
C      1  0.4506820000000  0.4240950000000  0.4545460000000 1.0
C      1  0.4524850000000  0.4307050000000  0.5576290000000 1.0
C      1  0.4595570000000  0.5308290000000  0.5817030000000 1.0
C      1  0.4619330000000  0.5851980000000  0.4936980000000 1.0
C      1  0.4549030000000  0.5190260000000  0.4136920000000 1.0
C      1  0.4635690000000  0.5819530000000  0.5212540000000 1.0
C      1  0.4605460000000  0.5441890000000  0.4246960000000 1.0
C      1  0.4542800000000  0.4420280000000  0.4339130000000 1.0
C      1  0.4537540000000  0.4169190000000  0.5334500000000 1.0
C      1  0.4613960000000  0.5037420000000  0.5874450000000 1.0
C      1  0.4783110000000  0.5348760000000  0.4958860000000 1.0
C      1  0.4669090000000  0.5106690000000  0.4559500000000 1.0
C      1  0.4645340000000  0.4692880000000  0.4811570000000 1.0
C      1  0.4667130000000  0.4648710000000  0.5255470000000 1.0
C      1  0.4688700000000  0.5082200000000  0.5357540000000 1.0
C      1  0.5504630000000  0.5214980000000  0.5882020000000 1.0
C      1  0.5515080000000  0.5951610000000  0.5109440000000 1.0
C      1  0.5511180000000  0.5312330000000  0.4107840000000 1.0
C      1  0.5545920000000  0.4434990000000  0.4431960000000 1.0
C      1  0.5458020000000  0.4203640000000  0.5500490000000 1.0
C      1  0.5265920000000  0.5871980000000  0.5162490000000 1.0
C      1  0.5258430000000  0.5303130000000  0.4193160000000 1.0
C      1  0.5279690000000  0.4413960000000  0.4426870000000 1.0
C      1  0.5211210000000  0.4167240000000  0.5404870000000 1.0
C      1  0.5263220000000  0.5110050000000  0.5840640000000 1.0
C      1  0.5710820000000  0.5070770000000  0.5017860000000 1.0
C      1  0.5399790000000  0.5177480000000  0.5065210000000 1.0
C      1  0.4916130000000  0.5079840000000  0.4975720000000 1.0
C      1  0.4718670000000  0.4908270000000  0.5106220000000 1.0
END
