TITL C-3201377-4638-1119 -7.40909915826995e-07 125000 -874.756963123467 0 0 140 (Cs) n - 1
REM
REM in /home/nfs/bkarasulu/CARBON/AIRSS/Generating-Clusters/LCBOP/Higher-Symm/SD-CG/FIRE-CG
REM
REM
REM
REM
REM
REM ./C.cell (b20cbc046b6831c77cfcea5457e17084)
REM AIRSS Version 0.9.1 bugfix July 2018 build 013d7b7c2542+ Fri, 06 Jul 2018 19:26:36 +0100
REM compiler GCC version 9.2.1 20190827 (Red Hat 9.2.1-1)
REM options -cpp -mtune=generic -march=x86-64 -g -O0 -fpre-include=/usr/include/finclude/math-vector-fortran.h
REM seed -10862838 1129553911 1248550194 -285673051 -1829009231 -332473136 -516101110 -438286223 -2023089260 -1306528783 -404887108 -1882861565 -820556490 -860469748 -632083930 -209633567 -1260067982 1657108261 2041805876 -764796639 403456592 -1651629850 1383231345 817214705 165374934 774437205 474636798 -1332243323 -1395116899 449907956 -445621842 838952251 -2136996910
REM
CELL 1.54180   50.00000   50.00000   50.00000   90.00000   90.00000   90.00000
LATT -1
SFAC C  
C      1  0.4512630000000  0.4578220000000  0.4707530000000 1.0
C      1  0.4392990000000  0.4769890000000  0.4269190000000 1.0
C      1  0.4729660000000  0.4405170000000  0.4307360000000 1.0
C      1  0.5718670000000  0.5700340000000  0.4731110000000 1.0
C      1  0.4201100000000  0.5613370000000  0.5283850000000 1.0
C      1  0.5623440000000  0.4269420000000  0.5289820000000 1.0
C      1  0.5623370000000  0.5270540000000  0.4522200000000 1.0
C      1  0.4316140000000  0.5321390000000  0.5677130000000 1.0
C      1  0.5574650000000  0.4686120000000  0.5540870000000 1.0
C      1  0.5253480000000  0.5573090000000  0.4588330000000 1.0
C      1  0.4664490000000  0.5557080000000  0.5434990000000 1.0
C      1  0.5284840000000  0.4298150000000  0.5657170000000 1.0
C      1  0.4512870000000  0.4577810000000  0.5297690000000 1.0
C      1  0.4393580000000  0.4768860000000  0.5736390000000 1.0
C      1  0.4730220000000  0.4404200000000  0.5697440000000 1.0
C      1  0.5718880000000  0.5699960000000  0.5274710000000 1.0
C      1  0.4200880000000  0.5613760000000  0.4723060000000 1.0
C      1  0.5623210000000  0.4269830000000  0.4714080000000 1.0
C      1  0.5623760000000  0.5269870000000  0.5483100000000 1.0
C      1  0.4315600000000  0.5322330000000  0.4329280000000 1.0
C      1  0.5574220000000  0.4686880000000  0.4463650000000 1.0
C      1  0.5253810000000  0.5572510000000  0.5417680000000 1.0
C      1  0.4664140000000  0.5557680000000  0.4571470000000 1.0
C      1  0.5284310000000  0.4299060000000  0.4347040000000 1.0
C      1  0.4826410000000  0.5336870000000  0.5363590000000 1.0
C      1  0.5631590000000  0.5934040000000  0.4867140000000 1.0
C      1  0.5628210000000  0.4822920000000  0.5298820000000 1.0
C      1  0.5176890000000  0.4440030000000  0.5877980000000 1.0
C      1  0.4911640000000  0.4495340000000  0.4110440000000 1.0
C      1  0.5094780000000  0.5345080000000  0.4645950000000 1.0
C      1  0.4731710000000  0.4658100000000  0.4867680000000 1.0
C      1  0.5469820000000  0.4088220000000  0.5136690000000 1.0
C      1  0.4261790000000  0.5851040000000  0.5139380000000 1.0
C      1  0.4104120000000  0.5137370000000  0.5635710000000 1.0
C      1  0.5664750000000  0.5087570000000  0.4731890000000 1.0
C      1  0.4140950000000  0.4870230000000  0.4352700000000 1.0
C      1  0.4826130000000  0.5337370000000  0.4642430000000 1.0
C      1  0.5631700000000  0.5933850000000  0.5139080000000 1.0
C      1  0.5627970000000  0.4823330000000  0.4705840000000 1.0
C      1  0.5176190000000  0.4441260000000  0.4126510000000 1.0
C      1  0.4912360000000  0.4494100000000  0.5894350000000 1.0
C      1  0.5095070000000  0.5344580000000  0.5359870000000 1.0
C      1  0.4731820000000  0.4657910000000  0.5137480000000 1.0
C      1  0.5469710000000  0.4088400000000  0.4867080000000 1.0
C      1  0.4261690000000  0.5851230000000  0.4867820000000 1.0
C      1  0.4103610000000  0.5138250000000  0.4370610000000 1.0
C      1  0.5664970000000  0.5087190000000  0.5273110000000 1.0
C      1  0.4141470000000  0.4869320000000  0.5653230000000 1.0
C      1  0.3795990000000  0.5314210000000  0.5280800000000 1.0
C      1  0.5590860000000  0.5318450000000  0.4037080000000 1.0
C      1  0.5174830000000  0.3843810000000  0.5466510000000 1.0
C      1  0.6081370000000  0.4469740000000  0.5282470000000 1.0
C      1  0.4028960000000  0.4477040000000  0.4725700000000 1.0
C      1  0.6150560000000  0.5440200000000  0.4719600000000 1.0
C      1  0.4635050000000  0.4856020000000  0.3839170000000 1.0
C      1  0.5529680000000  0.4767900000000  0.6034660000000 1.0
C      1  0.4679170000000  0.5398210000000  0.6020490000000 1.0
C      1  0.4670980000000  0.6050920000000  0.5428740000000 1.0
C      1  0.5220680000000  0.6067960000000  0.4577240000000 1.0
C      1  0.4630020000000  0.3984100000000  0.4551720000000 1.0
C      1  0.3795770000000  0.5314600000000  0.4726010000000 1.0
C      1  0.5591630000000  0.5317100000000  0.5968300000000 1.0
C      1  0.5174460000000  0.3844460000000  0.4537150000000 1.0
C      1  0.6081140000000  0.4470130000000  0.4721340000000 1.0
C      1  0.4029180000000  0.4476660000000  0.5279760000000 1.0
C      1  0.6150790000000  0.5439800000000  0.5285510000000 1.0
C      1  0.4635980000000  0.4854400000000  0.6166340000000 1.0
C      1  0.5528860000000  0.4769340000000  0.3970010000000 1.0
C      1  0.4678350000000  0.5399630000000  0.3985740000000 1.0
C      1  0.4670640000000  0.6051520000000  0.4578400000000 1.0
C      1  0.5221020000000  0.6067370000000  0.5429490000000 1.0
C      1  0.4630380000000  0.3983470000000  0.5452570000000 1.0
C      1  0.6313700000000  0.5231330000000  0.4766240000000 1.0
C      1  0.5397860000000  0.4858310000000  0.6251890000000 1.0
C      1  0.4703840000000  0.6278010000000  0.5286930000000 1.0
C      1  0.3774840000000  0.4556750000000  0.4767530000000 1.0
C      1  0.6271700000000  0.4654510000000  0.5237740000000 1.0
C      1  0.3631080000000  0.5105610000000  0.5238600000000 1.0
C      1  0.4881780000000  0.5377300000000  0.6196400000000 1.0
C      1  0.5450090000000  0.5324850000000  0.3807930000000 1.0
C      1  0.4833390000000  0.4929550000000  0.3673210000000 1.0
C      1  0.5084880000000  0.3659060000000  0.5292310000000 1.0
C      1  0.4627790000000  0.3776160000000  0.4721770000000 1.0
C      1  0.5173420000000  0.6292870000000  0.4718790000000 1.0
C      1  0.6313890000000  0.5231000000000  0.5238450000000 1.0
C      1  0.5396860000000  0.4860060000000  0.3753010000000 1.0
C      1  0.4703610000000  0.6278410000000  0.4720510000000 1.0
C      1  0.3775030000000  0.4556420000000  0.5238250000000 1.0
C      1  0.6271520000000  0.4654830000000  0.4766180000000 1.0
C      1  0.3630890000000  0.5105940000000  0.4768060000000 1.0
C      1  0.4880820000000  0.5378960000000  0.3809640000000 1.0
C      1  0.5451050000000  0.5323180000000  0.6197580000000 1.0
C      1  0.4834450000000  0.4927700000000  0.6332240000000 1.0
C      1  0.5084650000000  0.3659460000000  0.4711170000000 1.0
C      1  0.4628020000000  0.3775760000000  0.5282240000000 1.0
C      1  0.5173640000000  0.6292480000000  0.5288290000000 1.0
C      1  0.4001500000000  0.5454980000000  0.5150020000000 1.0
C      1  0.5613130000000  0.5151430000000  0.4263190000000 1.0
C      1  0.5100150000000  0.4098820000000  0.5559880000000 1.0
C      1  0.5859820000000  0.4357620000000  0.5149160000000 1.0
C      1  0.4278140000000  0.4504200000000  0.4855990000000 1.0
C      1  0.5949720000000  0.5581110000000  0.4856610000000 1.0
C      1  0.4517870000000  0.4944700000000  0.4078590000000 1.0
C      1  0.5583380000000  0.4858880000000  0.5772690000000 1.0
C      1  0.4505020000000  0.5231160000000  0.5875700000000 1.0
C      1  0.4806930000000  0.5805080000000  0.5460530000000 1.0
C      1  0.5100850000000  0.5813410000000  0.4549670000000 1.0
C      1  0.4813480000000  0.4162030000000  0.4434780000000 1.0
C      1  0.4001380000000  0.5455180000000  0.4856830000000 1.0
C      1  0.5613720000000  0.5150400000000  0.5741950000000 1.0
C      1  0.5099700000000  0.4099600000000  0.4444200000000 1.0
C      1  0.5859700000000  0.4357830000000  0.4854670000000 1.0
C      1  0.4278260000000  0.4504000000000  0.5149310000000 1.0
C      1  0.5949840000000  0.5580910000000  0.5148860000000 1.0
C      1  0.4518610000000  0.4943410000000  0.5927130000000 1.0
C      1  0.5582760000000  0.4859950000000  0.4232070000000 1.0
C      1  0.4504320000000  0.5232380000000  0.4130440000000 1.0
C      1  0.4806560000000  0.5805710000000  0.4546160000000 1.0
C      1  0.5101220000000  0.5812780000000  0.5456800000000 1.0
C      1  0.4813930000000  0.4161240000000  0.5569620000000 1.0
C      1  0.5285960000000  0.5117240000000  0.3708040000000 1.0
C      1  0.4844510000000  0.3657720000000  0.5142970000000 1.0
C      1  0.3602110000000  0.4950630000000  0.5003230000000 1.0
C      1  0.5006110000000  0.5152460000000  0.3693980000000 1.0
C      1  0.5287000000000  0.5115430000000  0.6297310000000 1.0
C      1  0.5007160000000  0.5150630000000  0.6311640000000 1.0
C      1  0.4936970000000  0.6356370000000  0.5145520000000 1.0
C      1  0.4936860000000  0.6356560000000  0.4861840000000 1.0
C      1  0.4844390000000  0.3657920000000  0.4860700000000 1.0
C      1  0.6332860000000  0.4798820000000  0.5002030000000 1.0
C      1  0.3671590000000  0.4676210000000  0.5003010000000 1.0
C      1  0.6353490000000  0.5080000000000  0.5002220000000 1.0
C      1  0.5506270000000  0.4407930000000  0.5512930000000 1.0
C      1  0.4385510000000  0.5512600000000  0.5477160000000 1.0
C      1  0.5536400000000  0.5534240000000  0.4588390000000 1.0
C      1  0.4385130000000  0.5513260000000  0.4529470000000 1.0
C      1  0.5505860000000  0.4408640000000  0.4491250000000 1.0
C      1  0.4534820000000  0.4575610000000  0.5582600000000 1.0
C      1  0.4534360000000  0.4576420000000  0.4422600000000 1.0
C      1  0.5536730000000  0.5533660000000  0.5417340000000 1.0
END
