TITL C-3201373-1215-2187 0.00914520276759475 125000 -810.797106109614 0 0 132 (C1) n - 1
REM
REM in /home/nfs/bkarasulu/CARBON/AIRSS/Generating-Clusters/LCBOP/Higher-Symm/SD-CG/FIRE-CG
REM
REM
REM
REM
REM
REM ./C.cell (b20cbc046b6831c77cfcea5457e17084)
REM AIRSS Version 0.9.1 bugfix July 2018 build 013d7b7c2542+ Fri, 06 Jul 2018 19:26:36 +0100
REM compiler GCC version 9.2.1 20190827 (Red Hat 9.2.1-1)
REM options -cpp -mtune=generic -march=x86-64 -g -O0 -fpre-include=/usr/include/finclude/math-vector-fortran.h
REM seed -1452739857 1007247545 534325468 -1618197734 1169734216 1423271258 -628147015 -1760912136 120465362 -944390766 -628225453 -2013928948 -1271461342 -1396808018 -899490985 -908013504 -843814813 -733225510 511771418 418769169 1049364695 -1130242854 706734784 -744395015 -1941007811 708763327 -1585299457 -365042799 1264305186 1853573678 185330143 -868351666 -920283033
REM
CELL 1.54180   50.00000   50.00000   50.00000   90.00000   90.00000   90.00000
LATT -1
SFAC C  
C      1  0.4173890000000  0.5455310000000  0.3997190000000 1.0
C      1  0.4639570000000  0.5049250000000  0.5556000000000 1.0
C      1  0.4517480000000  0.4664990000000  0.4788860000000 1.0
C      1  0.5597050000000  0.5958630000000  0.4377770000000 1.0
C      1  0.5803200000000  0.5050290000000  0.6094160000000 1.0
C      1  0.5578470000000  0.4027200000000  0.4488380000000 1.0
C      1  0.5975010000000  0.4679340000000  0.5477110000000 1.0
C      1  0.5817560000000  0.4726820000000  0.4402510000000 1.0
C      1  0.5896760000000  0.5637340000000  0.4983920000000 1.0
C      1  0.4020520000000  0.4713720000000  0.3962190000000 1.0
C      1  0.3981100000000  0.5356590000000  0.5252290000000 1.0
C      1  0.4048180000000  0.4541820000000  0.5640390000000 1.0
C      1  0.4293050000000  0.4636090000000  0.4952580000000 1.0
C      1  0.4030130000000  0.5534430000000  0.3765850000000 1.0
C      1  0.4515860000000  0.4967770000000  0.5322510000000 1.0
C      1  0.4212710000000  0.5258030000000  0.5674930000000 1.0
C      1  0.4076980000000  0.4215680000000  0.5275640000000 1.0
C      1  0.4589010000000  0.5589020000000  0.3748590000000 1.0
C      1  0.4601360000000  0.4188750000000  0.4210920000000 1.0
C      1  0.4529350000000  0.6077450000000  0.4873110000000 1.0
C      1  0.4814050000000  0.4604280000000  0.6238080000000 1.0
C      1  0.4958050000000  0.4649540000000  0.5306230000000 1.0
C      1  0.4890440000000  0.5010200000000  0.4660930000000 1.0
C      1  0.4924090000000  0.5388490000000  0.5229650000000 1.0
C      1  0.5143050000000  0.3916580000000  0.4728180000000 1.0
C      1  0.5107230000000  0.5862430000000  0.4255140000000 1.0
C      1  0.5334740000000  0.5236540000000  0.6163950000000 1.0
C      1  0.4328130000000  0.4098970000000  0.5224660000000 1.0
C      1  0.4460310000000  0.5491690000000  0.3987920000000 1.0
C      1  0.4496450000000  0.5247670000000  0.5706550000000 1.0
C      1  0.5030820000000  0.4091870000000  0.5438820000000 1.0
C      1  0.4905250000000  0.5053960000000  0.4079280000000 1.0
C      1  0.5025910000000  0.5784430000000  0.5658700000000 1.0
C      1  0.5941960000000  0.5861390000000  0.5678920000000 1.0
C      1  0.5960930000000  0.3966400000000  0.5312140000000 1.0
C      1  0.5702250000000  0.5193570000000  0.3874690000000 1.0
C      1  0.4793970000000  0.6113210000000  0.4904150000000 1.0
C      1  0.5071450000000  0.4590970000000  0.6160180000000 1.0
C      1  0.4868570000000  0.4221290000000  0.4221280000000 1.0
C      1  0.5013010000000  0.4405040000000  0.4382030000000 1.0
C      1  0.5011300000000  0.5933050000000  0.4924690000000 1.0
C      1  0.5188470000000  0.4661130000000  0.5911090000000 1.0
C      1  0.4158030000000  0.4696140000000  0.5191740000000 1.0
C      1  0.4147880000000  0.5633470000000  0.3543050000000 1.0
C      1  0.4235440000000  0.4945010000000  0.5301330000000 1.0
C      1  0.5775770000000  0.5950660000000  0.4580600000000 1.0
C      1  0.5951730000000  0.4867760000000  0.5962900000000 1.0
C      1  0.5718380000000  0.4215930000000  0.4356090000000 1.0
C      1  0.4483750000000  0.4628980000000  0.5884190000000 1.0
C      1  0.4358540000000  0.4579920000000  0.4359880000000 1.0
C      1  0.4316860000000  0.5687250000000  0.5062070000000 1.0
C      1  0.5603500000000  0.4757830000000  0.4821760000000 1.0
C      1  0.5596870000000  0.5292600000000  0.4863740000000 1.0
C      1  0.5660840000000  0.4984530000000  0.5295470000000 1.0
C      1  0.4740920000000  0.5538170000000  0.5380360000000 1.0
C      1  0.4767350000000  0.4473080000000  0.5419480000000 1.0
C      1  0.4666030000000  0.5000560000000  0.4482980000000 1.0
C      1  0.4766570000000  0.4539270000000  0.4814010000000 1.0
C      1  0.4046470000000  0.5350260000000  0.4214760000000 1.0
C      1  0.4884220000000  0.4961060000000  0.5652490000000 1.0
C      1  0.5264130000000  0.4442090000000  0.5744910000000 1.0
C      1  0.5122600000000  0.4626000000000  0.4246730000000 1.0
C      1  0.5144650000000  0.5926710000000  0.5174970000000 1.0
C      1  0.5089160000000  0.5154250000000  0.6042620000000 1.0
C      1  0.4916500000000  0.4088370000000  0.4757830000000 1.0
C      1  0.4911070000000  0.5777700000000  0.4448480000000 1.0
C      1  0.5381570000000  0.5790610000000  0.4304030000000 1.0
C      1  0.5584490000000  0.5215440000000  0.6027170000000 1.0
C      1  0.5409390000000  0.4021040000000  0.4714740000000 1.0
C      1  0.4049010000000  0.5344720000000  0.5876020000000 1.0
C      1  0.3846080000000  0.4074030000000  0.5238860000000 1.0
C      1  0.4860320000000  0.5609530000000  0.3725310000000 1.0
C      1  0.4988620000000  0.4377710000000  0.4686400000000 1.0
C      1  0.5041590000000  0.5746130000000  0.4708000000000 1.0
C      1  0.5135090000000  0.4948820000000  0.5815140000000 1.0
C      1  0.5779460000000  0.5391360000000  0.5057710000000 1.0
C      1  0.5818350000000  0.4752160000000  0.5254960000000 1.0
C      1  0.5724540000000  0.4897220000000  0.4606990000000 1.0
C      1  0.5574700000000  0.5325920000000  0.4384730000000 1.0
C      1  0.5721100000000  0.5379830000000  0.5562420000000 1.0
C      1  0.5672140000000  0.4326650000000  0.5027260000000 1.0
C      1  0.5802540000000  0.4469130000000  0.4326260000000 1.0
C      1  0.5879070000000  0.5832410000000  0.4798890000000 1.0
C      1  0.6010400000000  0.4734190000000  0.5737770000000 1.0
C      1  0.4417170000000  0.5660400000000  0.3534450000000 1.0
C      1  0.4103440000000  0.5167820000000  0.5421110000000 1.0
C      1  0.4068450000000  0.4487010000000  0.5364400000000 1.0
C      1  0.4393940000000  0.5832790000000  0.4831200000000 1.0
C      1  0.4609930000000  0.4754140000000  0.6111100000000 1.0
C      1  0.4428460000000  0.4298940000000  0.4407240000000 1.0
C      1  0.5736670000000  0.4605370000000  0.5026360000000 1.0
C      1  0.5665710000000  0.5175320000000  0.4609810000000 1.0
C      1  0.5757140000000  0.5255720000000  0.5306820000000 1.0
C      1  0.5824350000000  0.4138840000000  0.5164530000000 1.0
C      1  0.5652860000000  0.5266790000000  0.4124450000000 1.0
C      1  0.5842130000000  0.5621160000000  0.5628920000000 1.0
C      1  0.5329100000000  0.5381960000000  0.4895620000000 1.0
C      1  0.5397760000000  0.4938750000000  0.5392800000000 1.0
C      1  0.5322210000000  0.4723960000000  0.4801340000000 1.0
C      1  0.4707440000000  0.5162310000000  0.4250620000000 1.0
C      1  0.4818240000000  0.5592240000000  0.5656290000000 1.0
C      1  0.4792550000000  0.4200270000000  0.5326460000000 1.0
C      1  0.5150910000000  0.5335130000000  0.5103210000000 1.0
C      1  0.5190920000000  0.4780400000000  0.5289590000000 1.0
C      1  0.5127960000000  0.4918130000000  0.4743340000000 1.0
C      1  0.4616310000000  0.5430910000000  0.4218870000000 1.0
C      1  0.4697730000000  0.5408790000000  0.5844330000000 1.0
C      1  0.4597240000000  0.4100590000000  0.5138930000000 1.0
C      1  0.4445460000000  0.4158720000000  0.4659410000000 1.0
C      1  0.4451400000000  0.5705140000000  0.4587300000000 1.0
C      1  0.4633630000000  0.5036260000000  0.6151760000000 1.0
C      1  0.5207170000000  0.4219800000000  0.5602290000000 1.0
C      1  0.5074360000000  0.4846720000000  0.4103510000000 1.0
C      1  0.5145150000000  0.5899340000000  0.5443250000000 1.0
C      1  0.4070480000000  0.5559370000000  0.5100990000000 1.0
C      1  0.4205630000000  0.4605730000000  0.5848280000000 1.0
C      1  0.4177430000000  0.4651580000000  0.4160760000000 1.0
C      1  0.4661460000000  0.5641420000000  0.4408830000000 1.0
C      1  0.4813450000000  0.5242570000000  0.6057110000000 1.0
C      1  0.4645020000000  0.4074380000000  0.4853730000000 1.0
C      1  0.6037730000000  0.6099910000000  0.5722450000000 1.0
C      1  0.6094870000000  0.3800160000000  0.5461730000000 1.0
C      1  0.5744880000000  0.5113010000000  0.3630460000000 1.0
C      1  0.5439590000000  0.4254120000000  0.4879230000000 1.0
C      1  0.5395060000000  0.5538970000000  0.4442290000000 1.0
C      1  0.5549400000000  0.5241740000000  0.5744240000000 1.0
C      1  0.5245950000000  0.5549230000000  0.4688880000000 1.0
C      1  0.5357150000000  0.5055710000000  0.5645220000000 1.0
C      1  0.5245710000000  0.4453420000000  0.4815640000000 1.0
C      1  0.4513640000000  0.5646350000000  0.5259980000000 1.0
C      1  0.4637700000000  0.4525400000000  0.5666340000000 1.0
C      1  0.4485640000000  0.4777520000000  0.4527220000000 1.0
END
