TITL C-3201372-1405-2028 -9.83716312278003e-07 125000 -744.302589091115 0 0 116 (C1) n - 1
REM
REM in /home/nfs/bkarasulu/CARBON/AIRSS/Generating-Clusters/LCBOP/Higher-Symm/SD-CG/FIRE-CG
REM
REM
REM
REM
REM
REM ./C.cell (b20cbc046b6831c77cfcea5457e17084)
REM AIRSS Version 0.9.1 bugfix July 2018 build 013d7b7c2542+ Fri, 06 Jul 2018 19:26:36 +0100
REM compiler GCC version 9.2.1 20190827 (Red Hat 9.2.1-1)
REM options -cpp -mtune=generic -march=x86-64 -g -O0 -fpre-include=/usr/include/finclude/math-vector-fortran.h
REM seed 871954570 1737319598 1325656884 2099110355 1781532936 1146330234 745330752 1122655960 789727617 67134312 -1912990300 -467272776 -749377195 1789106495 1816887370 -208928454 1805835266 525676634 577906800 1017977842 2037685381 789143615 1896130074 550635740 -1971222485 56842352 160558927 1268071096 -46793863 1125737722 741049517 -6442178 -899495271
REM
CELL 1.54180   50.00000   50.00000   50.00000   90.00000   90.00000   90.00000
LATT -1
SFAC C  
C      1  0.4574100000000  0.4686410000000  0.4817040000000 1.0
C      1  0.4510340000000  0.5348770000000  0.5086010000000 1.0
C      1  0.5461500000000  0.4700870000000  0.5201070000000 1.0
C      1  0.5477500000000  0.5342050000000  0.4893360000000 1.0
C      1  0.4557450000000  0.4910890000000  0.4658300000000 1.0
C      1  0.4480100000000  0.5135900000000  0.5264350000000 1.0
C      1  0.5514560000000  0.5131490000000  0.4715330000000 1.0
C      1  0.5446260000000  0.4924830000000  0.5362730000000 1.0
C      1  0.5042990000000  0.5274480000000  0.5710490000000 1.0
C      1  0.5181510000000  0.4774590000000  0.4250150000000 1.0
C      1  0.4948880000000  0.5270470000000  0.4306120000000 1.0
C      1  0.4770000000000  0.4771050000000  0.5685110000000 1.0
C      1  0.5039950000000  0.5668520000000  0.5356640000000 1.0
C      1  0.5178730000000  0.4410230000000  0.4648150000000 1.0
C      1  0.4911600000000  0.4366880000000  0.5338430000000 1.0
C      1  0.4955940000000  0.5678350000000  0.4641290000000 1.0
C      1  0.5292730000000  0.5337360000000  0.5104180000000 1.0
C      1  0.5327840000000  0.4723120000000  0.4956690000000 1.0
C      1  0.4703480000000  0.5340610000000  0.4884260000000 1.0
C      1  0.4714260000000  0.4714390000000  0.5056580000000 1.0
C      1  0.5274140000000  0.5136130000000  0.5299150000000 1.0
C      1  0.5347770000000  0.4908220000000  0.4747830000000 1.0
C      1  0.4664540000000  0.4923680000000  0.5234160000000 1.0
C      1  0.4735900000000  0.5122130000000  0.4711090000000 1.0
C      1  0.5921370000000  0.5487790000000  0.5473570000000 1.0
C      1  0.5321680000000  0.4548100000000  0.4103140000000 1.0
C      1  0.4075520000000  0.5531810000000  0.4509000000000 1.0
C      1  0.4472500000000  0.4582980000000  0.5609660000000 1.0
C      1  0.5253410000000  0.5789380000000  0.5490800000000 1.0
C      1  0.5471730000000  0.4360990000000  0.4587310000000 1.0
C      1  0.4745350000000  0.4146280000000  0.5394860000000 1.0
C      1  0.4748390000000  0.5810010000000  0.4509140000000 1.0
C      1  0.4796130000000  0.5117970000000  0.4104200000000 1.0
C      1  0.4654910000000  0.4986750000000  0.5880460000000 1.0
C      1  0.5165940000000  0.5106610000000  0.5916290000000 1.0
C      1  0.5305020000000  0.5016870000000  0.4084630000000 1.0
C      1  0.4806070000000  0.4027210000000  0.4745600000000 1.0
C      1  0.4666140000000  0.5998630000000  0.5185920000000 1.0
C      1  0.5333600000000  0.5999390000000  0.4817130000000 1.0
C      1  0.5291600000000  0.4027170000000  0.5323930000000 1.0
C      1  0.5972050000000  0.5003100000000  0.5420050000000 1.0
C      1  0.5861980000000  0.4742400000000  0.4576410000000 1.0
C      1  0.4024140000000  0.5043850000000  0.4596930000000 1.0
C      1  0.4057670000000  0.4844510000000  0.5467910000000 1.0
C      1  0.6008540000000  0.5328980000000  0.5020640000000 1.0
C      1  0.5859930000000  0.4446620000000  0.4937540000000 1.0
C      1  0.4183400000000  0.4523220000000  0.5143420000000 1.0
C      1  0.3966800000000  0.5361030000000  0.4961000000000 1.0
C      1  0.5441690000000  0.4309210000000  0.4116060000000 1.0
C      1  0.5749470000000  0.5670540000000  0.5561770000000 1.0
C      1  0.4471010000000  0.4327790000000  0.5727200000000 1.0
C      1  0.4251380000000  0.5711890000000  0.4423730000000 1.0
C      1  0.5512070000000  0.4202600000000  0.4353740000000 1.0
C      1  0.5508680000000  0.5783380000000  0.5565340000000 1.0
C      1  0.4495570000000  0.5816850000000  0.4427520000000 1.0
C      1  0.4575520000000  0.4113150000000  0.5601370000000 1.0
C      1  0.5086080000000  0.5535170000000  0.5107890000000 1.0
C      1  0.5135670000000  0.4521030000000  0.4911640000000 1.0
C      1  0.4908310000000  0.5538450000000  0.4885160000000 1.0
C      1  0.4918190000000  0.4518180000000  0.5098250000000 1.0
C      1  0.5046250000000  0.5131060000000  0.5459890000000 1.0
C      1  0.5164500000000  0.4906790000000  0.4533760000000 1.0
C      1  0.4845700000000  0.4934590000000  0.5442020000000 1.0
C      1  0.4961470000000  0.5111030000000  0.4547110000000 1.0
C      1  0.4887420000000  0.4646140000000  0.4269880000000 1.0
C      1  0.4786140000000  0.5425320000000  0.5690950000000 1.0
C      1  0.5062090000000  0.4644500000000  0.5731210000000 1.0
C      1  0.5207490000000  0.5426170000000  0.4318240000000 1.0
C      1  0.4921990000000  0.4422380000000  0.4483490000000 1.0
C      1  0.4779500000000  0.5630690000000  0.5480490000000 1.0
C      1  0.5215410000000  0.5636350000000  0.4518970000000 1.0
C      1  0.5115780000000  0.4425830000000  0.5540440000000 1.0
C      1  0.6087140000000  0.5120730000000  0.4844300000000 1.0
C      1  0.6033380000000  0.4668950000000  0.5007420000000 1.0
C      1  0.3867670000000  0.5131860000000  0.5089920000000 1.0
C      1  0.3987780000000  0.4705500000000  0.5024670000000 1.0
C      1  0.6063500000000  0.4784180000000  0.5263150000000 1.0
C      1  0.6037690000000  0.4850050000000  0.4784580000000 1.0
C      1  0.3906750000000  0.4897980000000  0.5233430000000 1.0
C      1  0.3953290000000  0.4860180000000  0.4796230000000 1.0
C      1  0.4383060000000  0.5189220000000  0.5534650000000 1.0
C      1  0.4461220000000  0.4893570000000  0.4391190000000 1.0
C      1  0.5609120000000  0.5147250000000  0.4441550000000 1.0
C      1  0.5517920000000  0.4894160000000  0.5639030000000 1.0
C      1  0.4383220000000  0.5590190000000  0.5168050000000 1.0
C      1  0.4504530000000  0.4415210000000  0.4764380000000 1.0
C      1  0.5534690000000  0.4440110000000  0.5297390000000 1.0
C      1  0.5608690000000  0.5585260000000  0.4823320000000 1.0
C      1  0.4978740000000  0.3914160000000  0.4918720000000 1.0
C      1  0.4879170000000  0.6110100000000  0.5061910000000 1.0
C      1  0.5157720000000  0.3911930000000  0.5119670000000 1.0
C      1  0.5122350000000  0.6110260000000  0.4944690000000 1.0
C      1  0.4911090000000  0.5120730000000  0.3844270000000 1.0
C      1  0.4764020000000  0.5006940000000  0.6141640000000 1.0
C      1  0.5178540000000  0.5068790000000  0.3835190000000 1.0
C      1  0.5024530000000  0.5083570000000  0.6161280000000 1.0
C      1  0.5784060000000  0.4931480000000  0.4382430000000 1.0
C      1  0.5799860000000  0.4946290000000  0.5647280000000 1.0
C      1  0.4141440000000  0.5069410000000  0.5609980000000 1.0
C      1  0.4187730000000  0.4961210000000  0.4378220000000 1.0
C      1  0.5740180000000  0.4315520000000  0.5152520000000 1.0
C      1  0.5880850000000  0.5562980000000  0.4905950000000 1.0
C      1  0.4106540000000  0.5573860000000  0.5097660000000 1.0
C      1  0.4310700000000  0.4341300000000  0.4962640000000 1.0
C      1  0.4711860000000  0.4269110000000  0.4625860000000 1.0
C      1  0.4570070000000  0.5759670000000  0.5313010000000 1.0
C      1  0.5346420000000  0.4284030000000  0.5439500000000 1.0
C      1  0.5426100000000  0.5762090000000  0.4685160000000 1.0
C      1  0.4682050000000  0.4861260000000  0.4208100000000 1.0
C      1  0.4574210000000  0.5233410000000  0.5739290000000 1.0
C      1  0.5415300000000  0.5233140000000  0.4248180000000 1.0
C      1  0.5278260000000  0.4854780000000  0.5804600000000 1.0
C      1  0.4254700000000  0.4627860000000  0.5420890000000 1.0
C      1  0.4007300000000  0.5320610000000  0.4677350000000 1.0
C      1  0.5718810000000  0.4497950000000  0.4681020000000 1.0
C      1  0.5984470000000  0.5271020000000  0.5305580000000 1.0
END
