TITL C-3201377-4638-1277 1870.25497710274 125000 -714.585324196029 0 0 120 (C1) n - 1
REM
REM in /home/nfs/bkarasulu/CARBON/AIRSS/Generating-Clusters/LCBOP/Higher-Symm/SD-CG/FIRE-CG
REM
REM
REM
REM
REM
REM ./C.cell (b20cbc046b6831c77cfcea5457e17084)
REM AIRSS Version 0.9.1 bugfix July 2018 build 013d7b7c2542+ Fri, 06 Jul 2018 19:26:36 +0100
REM compiler GCC version 9.2.1 20190827 (Red Hat 9.2.1-1)
REM options -cpp -mtune=generic -march=x86-64 -g -O0 -fpre-include=/usr/include/finclude/math-vector-fortran.h
REM seed 418143936 -1662651554 1426615023 1972537448 1782756960 1434675606 -1006954060 -1328745698 -1318944841 -729848582 -503101205 429725604 -1214254228 -503624040 1098216800 854702624 559948262 850832951 -1250631270 161476913 1212659559 -1055243458 -306803530 83636348 181398316 -2092521456 695072558 -2137986359 -96141423 714968717 -419988118 -75371403 701072090
REM
CELL 1.54180   50.00000   50.00000   50.00000   90.00000   90.00000   90.00000
LATT -1
SFAC C  
C      1  0.5542560000000  0.4763550000000  0.4891530000000 1.0
C      1  0.5079390000000  0.4946680000000  0.4037700000000 1.0
C      1  0.5058220000000  0.5078600000000  0.4293160000000 1.0
C      1  0.4989810000000  0.6034670000000  0.5345770000000 1.0
C      1  0.4980870000000  0.5622010000000  0.5901810000000 1.0
C      1  0.4082600000000  0.4602430000000  0.5250190000000 1.0
C      1  0.5286580000000  0.5392400000000  0.4781610000000 1.0
C      1  0.4209950000000  0.5744240000000  0.4844940000000 1.0
C      1  0.4366830000000  0.5609200000000  0.5632550000000 1.0
C      1  0.4485120000000  0.5381300000000  0.4432380000000 1.0
C      1  0.5269750000000  0.5979720000000  0.5371430000000 1.0
C      1  0.5233480000000  0.4956250000000  0.4520980000000 1.0
C      1  0.4809630000000  0.4733770000000  0.4753810000000 1.0
C      1  0.4109810000000  0.5137630000000  0.5616420000000 1.0
C      1  0.4932410000000  0.4444860000000  0.5211420000000 1.0
C      1  0.5092930000000  0.5014090000000  0.5047460000000 1.0
C      1  0.5234820000000  0.5275560000000  0.5035930000000 1.0
C      1  0.5892310000000  0.4755910000000  0.5241110000000 1.0
C      1  0.4568650000000  0.4717130000000  0.5031940000000 1.0
C      1  0.4241130000000  0.4829140000000  0.4365340000000 1.0
C      1  0.6026980000000  0.4641360000000  0.4620200000000 1.0
C      1  0.4793120000000  0.5518100000000  0.5076390000000 1.0
C      1  0.4724620000000  0.5976210000000  0.5320960000000 1.0
C      1  0.5253870000000  0.5411360000000  0.5275570000000 1.0
C      1  0.4153840000000  0.4962330000000  0.6065690000000 1.0
C      1  0.5397810000000  0.5416600000000  0.5888720000000 1.0
C      1  0.3930570000000  0.5372160000000  0.4746720000000 1.0
C      1  0.5014280000000  0.4402740000000  0.4516340000000 1.0
C      1  0.5609350000000  0.5037310000000  0.4840790000000 1.0
C      1  0.5155770000000  0.5646660000000  0.4746420000000 1.0
C      1  0.5488420000000  0.5953250000000  0.5158510000000 1.0
C      1  0.5470750000000  0.4510920000000  0.5616740000000 1.0
C      1  0.5517380000000  0.4175680000000  0.4976500000000 1.0
C      1  0.4702600000000  0.4037580000000  0.5180950000000 1.0
C      1  0.5344570000000  0.5764750000000  0.5564410000000 1.0
C      1  0.5410290000000  0.4782680000000  0.5534800000000 1.0
C      1  0.4072590000000  0.5512610000000  0.4945130000000 1.0
C      1  0.4846640000000  0.4858300000000  0.3897200000000 1.0
C      1  0.5168640000000  0.5557900000000  0.4271540000000 1.0
C      1  0.4646880000000  0.4522440000000  0.5259930000000 1.0
C      1  0.4151330000000  0.5427760000000  0.5211860000000 1.0
C      1  0.5370990000000  0.4132650000000  0.4373880000000 1.0
C      1  0.5594600000000  0.5023200000000  0.3995820000000 1.0
C      1  0.5424400000000  0.5168800000000  0.4649430000000 1.0
C      1  0.5198430000000  0.4917380000000  0.5388210000000 1.0
C      1  0.4492400000000  0.5843190000000  0.5210710000000 1.0
C      1  0.5098770000000  0.5742510000000  0.4477890000000 1.0
C      1  0.4088850000000  0.5155570000000  0.5330640000000 1.0
C      1  0.5515550000000  0.4946330000000  0.5766190000000 1.0
C      1  0.4218470000000  0.5381190000000  0.4344650000000 1.0
C      1  0.4986360000000  0.4411040000000  0.5690830000000 1.0
C      1  0.5902660000000  0.5041150000000  0.5234780000000 1.0
C      1  0.5461810000000  0.5567380000000  0.5375300000000 1.0
C      1  0.4398560000000  0.4760720000000  0.5699850000000 1.0
C      1  0.4713030000000  0.5311700000000  0.4893430000000 1.0
C      1  0.4792400000000  0.4575190000000  0.4525170000000 1.0
C      1  0.4811670000000  0.5087400000000  0.5021200000000 1.0
C      1  0.5944560000000  0.5126540000000  0.4394480000000 1.0
C      1  0.5891630000000  0.5534780000000  0.4742430000000 1.0
C      1  0.5145220000000  0.4395010000000  0.4770630000000 1.0
C      1  0.5402360000000  0.4658490000000  0.4423680000000 1.0
C      1  0.5621010000000  0.5684660000000  0.5162570000000 1.0
C      1  0.5091700000000  0.4286210000000  0.5420560000000 1.0
C      1  0.4952800000000  0.4315400000000  0.4952270000000 1.0
C      1  0.4701810000000  0.5833070000000  0.4753230000000 1.0
C      1  0.5129470000000  0.5128680000000  0.5582550000000 1.0
C      1  0.4934170000000  0.4628480000000  0.5849690000000 1.0
C      1  0.5036530000000  0.5358310000000  0.5452360000000 1.0
C      1  0.4460970000000  0.5850640000000  0.4917240000000 1.0
C      1  0.4527960000000  0.5287130000000  0.4692300000000 1.0
C      1  0.5393610000000  0.4324560000000  0.5425730000000 1.0
C      1  0.4560820000000  0.4639330000000  0.5525540000000 1.0
C      1  0.6041070000000  0.4886970000000  0.4512700000000 1.0
C      1  0.6055600000000  0.5173060000000  0.5420230000000 1.0
C      1  0.4491250000000  0.4249100000000  0.5257010000000 1.0
C      1  0.5285650000000  0.3981050000000  0.5014030000000 1.0
C      1  0.4517390000000  0.5517530000000  0.5834330000000 1.0
C      1  0.4781100000000  0.5405090000000  0.5347340000000 1.0
C      1  0.5768490000000  0.5487330000000  0.4996560000000 1.0
C      1  0.4323270000000  0.5636330000000  0.5352290000000 1.0
C      1  0.4051580000000  0.4879050000000  0.5229800000000 1.0
C      1  0.4718290000000  0.5508030000000  0.4337750000000 1.0
C      1  0.4209290000000  0.4775120000000  0.4628580000000 1.0
C      1  0.4814620000000  0.5144580000000  0.5973020000000 1.0
C      1  0.5278210000000  0.3914960000000  0.4509990000000 1.0
C      1  0.4593080000000  0.5179900000000  0.5384680000000 1.0
C      1  0.5957170000000  0.5374950000000  0.4533200000000 1.0
C      1  0.5588790000000  0.4310040000000  0.5218380000000 1.0
C      1  0.4964210000000  0.5350880000000  0.4269340000000 1.0
C      1  0.5099830000000  0.4844950000000  0.4797200000000 1.0
C      1  0.5296820000000  0.4623160000000  0.4855620000000 1.0
C      1  0.4639710000000  0.4006420000000  0.4684930000000 1.0
C      1  0.4769960000000  0.5427160000000  0.5924490000000 1.0
C      1  0.5756070000000  0.5191850000000  0.5038420000000 1.0
C      1  0.4434050000000  0.5111860000000  0.3840260000000 1.0
C      1  0.3988610000000  0.5350860000000  0.4483480000000 1.0
C      1  0.5653190000000  0.4771910000000  0.5945120000000 1.0
C      1  0.5044920000000  0.4003290000000  0.5273900000000 1.0
C      1  0.5483130000000  0.4374540000000  0.4481850000000 1.0
C      1  0.5343500000000  0.4949520000000  0.3935800000000 1.0
C      1  0.4219750000000  0.4954050000000  0.5800940000000 1.0
C      1  0.4611780000000  0.4974630000000  0.5181470000000 1.0
C      1  0.5793900000000  0.5101460000000  0.4156390000000 1.0
C      1  0.5250120000000  0.5648120000000  0.5811030000000 1.0
C      1  0.4627890000000  0.4584090000000  0.4305900000000 1.0
C      1  0.5620290000000  0.4511930000000  0.5859760000000 1.0
C      1  0.5339550000000  0.5164010000000  0.5783140000000 1.0
C      1  0.4871310000000  0.4878430000000  0.5942320000000 1.0
C      1  0.5232440000000  0.3843490000000  0.4768780000000 1.0
C      1  0.5801020000000  0.4502000000000  0.5232290000000 1.0
C      1  0.5639870000000  0.4304790000000  0.4725920000000 1.0
C      1  0.4756490000000  0.4109300000000  0.4905740000000 1.0
C      1  0.4925900000000  0.5716280000000  0.4917270000000 1.0
C      1  0.4326970000000  0.4710370000000  0.4861760000000 1.0
C      1  0.4212200000000  0.4354020000000  0.5256960000000 1.0
C      1  0.4576860000000  0.4923810000000  0.3978710000000 1.0
C      1  0.5900080000000  0.4422980000000  0.4714390000000 1.0
C      1  0.4793700000000  0.5763160000000  0.4480190000000 1.0
C      1  0.4878530000000  0.4699670000000  0.3674810000000 1.0
C      1  0.4461740000000  0.4779380000000  0.4195810000000 1.0
END
