TITL C-3201377-4638-1759 0.191034913502641 125000 -347.990441737329 0 0 58 (C1) n - 1
REM
REM in /home/nfs/bkarasulu/CARBON/AIRSS/Generating-Clusters/LCBOP/Higher-Symm/SD-CG/FIRE-CG
REM
REM
REM
REM
REM
REM ./C.cell (b20cbc046b6831c77cfcea5457e17084)
REM AIRSS Version 0.9.1 bugfix July 2018 build 013d7b7c2542+ Fri, 06 Jul 2018 19:26:36 +0100
REM compiler GCC version 9.2.1 20190827 (Red Hat 9.2.1-1)
REM options -cpp -mtune=generic -march=x86-64 -g -O0 -fpre-include=/usr/include/finclude/math-vector-fortran.h
REM seed 733495600 -1585092691 -1375433406 1734887153 1373436888 -273940784 700624706 2123494492 -263727262 25433426 -1975507928 -1924299013 1845524578 1560080542 -1212836983 -1344680667 33372774 -1707134897 -1529940875 -2038920165 -1356137978 853611198 781368853 -2045834446 -1128747319 1656040016 808346616 847274864 1143990785 -1262513469 749714196 191048546 -977908254
REM
CELL 1.54180   50.00000   50.00000   50.00000   90.00000   90.00000   90.00000
LATT -1
SFAC C  
C      1  0.5550010000000  0.5215370000000  0.4556650000000 1.0
C      1  0.4949510000000  0.4546760000000  0.4330170000000 1.0
C      1  0.4639160000000  0.5405820000000  0.4465030000000 1.0
C      1  0.5342920000000  0.4759400000000  0.5341490000000 1.0
C      1  0.4809910000000  0.5509120000000  0.5416870000000 1.0
C      1  0.4688210000000  0.4631200000000  0.5853570000000 1.0
C      1  0.6153890000000  0.4080080000000  0.5501390000000 1.0
C      1  0.4572830000000  0.3854450000000  0.6574850000000 1.0
C      1  0.4317110000000  0.6435860000000  0.5611900000000 1.0
C      1  0.6586510000000  0.5456310000000  0.4496430000000 1.0
C      1  0.3921020000000  0.6149710000000  0.4206880000000 1.0
C      1  0.4580700000000  0.3685160000000  0.3823300000000 1.0
C      1  0.4673320000000  0.5255280000000  0.4716240000000 1.0
C      1  0.5378190000000  0.5174920000000  0.4794600000000 1.0
C      1  0.5027390000000  0.4584770000000  0.4606440000000 1.0
C      1  0.4555980000000  0.4664620000000  0.5598340000000 1.0
C      1  0.5219050000000  0.4772940000000  0.5079060000000 1.0
C      1  0.4876780000000  0.5398430000000  0.5150550000000 1.0
C      1  0.6074890000000  0.5338730000000  0.4525550000000 1.0
C      1  0.4763670000000  0.4110020000000  0.4073200000000 1.0
C      1  0.4274960000000  0.5781950000000  0.4333000000000 1.0
C      1  0.5755620000000  0.4414310000000  0.5423340000000 1.0
C      1  0.4560760000000  0.5979790000000  0.5516690000000 1.0
C      1  0.4627360000000  0.4237210000000  0.6218550000000 1.0
C      1  0.5000640000000  0.4816040000000  0.4232000000000 1.0
C      1  0.4860120000000  0.5291570000000  0.4312740000000 1.0
C      1  0.5351660000000  0.5167320000000  0.4346350000000 1.0
C      1  0.4904030000000  0.5310650000000  0.5626930000000 1.0
C      1  0.4865430000000  0.4863200000000  0.5868630000000 1.0
C      1  0.5249860000000  0.4927330000000  0.5560040000000 1.0
C      1  0.5817200000000  0.5279310000000  0.4540340000000 1.0
C      1  0.4855730000000  0.4324110000000  0.4199090000000 1.0
C      1  0.4453300000000  0.5596810000000  0.4396790000000 1.0
C      1  0.5554970000000  0.4582680000000  0.5384110000000 1.0
C      1  0.4683400000000  0.5750010000000  0.5468620000000 1.0
C      1  0.4655260000000  0.4430080000000  0.6039160000000 1.0
C      1  0.6332820000000  0.5398010000000  0.4510870000000 1.0
C      1  0.4671430000000  0.3895830000000  0.3947210000000 1.0
C      1  0.4096520000000  0.5967350000000  0.4269420000000 1.0
C      1  0.5956410000000  0.4245810000000  0.5462690000000 1.0
C      1  0.4437920000000  0.6209720000000  0.5564690000000 1.0
C      1  0.4599860000000  0.4044240000000  0.6398170000000 1.0
C      1  0.5125220000000  0.5171040000000  0.5480090000000 1.0
C      1  0.5143890000000  0.4829460000000  0.5807420000000 1.0
C      1  0.4742070000000  0.5079680000000  0.5700120000000 1.0
C      1  0.5271750000000  0.4890610000000  0.4332870000000 1.0
C      1  0.5123010000000  0.5344160000000  0.4421490000000 1.0
C      1  0.4805910000000  0.5000580000000  0.4333350000000 1.0
C      1  0.4636570000000  0.4910490000000  0.5466430000000 1.0
C      1  0.4986450000000  0.5145710000000  0.5232110000000 1.0
C      1  0.4924290000000  0.4748510000000  0.5046100000000 1.0
C      1  0.4720900000000  0.4966470000000  0.4629510000000 1.0
C      1  0.5283470000000  0.4742150000000  0.4598590000000 1.0
C      1  0.5139570000000  0.5350080000000  0.4728220000000 1.0
C      1  0.4886570000000  0.5379250000000  0.4868800000000 1.0
C      1  0.4839150000000  0.4735690000000  0.4771940000000 1.0
C      1  0.5338750000000  0.4890270000000  0.4844180000000 1.0
C      1  0.4797990000000  0.4922590000000  0.5230340000000 1.0
END
