TITL C-3201372-1405-1773 -1.63039979578357e-06 125000 -441.685640217229 0 0 74 (Ci) n - 1
REM
REM in /home/nfs/bkarasulu/CARBON/AIRSS/Generating-Clusters/LCBOP/Higher-Symm/SD-CG/FIRE-CG
REM
REM
REM
REM
REM
REM ./C.cell (b20cbc046b6831c77cfcea5457e17084)
REM AIRSS Version 0.9.1 bugfix July 2018 build 013d7b7c2542+ Fri, 06 Jul 2018 19:26:36 +0100
REM compiler GCC version 9.2.1 20190827 (Red Hat 9.2.1-1)
REM options -cpp -mtune=generic -march=x86-64 -g -O0 -fpre-include=/usr/include/finclude/math-vector-fortran.h
REM seed -821555126 -1008094237 -1590594909 -928518516 1201177411 1553389585 650591277 -1471551272 1028724378 1362055678 -18685998 -805806634 -143971359 -837577687 -452715492 -1368731023 1091665237 -2057318985 -392643332 -384632333 -177818997 1005669241 378270391 -1631249666 -671119685 -559927487 -780945623 -1046043690 -1052704001 1154226459 59091176 864178588 558957025
REM
CELL 1.54180   50.00000   50.00000   50.00000   90.00000   90.00000   90.00000
LATT -1
SFAC C  
C      1  0.4594590000000  0.5387800000000  0.4645290000000 1.0
C      1  0.5405410000000  0.4612200000000  0.5354710000000 1.0
C      1  0.5450220000000  0.5494670000000  0.4896710000000 1.0
C      1  0.4549780000000  0.4505330000000  0.5103290000000 1.0
C      1  0.5264890000000  0.4049550000000  0.4820520000000 1.0
C      1  0.4735110000000  0.5950450000000  0.5179480000000 1.0
C      1  0.4849170000000  0.5429810000000  0.5067500000000 1.0
C      1  0.5150830000000  0.4570190000000  0.4932500000000 1.0
C      1  0.4862180000000  0.4075730000000  0.5106690000000 1.0
C      1  0.5137820000000  0.5924270000000  0.4893310000000 1.0
C      1  0.4888640000000  0.5665890000000  0.5748320000000 1.0
C      1  0.5111360000000  0.4334110000000  0.4251680000000 1.0
C      1  0.4985820000000  0.4850750000000  0.5468540000000 1.0
C      1  0.5014180000000  0.5149250000000  0.4531460000000 1.0
C      1  0.5567740000000  0.5355540000000  0.4666880000000 1.0
C      1  0.4432260000000  0.4644460000000  0.5333120000000 1.0
C      1  0.4914180000000  0.4582100000000  0.4816570000000 1.0
C      1  0.5085820000000  0.5417900000000  0.5183430000000 1.0
C      1  0.4350930000000  0.5534670000000  0.4644200000000 1.0
C      1  0.5649070000000  0.4465330000000  0.5355800000000 1.0
C      1  0.5321170000000  0.4523770000000  0.4326430000000 1.0
C      1  0.4678830000000  0.5476230000000  0.5673570000000 1.0
C      1  0.4224020000000  0.4514760000000  0.5461020000000 1.0
C      1  0.5775980000000  0.5485240000000  0.4538980000000 1.0
C      1  0.5484120000000  0.5383690000000  0.5428030000000 1.0
C      1  0.4515880000000  0.4616310000000  0.4571970000000 1.0
C      1  0.4791460000000  0.5208270000000  0.5741340000000 1.0
C      1  0.5208540000000  0.4791730000000  0.4258660000000 1.0
C      1  0.5084380000000  0.3934710000000  0.5004670000000 1.0
C      1  0.4915620000000  0.6065290000000  0.4995330000000 1.0
C      1  0.4654420000000  0.5311470000000  0.4910990000000 1.0
C      1  0.5345580000000  0.4688530000000  0.5089010000000 1.0
C      1  0.4500010000000  0.5565730000000  0.5473010000000 1.0
C      1  0.5499990000000  0.4434270000000  0.4526990000000 1.0
C      1  0.5837320000000  0.4487360000000  0.4876250000000 1.0
C      1  0.4162680000000  0.5512640000000  0.5123750000000 1.0
C      1  0.4628950000000  0.4442280000000  0.4371790000000 1.0
C      1  0.5371050000000  0.5557720000000  0.5628210000000 1.0
C      1  0.4742650000000  0.5228380000000  0.4458500000000 1.0
C      1  0.5257350000000  0.4771620000000  0.5541500000000 1.0
C      1  0.5686240000000  0.4605610000000  0.4660730000000 1.0
C      1  0.4313760000000  0.5394390000000  0.5339270000000 1.0
C      1  0.4631620000000  0.4591150000000  0.4835650000000 1.0
C      1  0.5368380000000  0.5408850000000  0.5164350000000 1.0
C      1  0.4595340000000  0.5029200000000  0.4317770000000 1.0
C      1  0.5404660000000  0.4970800000000  0.5682230000000 1.0
C      1  0.5506790000000  0.4888700000000  0.4979320000000 1.0
C      1  0.4493210000000  0.5111300000000  0.5020680000000 1.0
C      1  0.5057120000000  0.5263200000000  0.5862070000000 1.0
C      1  0.4942880000000  0.4736800000000  0.4137930000000 1.0
C      1  0.4505130000000  0.4906890000000  0.5442060000000 1.0
C      1  0.5494870000000  0.5093110000000  0.4557940000000 1.0
C      1  0.4750240000000  0.4962000000000  0.5597270000000 1.0
C      1  0.5249760000000  0.5038000000000  0.4402730000000 1.0
C      1  0.4576290000000  0.5805330000000  0.5338540000000 1.0
C      1  0.5423710000000  0.4194670000000  0.4661460000000 1.0
C      1  0.5140460000000  0.5536490000000  0.5790350000000 1.0
C      1  0.4859540000000  0.4463510000000  0.4209650000000 1.0
C      1  0.4953520000000  0.4887540000000  0.5197070000000 1.0
C      1  0.5046480000000  0.5112460000000  0.4802930000000 1.0
C      1  0.5126670000000  0.3676800000000  0.5087730000000 1.0
C      1  0.4873330000000  0.6323200000000  0.4912270000000 1.0
C      1  0.4666650000000  0.4250080000000  0.5162280000000 1.0
C      1  0.5333350000000  0.5749920000000  0.4837720000000 1.0
C      1  0.4185860000000  0.5570030000000  0.4859050000000 1.0
C      1  0.5814140000000  0.4429970000000  0.5140950000000 1.0
C      1  0.4402590000000  0.5125000000000  0.5287630000000 1.0
C      1  0.5597410000000  0.4875000000000  0.4712370000000 1.0
C      1  0.5588970000000  0.5137390000000  0.5534250000000 1.0
C      1  0.4411030000000  0.4862610000000  0.4465750000000 1.0
C      1  0.5264560000000  0.5079200000000  0.5901340000000 1.0
C      1  0.4735440000000  0.4920800000000  0.4098660000000 1.0
C      1  0.4147400000000  0.4929150000000  0.4493840000000 1.0
C      1  0.5852600000000  0.5070850000000  0.5506160000000 1.0
END
