TITL C-3201378-2706-1961 524599.104016068 125000 -1010.76084710645 0 0 166 (C1) n - 1
REM
REM in /home/nfs/bkarasulu/CARBON/AIRSS/Generating-Clusters/LCBOP/Higher-Symm/SD-CG/FIRE-CG
REM
REM
REM
REM
REM
REM ./C.cell (b20cbc046b6831c77cfcea5457e17084)
REM AIRSS Version 0.9.1 bugfix July 2018 build 013d7b7c2542+ Fri, 06 Jul 2018 19:26:36 +0100
REM compiler GCC version 9.2.1 20190827 (Red Hat 9.2.1-1)
REM options -cpp -mtune=generic -march=x86-64 -g -O0 -fpre-include=/usr/include/finclude/math-vector-fortran.h
REM seed 1410185517 473854380 -709851186 -1478339578 -849178805 -39923727 -1939022805 592453110 1867069054 2073320047 1945794076 -735100037 55788142 -1962693088 1113971915 -1822733739 752772242 -869523223 50021704 -845484618 -1600834494 738359330 -340188013 1280351009 31621733 -1552500721 110041442 751921706 1092813142 782334413 1996780701 1476008387 -1353931161
REM
CELL 1.54180   50.00000   50.00000   50.00000   90.00000   90.00000   90.00000
LATT -1
SFAC C  
C      1  0.4433800000000  0.4623670000000  0.4236390000000 1.0
C      1  0.4480610000000  0.5289170000000  0.4216260000000 1.0
C      1  0.4432240000000  0.4834910000000  0.6801010000000 1.0
C      1  0.4396600000000  0.5105100000000  0.6803960000000 1.0
C      1  0.5078520000000  0.5464910000000  0.4459530000000 1.0
C      1  0.5032880000000  0.4583860000000  0.4481170000000 1.0
C      1  0.4631070000000  0.4668330000000  0.5334990000000 1.0
C      1  0.4649770000000  0.5218550000000  0.5550730000000 1.0
C      1  0.5931230000000  0.4759810000000  0.5363510000000 1.0
C      1  0.6042820000000  0.5315400000000  0.5285570000000 1.0
C      1  0.4713470000000  0.5717910000000  0.4388870000000 1.0
C      1  0.4671820000000  0.4251960000000  0.4436870000000 1.0
C      1  0.4363380000000  0.4691770000000  0.6579780000000 1.0
C      1  0.4292550000000  0.5230260000000  0.6585590000000 1.0
C      1  0.4954550000000  0.5740330000000  0.5772530000000 1.0
C      1  0.4901820000000  0.4228700000000  0.5802480000000 1.0
C      1  0.4417200000000  0.5078720000000  0.5485210000000 1.0
C      1  0.4412350000000  0.4799480000000  0.5449650000000 1.0
C      1  0.4818760000000  0.5953100000000  0.4777450000000 1.0
C      1  0.4702530000000  0.3966350000000  0.4807550000000 1.0
C      1  0.5161540000000  0.3970940000000  0.4820360000000 1.0
C      1  0.5252210000000  0.6138120000000  0.4712760000000 1.0
C      1  0.5655980000000  0.5507230000000  0.5562980000000 1.0
C      1  0.5572090000000  0.4422920000000  0.5523310000000 1.0
C      1  0.5014260000000  0.4674830000000  0.4742720000000 1.0
C      1  0.5018210000000  0.5390080000000  0.4720200000000 1.0
C      1  0.5517790000000  0.6187930000000  0.4706640000000 1.0
C      1  0.5419330000000  0.3908670000000  0.4780950000000 1.0
C      1  0.4517420000000  0.4294110000000  0.5541750000000 1.0
C      1  0.4490610000000  0.5635810000000  0.5682320000000 1.0
C      1  0.5511450000000  0.4377140000000  0.4641980000000 1.0
C      1  0.5551120000000  0.5675050000000  0.4571800000000 1.0
C      1  0.4127850000000  0.4351220000000  0.5010800000000 1.0
C      1  0.4180470000000  0.5597300000000  0.4985740000000 1.0
C      1  0.5756450000000  0.5341400000000  0.4898000000000 1.0
C      1  0.5749520000000  0.4710180000000  0.4921400000000 1.0
C      1  0.5152950000000  0.5078170000000  0.3783770000000 1.0
C      1  0.5208510000000  0.5235190000000  0.4031940000000 1.0
C      1  0.4258420000000  0.4806720000000  0.6343010000000 1.0
C      1  0.4220920000000  0.5097230000000  0.6345870000000 1.0
C      1  0.6043720000000  0.4931600000000  0.5560630000000 1.0
C      1  0.6199410000000  0.5140470000000  0.5445760000000 1.0
C      1  0.4803220000000  0.4958290000000  0.5026770000000 1.0
C      1  0.4786590000000  0.5234160000000  0.5074980000000 1.0
C      1  0.5566640000000  0.4968990000000  0.3455010000000 1.0
C      1  0.5359550000000  0.5026280000000  0.3602420000000 1.0
C      1  0.4334920000000  0.4200340000000  0.4877530000000 1.0
C      1  0.4401330000000  0.5752240000000  0.4852070000000 1.0
C      1  0.5592870000000  0.5675330000000  0.5805180000000 1.0
C      1  0.5524220000000  0.4374610000000  0.5797340000000 1.0
C      1  0.5919190000000  0.5534940000000  0.5419450000000 1.0
C      1  0.5821480000000  0.4514510000000  0.5437940000000 1.0
C      1  0.5685730000000  0.6027210000000  0.4880540000000 1.0
C      1  0.5623820000000  0.4027640000000  0.4946450000000 1.0
C      1  0.4843040000000  0.5269670000000  0.5349900000000 1.0
C      1  0.4840160000000  0.4822270000000  0.5261000000000 1.0
C      1  0.5434290000000  0.5417080000000  0.6198440000000 1.0
C      1  0.5365770000000  0.4650710000000  0.6170450000000 1.0
C      1  0.5243360000000  0.5429830000000  0.4911900000000 1.0
C      1  0.5234950000000  0.4680460000000  0.4933920000000 1.0
C      1  0.5432980000000  0.5162500000000  0.6282530000000 1.0
C      1  0.5405490000000  0.4896930000000  0.6267070000000 1.0
C      1  0.4754670000000  0.5939180000000  0.5364240000000 1.0
C      1  0.4711120000000  0.3912040000000  0.5414560000000 1.0
C      1  0.5934180000000  0.5524140000000  0.4744780000000 1.0
C      1  0.5923920000000  0.4505940000000  0.4792080000000 1.0
C      1  0.5486760000000  0.5721140000000  0.4302090000000 1.0
C      1  0.5464190000000  0.4288980000000  0.4367860000000 1.0
C      1  0.4438580000000  0.4007860000000  0.5193800000000 1.0
C      1  0.4543700000000  0.5865350000000  0.5178330000000 1.0
C      1  0.4963920000000  0.4300820000000  0.4436990000000 1.0
C      1  0.5010560000000  0.5748460000000  0.4389430000000 1.0
C      1  0.4680220000000  0.4393840000000  0.5313950000000 1.0
C      1  0.4613890000000  0.5391280000000  0.5769040000000 1.0
C      1  0.4925570000000  0.4070650000000  0.4937750000000 1.0
C      1  0.5092890000000  0.5936280000000  0.4832210000000 1.0
C      1  0.5039470000000  0.4704070000000  0.5668660000000 1.0
C      1  0.5137360000000  0.5280810000000  0.5709410000000 1.0
C      1  0.5143010000000  0.4458470000000  0.4048920000000 1.0
C      1  0.5165800000000  0.5717630000000  0.3931520000000 1.0
C      1  0.4261810000000  0.5556130000000  0.5519700000000 1.0
C      1  0.4238450000000  0.4367870000000  0.5513640000000 1.0
C      1  0.5325080000000  0.5754630000000  0.5245810000000 1.0
C      1  0.5162210000000  0.4240250000000  0.5307320000000 1.0
C      1  0.5192020000000  0.4235880000000  0.4251590000000 1.0
C      1  0.5218180000000  0.5822140000000  0.4206580000000 1.0
C      1  0.5315790000000  0.4464510000000  0.5965360000000 1.0
C      1  0.5383590000000  0.5587150000000  0.5979010000000 1.0
C      1  0.5854190000000  0.5026920000000  0.5748310000000 1.0
C      1  0.5682700000000  0.5228100000000  0.5698460000000 1.0
C      1  0.5768750000000  0.5777170000000  0.4734070000000 1.0
C      1  0.5740400000000  0.4262010000000  0.4803840000000 1.0
C      1  0.4495450000000  0.5103500000000  0.3999020000000 1.0
C      1  0.4428220000000  0.4834320000000  0.4049300000000 1.0
C      1  0.4890920000000  0.4981920000000  0.3738830000000 1.0
C      1  0.4684380000000  0.5175020000000  0.3789750000000 1.0
C      1  0.5915490000000  0.4838800000000  0.4359700000000 1.0
C      1  0.5907870000000  0.5150160000000  0.4343410000000 1.0
C      1  0.5658800000000  0.4415900000000  0.4193760000000 1.0
C      1  0.5590390000000  0.5527590000000  0.4104930000000 1.0
C      1  0.5023270000000  0.6082600000000  0.5332500000000 1.0
C      1  0.4990150000000  0.3816850000000  0.5366370000000 1.0
C      1  0.4503300000000  0.4739150000000  0.4726500000000 1.0
C      1  0.4497560000000  0.5289050000000  0.4712960000000 1.0
C      1  0.5485250000000  0.4666870000000  0.4770820000000 1.0
C      1  0.5486600000000  0.5365670000000  0.4761990000000 1.0
C      1  0.4719090000000  0.5812130000000  0.5625410000000 1.0
C      1  0.4694890000000  0.4098680000000  0.5648940000000 1.0
C      1  0.5524090000000  0.3947810000000  0.5216750000000 1.0
C      1  0.5577050000000  0.6108240000000  0.5153830000000 1.0
C      1  0.4530280000000  0.4146560000000  0.4673130000000 1.0
C      1  0.4600100000000  0.5811290000000  0.4652620000000 1.0
C      1  0.4754270000000  0.5451390000000  0.3734160000000 1.0
C      1  0.4870770000000  0.4702270000000  0.3718640000000 1.0
C      1  0.4689050000000  0.4324740000000  0.3955980000000 1.0
C      1  0.4974970000000  0.5331140000000  0.4222380000000 1.0
C      1  0.4070710000000  0.5220320000000  0.4495610000000 1.0
C      1  0.4065090000000  0.4724820000000  0.4523850000000 1.0
C      1  0.5139900000000  0.5536490000000  0.5837950000000 1.0
C      1  0.5061690000000  0.4468400000000  0.5830930000000 1.0
C      1  0.5272550000000  0.4691100000000  0.5222710000000 1.0
C      1  0.5308970000000  0.5302140000000  0.5247770000000 1.0
C      1  0.5433170000000  0.5112220000000  0.4192140000000 1.0
C      1  0.5428630000000  0.4834060000000  0.4267850000000 1.0
C      1  0.4123330000000  0.5091740000000  0.5848120000000 1.0
C      1  0.4149120000000  0.4794390000000  0.5846840000000 1.0
C      1  0.4353410000000  0.4875550000000  0.4929000000000 1.0
C      1  0.4362040000000  0.5144320000000  0.4922740000000 1.0
C      1  0.5693830000000  0.4699530000000  0.4216590000000 1.0
C      1  0.5687230000000  0.5264620000000  0.4182280000000 1.0
C      1  0.4758820000000  0.5353140000000  0.4820340000000 1.0
C      1  0.4773800000000  0.4795110000000  0.4802060000000 1.0
C      1  0.3937730000000  0.4805590000000  0.5422810000000 1.0
C      1  0.3941100000000  0.5084100000000  0.5413580000000 1.0
C      1  0.5434640000000  0.5520900000000  0.5358780000000 1.0
C      1  0.5350130000000  0.4445640000000  0.5345770000000 1.0
C      1  0.3948260000000  0.5136950000000  0.4750730000000 1.0
C      1  0.3942440000000  0.4830010000000  0.4767070000000 1.0
C      1  0.5250110000000  0.3964290000000  0.5326200000000 1.0
C      1  0.5321320000000  0.6036740000000  0.5292250000000 1.0
C      1  0.5095540000000  0.4855540000000  0.5407840000000 1.0
C      1  0.5120410000000  0.5164020000000  0.5430840000000 1.0
C      1  0.4257260000000  0.5661180000000  0.5263620000000 1.0
C      1  0.4158440000000  0.4238040000000  0.5278750000000 1.0
C      1  0.6033450000000  0.4657750000000  0.4561730000000 1.0
C      1  0.6027330000000  0.5351160000000  0.4523000000000 1.0
C      1  0.5878320000000  0.5174760000000  0.5089620000000 1.0
C      1  0.5848060000000  0.4887210000000  0.5116930000000 1.0
C      1  0.4347740000000  0.5274860000000  0.4463540000000 1.0
C      1  0.4344450000000  0.4682040000000  0.4495590000000 1.0
C      1  0.5352200000000  0.5494160000000  0.3928070000000 1.0
C      1  0.5172390000000  0.4686730000000  0.4237040000000 1.0
C      1  0.4160920000000  0.5224150000000  0.5567400000000 1.0
C      1  0.4167460000000  0.4659150000000  0.5567570000000 1.0
C      1  0.5208430000000  0.5717810000000  0.4985010000000 1.0
C      1  0.4906640000000  0.4260260000000  0.5168350000000 1.0
C      1  0.3992390000000  0.5381990000000  0.4920910000000 1.0
C      1  0.3973050000000  0.4592540000000  0.4949290000000 1.0
C      1  0.5437700000000  0.5140830000000  0.4591920000000 1.0
C      1  0.5447980000000  0.4882430000000  0.4574410000000 1.0
C      1  0.4918640000000  0.4469100000000  0.3870760000000 1.0
C      1  0.4923150000000  0.5659630000000  0.3790840000000 1.0
C      1  0.4138390000000  0.5212210000000  0.6102440000000 1.0
C      1  0.4204210000000  0.4678720000000  0.6098180000000 1.0
C      1  0.4700170000000  0.5462500000000  0.4225390000000 1.0
C      1  0.4554310000000  0.4369160000000  0.4201350000000 1.0
END
