TITL C-3201379-3821-1269 -0.348087353819879 125000 -125.871584107355 0 0 23 (Cs) n - 1
REM
REM in /home/nfs/bkarasulu/CARBON/AIRSS/Generating-Clusters/LCBOP/Higher-Symm/SD-CG/FIRE-CG
REM
REM
REM
REM
REM
REM ./C.cell (b20cbc046b6831c77cfcea5457e17084)
REM AIRSS Version 0.9.1 bugfix July 2018 build 013d7b7c2542+ Fri, 06 Jul 2018 19:26:36 +0100
REM compiler GCC version 9.2.1 20190827 (Red Hat 9.2.1-1)
REM options -cpp -mtune=generic -march=x86-64 -g -O0 -fpre-include=/usr/include/finclude/math-vector-fortran.h
REM seed 1702394986 -139181204 -1320155793 1649911717 -740517722 -1106856790 -1743413705 -791242271 -1593431026 486520402 -241238922 -177249677 182715128 -106340589 222053611 -2083983695 -977614954 2073574883 -508465277 -519952345 1009781870 1386318725 -943725529 1494519824 -705802818 -1004656541 1639060556 -1654939057 -1173968697 103561859 -67787771 -1563028007 1459866316
REM
CELL 1.54180   50.00000   50.00000   50.00000   90.00000   90.00000   90.00000
LATT -1
SFAC C  
C      1  0.5118440000000  0.5483930000000  0.5878780000000 1.0
C      1  0.5176960000000  0.5464050000000  0.4214970000000 1.0
C      1  0.5021320000000  0.4042510000000  0.4889540000000 1.0
C      1  0.5010910000000  0.4963720000000  0.5748200000000 1.0
C      1  0.4914900000000  0.5684040000000  0.4641800000000 1.0
C      1  0.5073920000000  0.4505830000000  0.4603530000000 1.0
C      1  0.5172550000000  0.5285300000000  0.6058610000000 1.0
C      1  0.5151250000000  0.5735620000000  0.4232690000000 1.0
C      1  0.5152540000000  0.4039390000000  0.4649760000000 1.0
C      1  0.5073270000000  0.5300810000000  0.4408020000000 1.0
C      1  0.4915930000000  0.4274450000000  0.4988360000000 1.0
C      1  0.5011150000000  0.5425880000000  0.5634250000000 1.0
C      1  0.4933460000000  0.5398630000000  0.4637650000000 1.0
C      1  0.4934130000000  0.4525440000000  0.4852360000000 1.0
C      1  0.4948730000000  0.5159890000000  0.5549500000000 1.0
C      1  0.4828320000000  0.4761740000000  0.4950620000000 1.0
C      1  0.4840160000000  0.5098950000000  0.5302120000000 1.0
C      1  0.4827950000000  0.5234680000000  0.4834320000000 1.0
C      1  0.5118200000000  0.5025890000000  0.5991710000000 1.0
C      1  0.5020010000000  0.5843860000000  0.4446650000000 1.0
C      1  0.5177900000000  0.4271820000000  0.4508140000000 1.0
C      1  0.4735220000000  0.5032410000000  0.5031850000000 1.0
C      1  0.4430460000000  0.5034270000000  0.5040350000000 1.0
END
