TITL C-3201375-1262-1752 -8.26863995054736e-07 125000 -232.340908990284 0 0 38 (C3h) n - 1
REM
REM in /home/nfs/bkarasulu/CARBON/AIRSS/Generating-Clusters/LCBOP/Higher-Symm/SD-CG/FIRE-CG
REM
REM
REM
REM
REM
REM ./C.cell (b20cbc046b6831c77cfcea5457e17084)
REM AIRSS Version 0.9.1 bugfix July 2018 build 013d7b7c2542+ Fri, 06 Jul 2018 19:26:36 +0100
REM compiler GCC version 9.2.1 20190827 (Red Hat 9.2.1-1)
REM options -cpp -mtune=generic -march=x86-64 -g -O0 -fpre-include=/usr/include/finclude/math-vector-fortran.h
REM seed 603770759 1562165798 1368108650 -742535547 -822980684 -1640299040 -1340993046 -2033175389 498983509 -1037134253 -779615146 -1335438534 -543910894 847899869 395294775 1491128010 149895707 872426344 -975973007 1925919257 -776668819 820149023 239295784 -2137834660 -1651780639 -1931368647 -133152987 -994421415 912697903 -486853747 -326564005 1263526220 265691414
REM
CELL 1.54180   50.00000   50.00000   50.00000   90.00000   90.00000   90.00000
LATT -1
SFAC C  
C      1  0.5013900000000  0.4634960000000  0.4449090000000 1.0
C      1  0.5464880000000  0.4634990000000  0.5278670000000 1.0
C      1  0.4520960000000  0.4634980000000  0.5254440000000 1.0
C      1  0.5013890000000  0.5395010000000  0.4449070000000 1.0
C      1  0.5464870000000  0.5395030000000  0.5278650000000 1.0
C      1  0.4520950000000  0.5395020000000  0.5254420000000 1.0
C      1  0.4772810000000  0.5382320000000  0.4616180000000 1.0
C      1  0.5440700000000  0.5382340000000  0.4986320000000 1.0
C      1  0.4786200000000  0.5382340000000  0.5379650000000 1.0
C      1  0.4772820000000  0.4647650000000  0.4616200000000 1.0
C      1  0.5440710000000  0.4647670000000  0.4986340000000 1.0
C      1  0.4786210000000  0.4647670000000  0.5379670000000 1.0
C      1  0.5412350000000  0.4471710000000  0.4764140000000 1.0
C      1  0.4992830000000  0.4471720000000  0.5466220000000 1.0
C      1  0.4594560000000  0.4471700000000  0.4751860000000 1.0
C      1  0.5412340000000  0.5558280000000  0.4764110000000 1.0
C      1  0.4992810000000  0.5558300000000  0.5466200000000 1.0
C      1  0.4594550000000  0.5558270000000  0.4751830000000 1.0
C      1  0.5064480000000  0.5150940000000  0.4303410000000 1.0
C      1  0.5565730000000  0.5150980000000  0.5395300000000 1.0
C      1  0.4369510000000  0.5150960000000  0.5283450000000 1.0
C      1  0.5064490000000  0.4879020000000  0.4303420000000 1.0
C      1  0.5565730000000  0.4879050000000  0.5395310000000 1.0
C      1  0.4369510000000  0.4879040000000  0.5283460000000 1.0
C      1  0.4905240000000  0.4874050000000  0.5256980000000 1.0
C      1  0.4819560000000  0.4874040000000  0.4780610000000 1.0
C      1  0.5274940000000  0.4874050000000  0.4944600000000 1.0
C      1  0.4905230000000  0.5155960000000  0.5256970000000 1.0
C      1  0.4819550000000  0.5155950000000  0.4780610000000 1.0
C      1  0.5274940000000  0.5155950000000  0.4944590000000 1.0
C      1  0.5235790000000  0.5544900000000  0.4554960000000 1.0
C      1  0.5262220000000  0.5544920000000  0.5417870000000 1.0
C      1  0.4501700000000  0.5544900000000  0.5009300000000 1.0
C      1  0.5235800000000  0.4485080000000  0.4554990000000 1.0
C      1  0.5262230000000  0.4485110000000  0.5417900000000 1.0
C      1  0.4501710000000  0.4485090000000  0.5009330000000 1.0
C      1  0.4999910000000  0.5231560000000  0.4994050000000 1.0
C      1  0.4999910000000  0.4798440000000  0.4994060000000 1.0
END
