TITL C-3201379-3821-1945 -14006.3695200822 125000 -814.801783514026 0 0 131 (C1) n - 1
REM
REM in /home/nfs/bkarasulu/CARBON/AIRSS/Generating-Clusters/LCBOP/Higher-Symm/SD-CG/FIRE-CG
REM
REM
REM
REM
REM
REM ./C.cell (b20cbc046b6831c77cfcea5457e17084)
REM AIRSS Version 0.9.1 bugfix July 2018 build 013d7b7c2542+ Fri, 06 Jul 2018 19:26:36 +0100
REM compiler GCC version 9.2.1 20190827 (Red Hat 9.2.1-1)
REM options -cpp -mtune=generic -march=x86-64 -g -O0 -fpre-include=/usr/include/finclude/math-vector-fortran.h
REM seed 1673287884 -548651640 -1330615214 691787564 -880403751 2068236386 1522151886 -425004532 320639692 -610190947 307287514 -447048499 1701000196 23551340 -462286433 -881505510 575513371 -1765689571 -770070536 1018157962 -1622648504 1787692906 287875979 2140624763 -2020901933 -919784403 605187874 -568936247 -1078759859 135408275 -667448194 816800207 215020704
REM
CELL 1.54180   50.00000   50.00000   50.00000   90.00000   90.00000   90.00000
LATT -1
SFAC C  
C      1  0.4518400000000  0.5242810000000  0.4720690000000 1.0
C      1  0.4479800000000  0.4782060000000  0.5191170000000 1.0
C      1  0.5524440000000  0.5216220000000  0.5182890000000 1.0
C      1  0.5498650000000  0.4760100000000  0.4651110000000 1.0
C      1  0.4819270000000  0.4094700000000  0.4549950000000 1.0
C      1  0.4882240000000  0.5968700000000  0.5523910000000 1.0
C      1  0.5109930000000  0.4032890000000  0.5520680000000 1.0
C      1  0.5179210000000  0.5905390000000  0.4558310000000 1.0
C      1  0.3974610000000  0.5161130000000  0.4423030000000 1.0
C      1  0.4124460000000  0.4921480000000  0.5619720000000 1.0
C      1  0.5868580000000  0.5081030000000  0.5624200000000 1.0
C      1  0.6032740000000  0.4849220000000  0.4410120000000 1.0
C      1  0.5625610000000  0.5233920000000  0.5651730000000 1.0
C      1  0.5810270000000  0.4709250000000  0.4283890000000 1.0
C      1  0.4185930000000  0.5270850000000  0.4257680000000 1.0
C      1  0.4366600000000  0.4768530000000  0.5653990000000 1.0
C      1  0.4878470000000  0.5295140000000  0.5483490000000 1.0
C      1  0.4714260000000  0.4781810000000  0.4476530000000 1.0
C      1  0.5288930000000  0.5246570000000  0.4472580000000 1.0
C      1  0.5118300000000  0.4706330000000  0.5479430000000 1.0
C      1  0.4639840000000  0.5073090000000  0.4901000000000 1.0
C      1  0.4613800000000  0.4798930000000  0.4947030000000 1.0
C      1  0.5406390000000  0.5203660000000  0.4931290000000 1.0
C      1  0.5382010000000  0.4935610000000  0.4856030000000 1.0
C      1  0.4085150000000  0.5044950000000  0.4664070000000 1.0
C      1  0.4129190000000  0.5046150000000  0.5355750000000 1.0
C      1  0.5869810000000  0.4955820000000  0.5360190000000 1.0
C      1  0.5936660000000  0.4969830000000  0.4662070000000 1.0
C      1  0.4329530000000  0.5271060000000  0.5351970000000 1.0
C      1  0.4232800000000  0.4784300000000  0.4609820000000 1.0
C      1  0.5783560000000  0.5237060000000  0.4613160000000 1.0
C      1  0.5667320000000  0.4731980000000  0.5353020000000 1.0
C      1  0.6112770000000  0.6432200000000  0.3953810000000 1.0
C      1  0.5248300000000  0.5108980000000  0.5883770000000 1.0
C      1  0.4748640000000  0.4890160000000  0.5883840000000 1.0
C      1  0.3872470000000  0.3567740000000  0.3966010000000 1.0
C      1  0.5357850000000  0.5631480000000  0.5678000000000 1.0
C      1  0.5125330000000  0.4634220000000  0.4333400000000 1.0
C      1  0.4852240000000  0.5365970000000  0.4344970000000 1.0
C      1  0.4636400000000  0.4371810000000  0.5669410000000 1.0
C      1  0.5395970000000  0.4826920000000  0.5436310000000 1.0
C      1  0.5560020000000  0.5160140000000  0.4423570000000 1.0
C      1  0.4443200000000  0.4840820000000  0.4405510000000 1.0
C      1  0.4600960000000  0.5176810000000  0.5438920000000 1.0
C      1  0.4416630000000  0.4288690000000  0.4797540000000 1.0
C      1  0.4470690000000  0.5753960000000  0.5267190000000 1.0
C      1  0.5521750000000  0.4248000000000  0.5268950000000 1.0
C      1  0.5588010000000  0.5722450000000  0.4806790000000 1.0
C      1  0.4872590000000  0.5172420000000  0.5002610000000 1.0
C      1  0.4767500000000  0.4670250000000  0.4743400000000 1.0
C      1  0.5242750000000  0.5345910000000  0.4744430000000 1.0
C      1  0.5166830000000  0.4821360000000  0.4981870000000 1.0
C      1  0.5360080000000  0.4199340000000  0.5506370000000 1.0
C      1  0.5463120000000  0.5883560000000  0.4604920000000 1.0
C      1  0.4536260000000  0.4121610000000  0.4598080000000 1.0
C      1  0.4631640000000  0.5801950000000  0.5506450000000 1.0
C      1  0.4956070000000  0.4870560000000  0.4337140000000 1.0
C      1  0.5049250000000  0.5139450000000  0.5671840000000 1.0
C      1  0.4947770000000  0.4859820000000  0.5671360000000 1.0
C      1  0.5044950000000  0.5148880000000  0.4341660000000 1.0
C      1  0.4982890000000  0.4043740000000  0.5780180000000 1.0
C      1  0.5075090000000  0.5812720000000  0.4311730000000 1.0
C      1  0.4917250000000  0.4184860000000  0.4299900000000 1.0
C      1  0.5007370000000  0.5956570000000  0.5784690000000 1.0
C      1  0.5086700000000  0.6036480000000  0.5313740000000 1.0
C      1  0.5015860000000  0.4027780000000  0.4745240000000 1.0
C      1  0.4984040000000  0.5971690000000  0.4754410000000 1.0
C      1  0.4907560000000  0.3966580000000  0.5308500000000 1.0
C      1  0.5694500000000  0.4485140000000  0.5220240000000 1.0
C      1  0.5779780000000  0.5480760000000  0.4780490000000 1.0
C      1  0.4230790000000  0.4535130000000  0.4771760000000 1.0
C      1  0.4297280000000  0.5517700000000  0.5218750000000 1.0
C      1  0.5558610000000  0.5804010000000  0.5093900000000 1.0
C      1  0.5462600000000  0.4147480000000  0.4991970000000 1.0
C      1  0.4534130000000  0.5849440000000  0.4989500000000 1.0
C      1  0.4440150000000  0.4202120000000  0.5083640000000 1.0
C      1  0.4586260000000  0.5397630000000  0.5890910000000 1.0
C      1  0.4198860000000  0.3833550000000  0.4281030000000 1.0
C      1  0.5793210000000  0.6169440000000  0.4278260000000 1.0
C      1  0.5408010000000  0.4601750000000  0.5891060000000 1.0
C      1  0.5715750000000  0.4254210000000  0.4524050000000 1.0
C      1  0.5803890000000  0.5657760000000  0.5509730000000 1.0
C      1  0.4191340000000  0.4346840000000  0.5497390000000 1.0
C      1  0.4303010000000  0.5723960000000  0.4513590000000 1.0
C      1  0.4240480000000  0.5264100000000  0.4787580000000 1.0
C      1  0.4184900000000  0.4816090000000  0.5168160000000 1.0
C      1  0.5820460000000  0.5188740000000  0.5172160000000 1.0
C      1  0.5780600000000  0.4733430000000  0.4784310000000 1.0
C      1  0.5248900000000  0.4591530000000  0.4591180000000 1.0
C      1  0.5241660000000  0.5627990000000  0.5417040000000 1.0
C      1  0.4754450000000  0.4376470000000  0.5408600000000 1.0
C      1  0.4718160000000  0.5387730000000  0.4587980000000 1.0
C      1  0.5181550000000  0.4155120000000  0.4936200000000 1.0
C      1  0.5317130000000  0.5857320000000  0.5251030000000 1.0
C      1  0.4679330000000  0.4146890000000  0.5242740000000 1.0
C      1  0.4815770000000  0.5840570000000  0.4939410000000 1.0
C      1  0.5580430000000  0.4871450000000  0.4373920000000 1.0
C      1  0.5442150000000  0.5121330000000  0.5441590000000 1.0
C      1  0.4554740000000  0.4882930000000  0.5449340000000 1.0
C      1  0.4377530000000  0.5055070000000  0.4219290000000 1.0
C      1  0.5888000000000  0.5447080000000  0.5059540000000 1.0
C      1  0.5780590000000  0.4492890000000  0.4942990000000 1.0
C      1  0.4212890000000  0.5507710000000  0.4939530000000 1.0
C      1  0.4116360000000  0.4562520000000  0.5048420000000 1.0
C      1  0.5782470000000  0.4427280000000  0.4324030000000 1.0
C      1  0.5617920000000  0.5517810000000  0.5676870000000 1.0
C      1  0.4375190000000  0.4483720000000  0.5669680000000 1.0
C      1  0.4252320000000  0.5544100000000  0.4314070000000 1.0
C      1  0.5044830000000  0.4399760000000  0.4200380000000 1.0
C      1  0.5217860000000  0.5799070000000  0.5856850000000 1.0
C      1  0.4773370000000  0.4203340000000  0.5849580000000 1.0
C      1  0.4928570000000  0.5606940000000  0.4219300000000 1.0
C      1  0.5792480000000  0.5672950000000  0.5226470000000 1.0
C      1  0.5665060000000  0.4256640000000  0.4803740000000 1.0
C      1  0.4334010000000  0.5740320000000  0.4797170000000 1.0
C      1  0.4205530000000  0.4333010000000  0.5213940000000 1.0
C      1  0.5001470000000  0.5507330000000  0.5323440000000 1.0
C      1  0.5048250000000  0.4600010000000  0.4829020000000 1.0
C      1  0.4972430000000  0.5398390000000  0.4849850000000 1.0
C      1  0.4994160000000  0.4498290000000  0.5312480000000 1.0
C      1  0.5362480000000  0.4864850000000  0.5954160000000 1.0
C      1  0.5954350000000  0.6302150000000  0.4114930000000 1.0
C      1  0.4034270000000  0.3699320000000  0.4122450000000 1.0
C      1  0.4634020000000  0.5134590000000  0.5954100000000 1.0
C      1  0.5409820000000  0.4375700000000  0.5736630000000 1.0
C      1  0.5632100000000  0.6034900000000  0.4439790000000 1.0
C      1  0.4363460000000  0.3969460000000  0.4437830000000 1.0
C      1  0.4581770000000  0.5623800000000  0.5736100000000 1.0
C      1  0.4934400000000  0.5605980000000  0.5052280000000 1.0
C      1  0.5064030000000  0.4394610000000  0.5041760000000 1.0
C      1  0.5023920000000  0.4992540000000  0.5140100000000 1.0
END
