TITL C-3201379-3821-1259 -7.37022634433598e-07 125000 -529.949532582304 0 0 90 (C1) n - 1
REM
REM in /home/nfs/bkarasulu/CARBON/AIRSS/Generating-Clusters/LCBOP/Higher-Symm/SD-CG/FIRE-CG
REM
REM
REM
REM
REM
REM ./C.cell (b20cbc046b6831c77cfcea5457e17084)
REM AIRSS Version 0.9.1 bugfix July 2018 build 013d7b7c2542+ Fri, 06 Jul 2018 19:26:36 +0100
REM compiler GCC version 9.2.1 20190827 (Red Hat 9.2.1-1)
REM options -cpp -mtune=generic -march=x86-64 -g -O0 -fpre-include=/usr/include/finclude/math-vector-fortran.h
REM seed -594397705 1282985067 502953463 78541120 1226424932 -852594220 944370045 -783987967 -2142871701 -1784529937 611685739 2057462647 334682193 -659890316 1916209251 634890316 -1002420992 1313800404 578051605 1140548006 522047259 48954137 -763420768 1804318859 -557515502 -1272085039 1066320523 -70609729 -2021616819 489135381 2101020136 -723995131 -1828007789
REM
CELL 1.54180   50.00000   50.00000   50.00000   90.00000   90.00000   90.00000
LATT -1
SFAC C  
C      1  0.5510820000000  0.5355490000000  0.5279060000000 1.0
C      1  0.5011800000000  0.5444760000000  0.5283340000000 1.0
C      1  0.4561360000000  0.5295770000000  0.5310700000000 1.0
C      1  0.4434510000000  0.4861500000000  0.5317420000000 1.0
C      1  0.4701160000000  0.4494040000000  0.5318160000000 1.0
C      1  0.5155590000000  0.4481360000000  0.5313370000000 1.0
C      1  0.5433940000000  0.4864490000000  0.5288020000000 1.0
C      1  0.4522530000000  0.5339830000000  0.5808920000000 1.0
C      1  0.4386100000000  0.4856650000000  0.5819530000000 1.0
C      1  0.4681620000000  0.4449900000000  0.5820060000000 1.0
C      1  0.5183950000000  0.4433160000000  0.5811600000000 1.0
C      1  0.5514750000000  0.4811810000000  0.5780650000000 1.0
C      1  0.5591280000000  0.5433990000000  0.5757620000000 1.0
C      1  0.4980960000000  0.5546530000000  0.5772540000000 1.0
C      1  0.5450990000000  0.5474020000000  0.4370320000000 1.0
C      1  0.4923340000000  0.5627580000000  0.4383500000000 1.0
C      1  0.4465030000000  0.5323480000000  0.4395360000000 1.0
C      1  0.4410530000000  0.4776660000000  0.4397500000000 1.0
C      1  0.4808830000000  0.4399410000000  0.4395800000000 1.0
C      1  0.5351340000000  0.4484630000000  0.4389880000000 1.0
C      1  0.5633710000000  0.4954070000000  0.4377430000000 1.0
C      1  0.5476640000000  0.4301100000000  0.4562290000000 1.0
C      1  0.5848480000000  0.4925900000000  0.4556480000000 1.0
C      1  0.5604730000000  0.5645580000000  0.4533030000000 1.0
C      1  0.4890130000000  0.5845010000000  0.4558740000000 1.0
C      1  0.4266470000000  0.5437290000000  0.4558870000000 1.0
C      1  0.4192880000000  0.4691840000000  0.4553830000000 1.0
C      1  0.4738140000000  0.4178680000000  0.4554730000000 1.0
C      1  0.4628760000000  0.4888970000000  0.5101480000000 1.0
C      1  0.4792290000000  0.4667010000000  0.5101910000000 1.0
C      1  0.5067390000000  0.4653570000000  0.5099230000000 1.0
C      1  0.5239440000000  0.4866190000000  0.5075040000000 1.0
C      1  0.5395890000000  0.5281440000000  0.5029310000000 1.0
C      1  0.4952120000000  0.5256320000000  0.5072770000000 1.0
C      1  0.4697710000000  0.5156050000000  0.5098120000000 1.0
C      1  0.4187510000000  0.4822950000000  0.5984790000000 1.0
C      1  0.4588600000000  0.4271290000000  0.5985370000000 1.0
C      1  0.5272310000000  0.4252440000000  0.5977210000000 1.0
C      1  0.5721190000000  0.4785800000000  0.5937380000000 1.0
C      1  0.5728410000000  0.5540030000000  0.5952170000000 1.0
C      1  0.5014330000000  0.5756270000000  0.5923380000000 1.0
C      1  0.4376880000000  0.5479110000000  0.5974090000000 1.0
C      1  0.5098520000000  0.4614460000000  0.5586680000000 1.0
C      1  0.5299310000000  0.4859670000000  0.5574790000000 1.0
C      1  0.5446390000000  0.5319620000000  0.5549260000000 1.0
C      1  0.4963470000000  0.5322500000000  0.5571470000000 1.0
C      1  0.4669970000000  0.5202970000000  0.5584680000000 1.0
C      1  0.4582810000000  0.4890250000000  0.5591830000000 1.0
C      1  0.4774300000000  0.4626560000000  0.5592350000000 1.0
C      1  0.5527840000000  0.4210910000000  0.4808030000000 1.0
C      1  0.5935920000000  0.4917430000000  0.4807780000000 1.0
C      1  0.5667800000000  0.5748430000000  0.4771740000000 1.0
C      1  0.4843960000000  0.5924380000000  0.4809100000000 1.0
C      1  0.4143540000000  0.5450710000000  0.4795400000000 1.0
C      1  0.4088070000000  0.4617050000000  0.4787500000000 1.0
C      1  0.4703320000000  0.4062540000000  0.4792280000000 1.0
C      1  0.5548270000000  0.5215150000000  0.4311500000000 1.0
C      1  0.5185080000000  0.5550350000000  0.4312690000000 1.0
C      1  0.4695110000000  0.5471380000000  0.4328870000000 1.0
C      1  0.4442150000000  0.5049170000000  0.4338120000000 1.0
C      1  0.4612020000000  0.4590700000000  0.4337590000000 1.0
C      1  0.5079010000000  0.4444090000000  0.4333030000000 1.0
C      1  0.5487220000000  0.4720640000000  0.4317110000000 1.0
C      1  0.5872850000000  0.4978740000000  0.5077270000000 1.0
C      1  0.5617120000000  0.5721780000000  0.5048850000000 1.0
C      1  0.4816120000000  0.5824530000000  0.5070880000000 1.0
C      1  0.4169860000000  0.5377020000000  0.5066130000000 1.0
C      1  0.4142750000000  0.4592390000000  0.5063260000000 1.0
C      1  0.4747750000000  0.4094330000000  0.5069270000000 1.0
C      1  0.5511350000000  0.4277550000000  0.5081550000000 1.0
C      1  0.5695360000000  0.4778870000000  0.5207340000000 1.0
C      1  0.5747770000000  0.5492250000000  0.5187370000000 1.0
C      1  0.5059710000000  0.5712250000000  0.5190460000000 1.0
C      1  0.4395470000000  0.5498520000000  0.5207790000000 1.0
C      1  0.4173960000000  0.4845750000000  0.5208770000000 1.0
C      1  0.4561360000000  0.4273140000000  0.5210440000000 1.0
C      1  0.5252090000000  0.4236480000000  0.5212640000000 1.0
C      1  0.5339140000000  0.5788920000000  0.5137880000000 1.0
C      1  0.4550080000000  0.5736140000000  0.5150890000000 1.0
C      1  0.4074870000000  0.5110910000000  0.5143400000000 1.0
C      1  0.4289920000000  0.4352470000000  0.5144660000000 1.0
C      1  0.5026880000000  0.4064110000000  0.5153330000000 1.0
C      1  0.5692860000000  0.4490480000000  0.5167360000000 1.0
C      1  0.5923130000000  0.5261770000000  0.5145230000000 1.0
C      1  0.4978630000000  0.4988700000000  0.3887640000000 1.0
C      1  0.4997200000000  0.5000390000000  0.4147430000000 1.0
C      1  0.5121600000000  0.5079480000000  0.4652960000000 1.0
C      1  0.5214160000000  0.5151500000000  0.5599670000000 1.0
C      1  0.5173140000000  0.5117400000000  0.4936670000000 1.0
C      1  0.5031510000000  0.5022210000000  0.4410090000000 1.0
END
