TITL C-3201377-4638-1690 4.93072758618403 125000 -883.724736313847 0 0 147 (C1) n - 1
REM
REM in /home/nfs/bkarasulu/CARBON/AIRSS/Generating-Clusters/LCBOP/Higher-Symm/SD-CG/FIRE-CG
REM
REM
REM
REM
REM
REM ./C.cell (b20cbc046b6831c77cfcea5457e17084)
REM AIRSS Version 0.9.1 bugfix July 2018 build 013d7b7c2542+ Fri, 06 Jul 2018 19:26:36 +0100
REM compiler GCC version 9.2.1 20190827 (Red Hat 9.2.1-1)
REM options -cpp -mtune=generic -march=x86-64 -g -O0 -fpre-include=/usr/include/finclude/math-vector-fortran.h
REM seed 1544231350 513418024 277238529 311809187 78002503 142445827 -7310161 -1411480148 1912239626 90907947 1620914698 -845487012 -348832057 1637227136 1217316650 1381832749 -289274535 465126384 484342774 -747860259 828260244 -642921719 -1831906955 -1360688781 569787356 -539259550 -367180902 646316599 -500274827 942912045 -955063726 864839892 -1434355090
REM
CELL 1.54180   50.00000   50.00000   50.00000   90.00000   90.00000   90.00000
LATT -1
SFAC C  
C      1  0.4952620000000  0.5094410000000  0.4385470000000 1.0
C      1  0.4698220000000  0.5738100000000  0.4391950000000 1.0
C      1  0.4420580000000  0.4450200000000  0.4826100000000 1.0
C      1  0.5816260000000  0.4658950000000  0.5431400000000 1.0
C      1  0.4709650000000  0.4728220000000  0.2541260000000 1.0
C      1  0.5597850000000  0.4897100000000  0.4755090000000 1.0
C      1  0.4767400000000  0.4493160000000  0.6115440000000 1.0
C      1  0.4674740000000  0.4169360000000  0.5498090000000 1.0
C      1  0.5210410000000  0.4684920000000  0.5608220000000 1.0
C      1  0.4982940000000  0.3926680000000  0.4426220000000 1.0
C      1  0.4279200000000  0.4947020000000  0.5934700000000 1.0
C      1  0.4650820000000  0.4823500000000  0.5029320000000 1.0
C      1  0.4454050000000  0.5847850000000  0.4831480000000 1.0
C      1  0.4826780000000  0.4884050000000  0.5760150000000 1.0
C      1  0.5196130000000  0.5370970000000  0.6150090000000 1.0
C      1  0.4369110000000  0.5205820000000  0.5206080000000 1.0
C      1  0.4226760000000  0.4279160000000  0.5639440000000 1.0
C      1  0.5092740000000  0.4785930000000  0.4797510000000 1.0
C      1  0.3803840000000  0.5408170000000  0.5643960000000 1.0
C      1  0.4164210000000  0.4522720000000  0.5230380000000 1.0
C      1  0.5541480000000  0.4703990000000  0.4935010000000 1.0
C      1  0.4545820000000  0.5666900000000  0.5429430000000 1.0
C      1  0.5065430000000  0.5552080000000  0.4083610000000 1.0
C      1  0.5679530000000  0.5642910000000  0.4862410000000 1.0
C      1  0.4643230000000  0.5897240000000  0.4621570000000 1.0
C      1  0.4378580000000  0.4911610000000  0.4610070000000 1.0
C      1  0.5184590000000  0.4420980000000  0.4450820000000 1.0
C      1  0.5343110000000  0.5447590000000  0.4080440000000 1.0
C      1  0.6363010000000  0.4156250000000  0.5123850000000 1.0
C      1  0.5075980000000  0.4288210000000  0.5797040000000 1.0
C      1  0.4673630000000  0.4821430000000  0.5548110000000 1.0
C      1  0.5940410000000  0.5210830000000  0.5426070000000 1.0
C      1  0.4988170000000  0.5569120000000  0.4860360000000 1.0
C      1  0.4978940000000  0.5621320000000  0.5136300000000 1.0
C      1  0.4542030000000  0.4477650000000  0.5936890000000 1.0
C      1  0.5226200000000  0.4040370000000  0.4885000000000 1.0
C      1  0.6084900000000  0.5179880000000  0.4939190000000 1.0
C      1  0.5961340000000  0.4722320000000  0.4465280000000 1.0
C      1  0.4632470000000  0.4735750000000  0.5297820000000 1.0
C      1  0.5554590000000  0.5887160000000  0.4778120000000 1.0
C      1  0.3779060000000  0.4415430000000  0.5510580000000 1.0
C      1  0.4900920000000  0.3724810000000  0.5371570000000 1.0
C      1  0.5115650000000  0.4675910000000  0.4547290000000 1.0
C      1  0.4239790000000  0.6050650000000  0.5436640000000 1.0
C      1  0.4984140000000  0.4820370000000  0.4331240000000 1.0
C      1  0.5357930000000  0.5921270000000  0.5688850000000 1.0
C      1  0.5823580000000  0.4859680000000  0.4260100000000 1.0
C      1  0.6024990000000  0.5057450000000  0.5193940000000 1.0
C      1  0.4479260000000  0.5013770000000  0.4059100000000 1.0
C      1  0.4517330000000  0.5630350000000  0.5714700000000 1.0
C      1  0.4928180000000  0.5251470000000  0.6198840000000 1.0
C      1  0.5109850000000  0.4236470000000  0.5050970000000 1.0
C      1  0.5995390000000  0.5281530000000  0.4421860000000 1.0
C      1  0.5629760000000  0.4773480000000  0.4065830000000 1.0
C      1  0.4226430000000  0.5389630000000  0.4683060000000 1.0
C      1  0.4356450000000  0.4692550000000  0.5958470000000 1.0
C      1  0.4599880000000  0.4114400000000  0.4205330000000 1.0
C      1  0.5421080000000  0.4719500000000  0.5173810000000 1.0
C      1  0.4840240000000  0.5349660000000  0.4019030000000 1.0
C      1  0.4315310000000  0.5429080000000  0.4418940000000 1.0
C      1  0.5089780000000  0.5272120000000  0.5595290000000 1.0
C      1  0.4509970000000  0.4721650000000  0.4796180000000 1.0
C      1  0.5375610000000  0.4849660000000  0.5441110000000 1.0
C      1  0.5083770000000  0.3922400000000  0.4673630000000 1.0
C      1  0.4780600000000  0.4695390000000  0.3065520000000 1.0
C      1  0.4822480000000  0.6101390000000  0.5029950000000 1.0
C      1  0.5546370000000  0.5240850000000  0.4097990000000 1.0
C      1  0.5515130000000  0.4176630000000  0.5486540000000 1.0
C      1  0.4408570000000  0.4927140000000  0.4316030000000 1.0
C      1  0.5700560000000  0.4383980000000  0.5461340000000 1.0
C      1  0.5070340000000  0.4369110000000  0.5280720000000 1.0
C      1  0.5258380000000  0.5121960000000  0.5430240000000 1.0
C      1  0.4539740000000  0.3900140000000  0.5113770000000 1.0
C      1  0.4816010000000  0.4679100000000  0.3327630000000 1.0
C      1  0.4018060000000  0.5313940000000  0.5758620000000 1.0
C      1  0.5496100000000  0.6057860000000  0.4999800000000 1.0
C      1  0.4895040000000  0.4985460000000  0.6306230000000 1.0
C      1  0.4109900000000  0.4791620000000  0.5144190000000 1.0
C      1  0.6235600000000  0.4373290000000  0.5056240000000 1.0
C      1  0.4483840000000  0.5393370000000  0.5876350000000 1.0
C      1  0.5488400000000  0.3969300000000  0.4921930000000 1.0
C      1  0.4399160000000  0.4185840000000  0.4367130000000 1.0
C      1  0.4261240000000  0.5217270000000  0.5857360000000 1.0
C      1  0.5379610000000  0.5924930000000  0.4561120000000 1.0
C      1  0.5445740000000  0.5527270000000  0.5257960000000 1.0
C      1  0.4583810000000  0.5481600000000  0.4370090000000 1.0
C      1  0.4529190000000  0.4159700000000  0.5232530000000 1.0
C      1  0.5298980000000  0.5179850000000  0.4967210000000 1.0
C      1  0.5361610000000  0.5268740000000  0.5220880000000 1.0
C      1  0.5022520000000  0.4354690000000  0.4219910000000 1.0
C      1  0.4704010000000  0.3698180000000  0.5187830000000 1.0
C      1  0.5276630000000  0.4027330000000  0.5503080000000 1.0
C      1  0.5688810000000  0.5615950000000  0.5148040000000 1.0
C      1  0.4956510000000  0.6182840000000  0.5287480000000 1.0
C      1  0.5236020000000  0.5710010000000  0.5226640000000 1.0
C      1  0.4765830000000  0.5281550000000  0.4294580000000 1.0
C      1  0.4819470000000  0.4726790000000  0.6273080000000 1.0
C      1  0.5121470000000  0.5458440000000  0.4660280000000 1.0
C      1  0.4949640000000  0.5743540000000  0.5808150000000 1.0
C      1  0.4438690000000  0.5907150000000  0.5317060000000 1.0
C      1  0.4351000000000  0.4296330000000  0.4604420000000 1.0
C      1  0.4878250000000  0.4112650000000  0.4240990000000 1.0
C      1  0.5988850000000  0.4763850000000  0.5211080000000 1.0
C      1  0.4272500000000  0.5627570000000  0.4835470000000 1.0
C      1  0.4645090000000  0.5273080000000  0.5166170000000 1.0
C      1  0.5478010000000  0.4984030000000  0.3970860000000 1.0
C      1  0.5336420000000  0.5977000000000  0.5212850000000 1.0
C      1  0.5520320000000  0.5165940000000  0.4790410000000 1.0
C      1  0.4371010000000  0.4365700000000  0.5097770000000 1.0
C      1  0.5969440000000  0.5295940000000  0.4704250000000 1.0
C      1  0.4047410000000  0.4406140000000  0.5462720000000 1.0
C      1  0.4881160000000  0.4662280000000  0.3853100000000 1.0
C      1  0.5059390000000  0.5030750000000  0.4933280000000 1.0
C      1  0.5156110000000  0.5239710000000  0.4511660000000 1.0
C      1  0.4745130000000  0.4711800000000  0.2803430000000 1.0
C      1  0.5656020000000  0.4874720000000  0.5556490000000 1.0
C      1  0.4976470000000  0.5768430000000  0.4291010000000 1.0
C      1  0.5289490000000  0.4934500000000  0.5990010000000 1.0
C      1  0.4794980000000  0.5072770000000  0.5024940000000 1.0
C      1  0.5095730000000  0.4824870000000  0.5820580000000 1.0
C      1  0.5386530000000  0.5196440000000  0.6007350000000 1.0
C      1  0.6042890000000  0.4658020000000  0.4714780000000 1.0
C      1  0.5444580000000  0.5677270000000  0.5847960000000 1.0
C      1  0.4976270000000  0.4318950000000  0.6044150000000 1.0
C      1  0.4942000000000  0.4620140000000  0.4120320000000 1.0
C      1  0.5101430000000  0.5942080000000  0.4509890000000 1.0
C      1  0.5298480000000  0.5637230000000  0.6099450000000 1.0
C      1  0.5203040000000  0.6098670000000  0.5429700000000 1.0
C      1  0.4737310000000  0.5523290000000  0.5263930000000 1.0
C      1  0.4674760000000  0.4744370000000  0.2283410000000 1.0
C      1  0.4893820000000  0.6031440000000  0.4726740000000 1.0
C      1  0.4978890000000  0.3969160000000  0.5491850000000 1.0
C      1  0.4643650000000  0.5175040000000  0.3889740000000 1.0
C      1  0.5565020000000  0.5334320000000  0.5807060000000 1.0
C      1  0.5112810000000  0.4433070000000  0.5554860000000 1.0
C      1  0.4223580000000  0.5112440000000  0.4764620000000 1.0
C      1  0.4690470000000  0.5348590000000  0.6071500000000 1.0
C      1  0.4692440000000  0.5814430000000  0.5842730000000 1.0
C      1  0.4504860000000  0.4290660000000  0.5711900000000 1.0
C      1  0.5733080000000  0.5156490000000  0.5623590000000 1.0
C      1  0.4194000000000  0.5047710000000  0.5046670000000 1.0
C      1  0.4548530000000  0.5982620000000  0.5068220000000 1.0
C      1  0.5700430000000  0.5384180000000  0.4751630000000 1.0
C      1  0.6086320000000  0.4601650000000  0.4991960000000 1.0
C      1  0.4850560000000  0.4665100000000  0.3589970000000 1.0
C      1  0.5801550000000  0.5159250000000  0.4252380000000 1.0
C      1  0.5033730000000  0.5514000000000  0.5692520000000 1.0
END
