TITL C-3201379-3821-692 -1.61622551841981e-06 125000 -431.463421172186 0 0 71 (C1) n - 1
REM
REM in /home/nfs/bkarasulu/CARBON/AIRSS/Generating-Clusters/LCBOP/Higher-Symm/SD-CG/FIRE-CG
REM
REM
REM
REM
REM
REM ./C.cell (b20cbc046b6831c77cfcea5457e17084)
REM AIRSS Version 0.9.1 bugfix July 2018 build 013d7b7c2542+ Fri, 06 Jul 2018 19:26:36 +0100
REM compiler GCC version 9.2.1 20190827 (Red Hat 9.2.1-1)
REM options -cpp -mtune=generic -march=x86-64 -g -O0 -fpre-include=/usr/include/finclude/math-vector-fortran.h
REM seed -2112977924 1002067363 418696949 2110865952 -466697031 -1168079471 -1257148029 1439252811 -1348119270 1448755170 -1415431877 572535645 1210019654 -1919330718 1409487170 -1209201524 1788827490 -355077068 -1809756996 1208433429 -962316632 312273302 -1606258561 -1376760799 1480723157 -1803578889 849923992 582532376 -715910847 1484474066 -1785085445 1146730969 979544814
REM
CELL 1.54180   50.00000   50.00000   50.00000   90.00000   90.00000   90.00000
LATT -1
SFAC C  
C      1  0.5236670000000  0.5050860000000  0.4874560000000 1.0
C      1  0.4766870000000  0.4942300000000  0.5179300000000 1.0
C      1  0.4111840000000  0.5314430000000  0.5052760000000 1.0
C      1  0.5256290000000  0.5204550000000  0.5783720000000 1.0
C      1  0.5459400000000  0.4082640000000  0.4396780000000 1.0
C      1  0.5945780000000  0.5599010000000  0.5070810000000 1.0
C      1  0.5112910000000  0.5403550000000  0.5626560000000 1.0
C      1  0.4415250000000  0.4447850000000  0.5546910000000 1.0
C      1  0.4897520000000  0.4308560000000  0.4168320000000 1.0
C      1  0.3964550000000  0.5252770000000  0.5273040000000 1.0
C      1  0.5115940000000  0.4910670000000  0.4670390000000 1.0
C      1  0.4949830000000  0.4733160000000  0.5742770000000 1.0
C      1  0.4483000000000  0.4583060000000  0.5770880000000 1.0
C      1  0.5689050000000  0.5662150000000  0.5191400000000 1.0
C      1  0.4489660000000  0.5788370000000  0.4870000000000 1.0
C      1  0.4546280000000  0.4883090000000  0.4685520000000 1.0
C      1  0.4922350000000  0.4480000000000  0.4893190000000 1.0
C      1  0.4973390000000  0.5118040000000  0.5276070000000 1.0
C      1  0.4972000000000  0.4519160000000  0.5553680000000 1.0
C      1  0.4489570000000  0.5031270000000  0.5196170000000 1.0
C      1  0.4447770000000  0.5146830000000  0.4719990000000 1.0
C      1  0.5678320000000  0.5382610000000  0.5629700000000 1.0
C      1  0.4843040000000  0.4377530000000  0.5338970000000 1.0
C      1  0.5413880000000  0.3785550000000  0.4018540000000 1.0
C      1  0.4415890000000  0.4655930000000  0.4821290000000 1.0
C      1  0.4868710000000  0.4523710000000  0.4346670000000 1.0
C      1  0.4844490000000  0.4746190000000  0.4985570000000 1.0
C      1  0.5477210000000  0.5700150000000  0.4988430000000 1.0
C      1  0.4598360000000  0.5053170000000  0.5833810000000 1.0
C      1  0.4596660000000  0.5869060000000  0.5101200000000 1.0
C      1  0.4492310000000  0.5620900000000  0.4661220000000 1.0
C      1  0.4995980000000  0.4482830000000  0.4608110000000 1.0
C      1  0.5234510000000  0.4659750000000  0.4595020000000 1.0
C      1  0.5317820000000  0.3989840000000  0.4172070000000 1.0
C      1  0.5529160000000  0.5261750000000  0.5818540000000 1.0
C      1  0.5167520000000  0.5659550000000  0.5514440000000 1.0
C      1  0.4552760000000  0.4415980000000  0.5300770000000 1.0
C      1  0.4667230000000  0.5246900000000  0.5659700000000 1.0
C      1  0.5039590000000  0.5497900000000  0.4497200000000 1.0
C      1  0.5073510000000  0.4115600000000  0.4111690000000 1.0
C      1  0.4675880000000  0.4782160000000  0.5827720000000 1.0
C      1  0.4819300000000  0.5317350000000  0.4430030000000 1.0
C      1  0.5219730000000  0.4152430000000  0.5066170000000 1.0
C      1  0.4831630000000  0.4883440000000  0.4724340000000 1.0
C      1  0.4837250000000  0.5071040000000  0.4277060000000 1.0
C      1  0.4434330000000  0.4496590000000  0.5046640000000 1.0
C      1  0.4310180000000  0.4964290000000  0.5407210000000 1.0
C      1  0.4357990000000  0.5189720000000  0.4985660000000 1.0
C      1  0.5484950000000  0.4530910000000  0.4587990000000 1.0
C      1  0.5412440000000  0.4143500000000  0.4878840000000 1.0
C      1  0.5306120000000  0.5427960000000  0.4571430000000 1.0
C      1  0.5617270000000  0.5434170000000  0.5362460000000 1.0
C      1  0.5480170000000  0.4245460000000  0.4624390000000 1.0
C      1  0.4063630000000  0.5071000000000  0.5449840000000 1.0
C      1  0.5927440000000  0.5358030000000  0.4934860000000 1.0
C      1  0.5652330000000  0.5270870000000  0.4917490000000 1.0
C      1  0.5082760000000  0.5806430000000  0.5283940000000 1.0
C      1  0.5227770000000  0.5828070000000  0.5034910000000 1.0
C      1  0.5509700000000  0.5227730000000  0.5185460000000 1.0
C      1  0.5145130000000  0.4937650000000  0.5799200000000 1.0
C      1  0.5723200000000  0.4668370000000  0.4546840000000 1.0
C      1  0.4986450000000  0.5765330000000  0.4582250000000 1.0
C      1  0.5237680000000  0.5129710000000  0.5147270000000 1.0
C      1  0.4570560000000  0.5363100000000  0.4577340000000 1.0
C      1  0.4829500000000  0.4797480000000  0.4253590000000 1.0
C      1  0.5081550000000  0.5895660000000  0.4799660000000 1.0
C      1  0.4988820000000  0.4306220000000  0.5104950000000 1.0
C      1  0.4808870000000  0.5876440000000  0.5264000000000 1.0
C      1  0.5483630000000  0.5478100000000  0.4786390000000 1.0
C      1  0.5945770000000  0.4794930000000  0.4498360000000 1.0
C      1  0.4895060000000  0.5278650000000  0.5497980000000 1.0
END
