TITL C-3201372-1405-1343 6787.14082436966 125000 -649.919372822005 0 0 112 (C1) n - 1
REM
REM in /home/nfs/bkarasulu/CARBON/AIRSS/Generating-Clusters/LCBOP/Higher-Symm/SD-CG/FIRE-CG
REM
REM
REM
REM
REM
REM ./C.cell (b20cbc046b6831c77cfcea5457e17084)
REM AIRSS Version 0.9.1 bugfix July 2018 build 013d7b7c2542+ Fri, 06 Jul 2018 19:26:36 +0100
REM compiler GCC version 9.2.1 20190827 (Red Hat 9.2.1-1)
REM options -cpp -mtune=generic -march=x86-64 -g -O0 -fpre-include=/usr/include/finclude/math-vector-fortran.h
REM seed -184344942 -276973055 -2025369396 2030794739 -782348566 1817405892 -383185483 780492802 -407187217 -1953300673 -2023981730 357863705 -351566136 1315957130 -384186972 1756918994 -143659730 -65816813 7588199 -399162027 702379166 -345845141 -1830737328 1297712674 1743675678 -277696325 2145034127 -1093804499 -2033621363 1928077607 -1472219014 -1237145969 -923325319
REM
CELL 1.54180   50.00000   50.00000   50.00000   90.00000   90.00000   90.00000
LATT -1
SFAC C  
C      1  0.5217810000000  0.4518370000000  0.4699930000000 1.0
C      1  0.4605130000000  0.4535610000000  0.4958360000000 1.0
C      1  0.5135740000000  0.4563950000000  0.5390370000000 1.0
C      1  0.5340740000000  0.5509150000000  0.5387050000000 1.0
C      1  0.4825060000000  0.5391740000000  0.4914930000000 1.0
C      1  0.5167470000000  0.5562440000000  0.4448480000000 1.0
C      1  0.4423500000000  0.5553970000000  0.4498170000000 1.0
C      1  0.4876560000000  0.5439820000000  0.5741380000000 1.0
C      1  0.5643620000000  0.5541840000000  0.4657560000000 1.0
C      1  0.4341560000000  0.4503390000000  0.5490200000000 1.0
C      1  0.4844560000000  0.4488640000000  0.4275490000000 1.0
C      1  0.5698790000000  0.4505610000000  0.5212810000000 1.0
C      1  0.4209510000000  0.5298810000000  0.5298120000000 1.0
C      1  0.5735710000000  0.5262910000000  0.5560730000000 1.0
C      1  0.5201990000000  0.5228640000000  0.4089860000000 1.0
C      1  0.4231400000000  0.4721830000000  0.4650860000000 1.0
C      1  0.5682540000000  0.4664630000000  0.4515250000000 1.0
C      1  0.5170100000000  0.4713290000000  0.5862700000000 1.0
C      1  0.4688040000000  0.5432410000000  0.5541460000000 1.0
C      1  0.5696590000000  0.5375620000000  0.4897490000000 1.0
C      1  0.4625150000000  0.5386010000000  0.4374940000000 1.0
C      1  0.4705620000000  0.4714270000000  0.4339460000000 1.0
C      1  0.5716400000000  0.4728560000000  0.5054250000000 1.0
C      1  0.4536660000000  0.4563300000000  0.5679970000000 1.0
C      1  0.4974800000000  0.6148650000000  0.4794540000000 1.0
C      1  0.4631080000000  0.6031830000000  0.5185180000000 1.0
C      1  0.5131320000000  0.6120590000000  0.5362490000000 1.0
C      1  0.5052210000000  0.3958040000000  0.5393940000000 1.0
C      1  0.4656900000000  0.3908810000000  0.4964700000000 1.0
C      1  0.5188610000000  0.3892420000000  0.4794540000000 1.0
C      1  0.4096190000000  0.4763340000000  0.4914840000000 1.0
C      1  0.5455950000000  0.4742420000000  0.5815740000000 1.0
C      1  0.5522210000000  0.4697570000000  0.4262510000000 1.0
C      1  0.4084140000000  0.5222130000000  0.5042870000000 1.0
C      1  0.5476400000000  0.5202410000000  0.4193000000000 1.0
C      1  0.5561850000000  0.5226820000000  0.5792940000000 1.0
C      1  0.4591930000000  0.4048130000000  0.5213050000000 1.0
C      1  0.5311880000000  0.4034470000000  0.5277710000000 1.0
C      1  0.4997470000000  0.4003070000000  0.4604430000000 1.0
C      1  0.4585680000000  0.5888300000000  0.4939400000000 1.0
C      1  0.5237760000000  0.6075370000000  0.4878330000000 1.0
C      1  0.4969090000000  0.5965760000000  0.5543100000000 1.0
C      1  0.5063940000000  0.4852140000000  0.5306920000000 1.0
C      1  0.5221790000000  0.4806010000000  0.4795230000000 1.0
C      1  0.4711220000000  0.4806170000000  0.4896800000000 1.0
C      1  0.5098960000000  0.5267190000000  0.4576140000000 1.0
C      1  0.5316150000000  0.5241540000000  0.5242290000000 1.0
C      1  0.4674140000000  0.5235330000000  0.5086360000000 1.0
C      1  0.5142600000000  0.5797360000000  0.5709640000000 1.0
C      1  0.5395950000000  0.5951480000000  0.4678490000000 1.0
C      1  0.4397130000000  0.5664130000000  0.4979010000000 1.0
C      1  0.5128690000000  0.4167080000000  0.4403970000000 1.0
C      1  0.5455140000000  0.4212330000000  0.5455630000000 1.0
C      1  0.4357240000000  0.4210260000000  0.5163780000000 1.0
C      1  0.5848590000000  0.5109940000000  0.4861950000000 1.0
C      1  0.4518410000000  0.5113870000000  0.4316660000000 1.0
C      1  0.4784690000000  0.4961680000000  0.5720910000000 1.0
C      1  0.5862840000000  0.4963750000000  0.5126280000000 1.0
C      1  0.4518430000000  0.4856040000000  0.5695110000000 1.0
C      1  0.4731160000000  0.4950810000000  0.4183070000000 1.0
C      1  0.5248110000000  0.5978080000000  0.5147070000000 1.0
C      1  0.4792740000000  0.5934380000000  0.4733430000000 1.0
C      1  0.4698360000000  0.5902250000000  0.5432400000000 1.0
C      1  0.5331550000000  0.4098150000000  0.4967950000000 1.0
C      1  0.4830570000000  0.4170410000000  0.5381120000000 1.0
C      1  0.4733260000000  0.4099210000000  0.4737350000000 1.0
C      1  0.4385590000000  0.4476080000000  0.4657940000000 1.0
C      1  0.5033220000000  0.4524830000000  0.5683830000000 1.0
C      1  0.5581460000000  0.4441010000000  0.4667230000000 1.0
C      1  0.4344260000000  0.5569770000000  0.5260930000000 1.0
C      1  0.5079840000000  0.5484530000000  0.4160880000000 1.0
C      1  0.5654760000000  0.5501860000000  0.5404790000000 1.0
C      1  0.5216840000000  0.5694340000000  0.5180070000000 1.0
C      1  0.4923830000000  0.5753920000000  0.4550090000000 1.0
C      1  0.5009910000000  0.5572320000000  0.5027370000000 1.0
C      1  0.5153860000000  0.4338800000000  0.4913380000000 1.0
C      1  0.4983080000000  0.4373800000000  0.5229110000000 1.0
C      1  0.4798180000000  0.4339740000000  0.4906730000000 1.0
C      1  0.4344000000000  0.5486540000000  0.4758300000000 1.0
C      1  0.5165750000000  0.5488870000000  0.5664690000000 1.0
C      1  0.5421680000000  0.5691260000000  0.4562400000000 1.0
C      1  0.4394660000000  0.4513470000000  0.5194060000000 1.0
C      1  0.5109830000000  0.4475290000000  0.4406480000000 1.0
C      1  0.5464730000000  0.4515290000000  0.5399650000000 1.0
C      1  0.5424100000000  0.5262780000000  0.4985130000000 1.0
C      1  0.4846220000000  0.5308350000000  0.4651280000000 1.0
C      1  0.4732600000000  0.5231010000000  0.5351860000000 1.0
C      1  0.5472260000000  0.4803140000000  0.4945570000000 1.0
C      1  0.4845960000000  0.4997750000000  0.5444950000000 1.0
C      1  0.4723610000000  0.4790440000000  0.4606200000000 1.0
C      1  0.4544940000000  0.5655000000000  0.5454490000000 1.0
C      1  0.5780980000000  0.5531970000000  0.5145680000000 1.0
C      1  0.4792160000000  0.5496900000000  0.4153070000000 1.0
C      1  0.4488270000000  0.4222610000000  0.4585780000000 1.0
C      1  0.5588200000000  0.4204720000000  0.4821400000000 1.0
C      1  0.4774360000000  0.4397200000000  0.5668420000000 1.0
C      1  0.4290800000000  0.5186430000000  0.4808360000000 1.0
C      1  0.5261740000000  0.5185800000000  0.5731220000000 1.0
C      1  0.5535180000000  0.5101810000000  0.4462920000000 1.0
C      1  0.4295560000000  0.4815940000000  0.5155230000000 1.0
C      1  0.5215460000000  0.4776910000000  0.4299660000000 1.0
C      1  0.5532420000000  0.4806900000000  0.5522680000000 1.0
C      1  0.5030380000000  0.4977360000000  0.4120300000000 1.0
C      1  0.4308270000000  0.4999290000000  0.5440130000000 1.0
C      1  0.5789810000000  0.5010450000000  0.5414270000000 1.0
C      1  0.5038980000000  0.4973610000000  0.5862850000000 1.0
C      1  0.4311700000000  0.5003370000000  0.4535290000000 1.0
C      1  0.5749590000000  0.4954780000000  0.4608360000000 1.0
C      1  0.4511020000000  0.5014260000000  0.4982570000000 1.0
C      1  0.5251660000000  0.4995290000000  0.4556320000000 1.0
C      1  0.5297380000000  0.5011380000000  0.5425620000000 1.0
C      1  0.4997650000000  0.4849120000000  0.5001100000000 1.0
END
