TITL C-3201376-6384-894 2.00642081378171e-07 125000 -55.6121772014122 0 0 10 (D(inf)h) n - 1
REM
REM in /home/nfs/bkarasulu/CARBON/AIRSS/Generating-Clusters/LCBOP/Higher-Symm/SD-CG/FIRE-CG
REM
REM
REM
REM
REM
REM ./C.cell (b20cbc046b6831c77cfcea5457e17084)
REM AIRSS Version 0.9.1 bugfix July 2018 build 013d7b7c2542+ Fri, 06 Jul 2018 19:26:36 +0100
REM compiler GCC version 9.2.1 20190827 (Red Hat 9.2.1-1)
REM options -cpp -mtune=generic -march=x86-64 -g -O0 -fpre-include=/usr/include/finclude/math-vector-fortran.h
REM seed 453346270 1408956911 -78328325 -1250151513 960449517 581921371 -1971830430 -1096178898 311787847 718004408 286557961 -1519045571 623955510 596575806 515770302 -1266943755 -771513355 28983516 -1880895549 1288480745 207098748 2105577211 -1181710217 48602552 1056951576 167358555 -181345010 1416139210 -1906634030 -294006477 1812308431 -939760640 254464972
REM
CELL 1.54180   50.00000   50.00000   50.00000   90.00000   90.00000   90.00000
LATT -1
SFAC C  
C      1  0.4867500000000  0.4995270000000  0.4989540000000 1.0
C      1  0.4072440000000  0.4995270000000  0.4989540000000 1.0
C      1  0.5132500000000  0.4995270000000  0.4989540000000 1.0
C      1  0.5397490000000  0.4995270000000  0.4989540000000 1.0
C      1  0.4337510000000  0.4995270000000  0.4989540000000 1.0
C      1  0.6188260000000  0.4995270000000  0.4989540000000 1.0
C      1  0.5927560000000  0.4995270000000  0.4989540000000 1.0
C      1  0.4602510000000  0.4995270000000  0.4989540000000 1.0
C      1  0.3811740000000  0.4995270000000  0.4989540000000 1.0
C      1  0.5662490000000  0.4995270000000  0.4989540000000 1.0
END
