TITL C-3201375-1262-1396 -17.9421077737551 125000 -830.390677739605 0 0 135 (C1) n - 1
REM
REM in /home/nfs/bkarasulu/CARBON/AIRSS/Generating-Clusters/LCBOP/Higher-Symm/SD-CG/FIRE-CG
REM
REM
REM
REM
REM
REM ./C.cell (b20cbc046b6831c77cfcea5457e17084)
REM AIRSS Version 0.9.1 bugfix July 2018 build 013d7b7c2542+ Fri, 06 Jul 2018 19:26:36 +0100
REM compiler GCC version 9.2.1 20190827 (Red Hat 9.2.1-1)
REM options -cpp -mtune=generic -march=x86-64 -g -O0 -fpre-include=/usr/include/finclude/math-vector-fortran.h
REM seed 675854176 168271632 -1976406881 1513701065 -1117095698 -1501726843 398227571 1997068115 -1721190332 1707760284 -975420455 651849876 1093485418 1427401739 207260130 -1777096382 -1954615003 1452674189 586231503 799189302 -53976978 2075985066 1620219754 -662465685 -520895879 -815624653 954524814 1063288446 -369510848 2073398988 -740377459 -431942717 2111214960
REM
CELL 1.54180   50.00000   50.00000   50.00000   90.00000   90.00000   90.00000
LATT -1
SFAC C  
C      1  0.4495180000000  0.5514390000000  0.4476150000000 1.0
C      1  0.4422130000000  0.5130980000000  0.5733830000000 1.0
C      1  0.4322690000000  0.4099100000000  0.4651240000000 1.0
C      1  0.4655270000000  0.5344390000000  0.5076190000000 1.0
C      1  0.4447150000000  0.4420460000000  0.5219330000000 1.0
C      1  0.4595480000000  0.4889920000000  0.4745380000000 1.0
C      1  0.5527550000000  0.4742300000000  0.5647270000000 1.0
C      1  0.5509860000000  0.4563290000000  0.4399880000000 1.0
C      1  0.5632400000000  0.5763640000000  0.4895820000000 1.0
C      1  0.5080960000000  0.5346830000000  0.4164900000000 1.0
C      1  0.5148300000000  0.5685980000000  0.5710650000000 1.0
C      1  0.5006730000000  0.4105270000000  0.5194080000000 1.0
C      1  0.4796220000000  0.4974850000000  0.4000500000000 1.0
C      1  0.4998690000000  0.6135680000000  0.5463240000000 1.0
C      1  0.4885860000000  0.4086780000000  0.5715180000000 1.0
C      1  0.5005600000000  0.4979710000000  0.4506400000000 1.0
C      1  0.4952360000000  0.5704450000000  0.5184700000000 1.0
C      1  0.4806470000000  0.4728330000000  0.5361630000000 1.0
C      1  0.4679560000000  0.5102250000000  0.5872380000000 1.0
C      1  0.4599570000000  0.4125720000000  0.4586970000000 1.0
C      1  0.4715120000000  0.5715100000000  0.4475460000000 1.0
C      1  0.4799040000000  0.3954810000000  0.4703680000000 1.0
C      1  0.4867410000000  0.5800520000000  0.4245610000000 1.0
C      1  0.4849910000000  0.5306790000000  0.6002560000000 1.0
C      1  0.5989880000000  0.4597600000000  0.4837100000000 1.0
C      1  0.6057720000000  0.5274170000000  0.4701760000000 1.0
C      1  0.6051480000000  0.5012770000000  0.5382150000000 1.0
C      1  0.4323510000000  0.5805240000000  0.4826740000000 1.0
C      1  0.4268440000000  0.4771910000000  0.6014850000000 1.0
C      1  0.4217280000000  0.4276650000000  0.4217770000000 1.0
C      1  0.4641310000000  0.4612800000000  0.5166690000000 1.0
C      1  0.4803040000000  0.5077830000000  0.4681790000000 1.0
C      1  0.4773830000000  0.5512630000000  0.5276150000000 1.0
C      1  0.3950460000000  0.5139760000000  0.5876570000000 1.0
C      1  0.3888720000000  0.3977970000000  0.4465370000000 1.0
C      1  0.4011040000000  0.5578940000000  0.4510370000000 1.0
C      1  0.4991710000000  0.4905340000000  0.5435580000000 1.0
C      1  0.5047630000000  0.4707600000000  0.4561800000000 1.0
C      1  0.5120940000000  0.5641150000000  0.4987080000000 1.0
C      1  0.4532740000000  0.4368360000000  0.5948930000000 1.0
C      1  0.4459740000000  0.4693160000000  0.4172260000000 1.0
C      1  0.4596910000000  0.6089910000000  0.5131290000000 1.0
C      1  0.5010290000000  0.6214450000000  0.4443270000000 1.0
C      1  0.5029190000000  0.4968420000000  0.6304260000000 1.0
C      1  0.4982660000000  0.3910370000000  0.4263170000000 1.0
C      1  0.5345360000000  0.5571170000000  0.5530890000000 1.0
C      1  0.5200620000000  0.4313720000000  0.5178980000000 1.0
C      1  0.5200330000000  0.5180760000000  0.4386720000000 1.0
C      1  0.5386400000000  0.4302640000000  0.4376330000000 1.0
C      1  0.5488270000000  0.5899900000000  0.4681630000000 1.0
C      1  0.5440720000000  0.4853910000000  0.5899340000000 1.0
C      1  0.4945370000000  0.5223430000000  0.6259770000000 1.0
C      1  0.4936210000000  0.3800470000000  0.4508100000000 1.0
C      1  0.4919080000000  0.6079380000000  0.4224790000000 1.0
C      1  0.5194900000000  0.4514770000000  0.4975840000000 1.0
C      1  0.5274920000000  0.5328320000000  0.4639350000000 1.0
C      1  0.5314990000000  0.5297540000000  0.5442610000000 1.0
C      1  0.4930190000000  0.4189440000000  0.4223410000000 1.0
C      1  0.5016330000000  0.6072030000000  0.4692110000000 1.0
C      1  0.4994460000000  0.4778660000000  0.6093970000000 1.0
C      1  0.4993140000000  0.5523140000000  0.5886820000000 1.0
C      1  0.4897840000000  0.3991390000000  0.4961810000000 1.0
C      1  0.5061440000000  0.5622630000000  0.4158080000000 1.0
C      1  0.4557410000000  0.4959210000000  0.4154110000000 1.0
C      1  0.4743490000000  0.6159500000000  0.5344940000000 1.0
C      1  0.4642710000000  0.4154310000000  0.5835090000000 1.0
C      1  0.4965590000000  0.4751150000000  0.3964820000000 1.0
C      1  0.5218810000000  0.6205230000000  0.5301570000000 1.0
C      1  0.5115710000000  0.4185940000000  0.5842080000000 1.0
C      1  0.3960060000000  0.5406360000000  0.4309150000000 1.0
C      1  0.3888120000000  0.5303710000000  0.5669730000000 1.0
C      1  0.3811680000000  0.3880610000000  0.4707040000000 1.0
C      1  0.5685220000000  0.5043740000000  0.4734130000000 1.0
C      1  0.5760960000000  0.5260030000000  0.5170170000000 1.0
C      1  0.5661320000000  0.4699690000000  0.5108420000000 1.0
C      1  0.5570690000000  0.4629720000000  0.4658790000000 1.0
C      1  0.5696140000000  0.5508700000000  0.4820350000000 1.0
C      1  0.5620870000000  0.4930210000000  0.5473810000000 1.0
C      1  0.4463540000000  0.4417760000000  0.4217340000000 1.0
C      1  0.4561110000000  0.5942010000000  0.4895220000000 1.0
C      1  0.4518480000000  0.4643340000000  0.5988550000000 1.0
C      1  0.5923240000000  0.4376380000000  0.4994460000000 1.0
C      1  0.5950470000000  0.5237240000000  0.4443090000000 1.0
C      1  0.6031260000000  0.5266680000000  0.5505280000000 1.0
C      1  0.4447240000000  0.5201730000000  0.5208410000000 1.0
C      1  0.4308150000000  0.4212760000000  0.5129250000000 1.0
C      1  0.4374210000000  0.4996300000000  0.4598100000000 1.0
C      1  0.4830400000000  0.5294280000000  0.4851670000000 1.0
C      1  0.4853880000000  0.5357260000000  0.5492010000000 1.0
C      1  0.4707840000000  0.4671660000000  0.4897170000000 1.0
C      1  0.5454350000000  0.4318490000000  0.5326980000000 1.0
C      1  0.5464240000000  0.5056060000000  0.4267640000000 1.0
C      1  0.5598270000000  0.5676300000000  0.5430740000000 1.0
C      1  0.4266820000000  0.5623920000000  0.4618170000000 1.0
C      1  0.4203110000000  0.5016000000000  0.5893670000000 1.0
C      1  0.4134170000000  0.4112560000000  0.4429470000000 1.0
C      1  0.5078290000000  0.5430240000000  0.4813150000000 1.0
C      1  0.5065080000000  0.5171880000000  0.5473190000000 1.0
C      1  0.4975730000000  0.4593260000000  0.4811700000000 1.0
C      1  0.5442660000000  0.4468260000000  0.5587280000000 1.0
C      1  0.5420300000000  0.4765730000000  0.4208260000000 1.0
C      1  0.5565310000000  0.5845670000000  0.5171840000000 1.0
C      1  0.5453810000000  0.4124520000000  0.4589550000000 1.0
C      1  0.5532190000000  0.5779380000000  0.4424030000000 1.0
C      1  0.5549940000000  0.5114260000000  0.5949860000000 1.0
C      1  0.5687920000000  0.5326640000000  0.5843380000000 1.0
C      1  0.5556660000000  0.4099930000000  0.4841610000000 1.0
C      1  0.5608850000000  0.5552950000000  0.4288080000000 1.0
C      1  0.5160870000000  0.4352470000000  0.4195080000000 1.0
C      1  0.5275330000000  0.6048400000000  0.4820660000000 1.0
C      1  0.5226720000000  0.4667920000000  0.5974780000000 1.0
C      1  0.5359370000000  0.6059400000000  0.5109230000000 1.0
C      1  0.5261330000000  0.4420850000000  0.5817660000000 1.0
C      1  0.5186500000000  0.4623060000000  0.4081170000000 1.0
C      1  0.4677430000000  0.4271420000000  0.4341050000000 1.0
C      1  0.4776250000000  0.5896610000000  0.4709990000000 1.0
C      1  0.4741880000000  0.4821510000000  0.5959560000000 1.0
C      1  0.5911050000000  0.5363990000000  0.4943170000000 1.0
C      1  0.5830210000000  0.4831890000000  0.5303140000000 1.0
C      1  0.5808450000000  0.4785740000000  0.4705290000000 1.0
C      1  0.4071950000000  0.5347730000000  0.5475180000000 1.0
C      1  0.3969600000000  0.3916670000000  0.4925250000000 1.0
C      1  0.4148090000000  0.5235670000000  0.4216710000000 1.0
C      1  0.5453180000000  0.4625140000000  0.4919560000000 1.0
C      1  0.5536220000000  0.5290160000000  0.4729380000000 1.0
C      1  0.5546800000000  0.5171360000000  0.5346140000000 1.0
C      1  0.4212790000000  0.4063110000000  0.4914790000000 1.0
C      1  0.4411370000000  0.5172140000000  0.4343770000000 1.0
C      1  0.4331280000000  0.5225850000000  0.5468310000000 1.0
C      1  0.4910510000000  0.4023580000000  0.5444360000000 1.0
C      1  0.4925170000000  0.5217420000000  0.3972330000000 1.0
C      1  0.5056560000000  0.5949630000000  0.5666480000000 1.0
C      1  0.5694150000000  0.5268540000000  0.4293830000000 1.0
C      1  0.5820680000000  0.5446080000000  0.5610960000000 1.0
C      1  0.5681330000000  0.4230240000000  0.5070330000000 1.0
END
