TITL C-3201372-1405-1718 1.34807949317157e-07 125000 -734.369331361055 0 0 117 (C1) n - 1
REM
REM in /home/nfs/bkarasulu/CARBON/AIRSS/Generating-Clusters/LCBOP/Higher-Symm/SD-CG/FIRE-CG
REM
REM
REM
REM
REM
REM ./C.cell (b20cbc046b6831c77cfcea5457e17084)
REM AIRSS Version 0.9.1 bugfix July 2018 build 013d7b7c2542+ Fri, 06 Jul 2018 19:26:36 +0100
REM compiler GCC version 9.2.1 20190827 (Red Hat 9.2.1-1)
REM options -cpp -mtune=generic -march=x86-64 -g -O0 -fpre-include=/usr/include/finclude/math-vector-fortran.h
REM seed 373839198 415846055 1270668964 -1144665672 -1025013822 405656137 478347197 1033173450 -1644330419 1787356183 -349596148 -1261851316 -916859718 834660493 1433010620 -624512562 409341201 1591647733 1073801734 -1238766649 1767042509 1987303226 -633175871 -711740482 -628204218 1414588422 1992961430 2078870409 357824079 -440029955 -387716878 -1414228371 2023038443
REM
CELL 1.54180   50.00000   50.00000   50.00000   90.00000   90.00000   90.00000
LATT -1
SFAC C  
C      1  0.4890010000000  0.5222180000000  0.4862410000000 1.0
C      1  0.5419170000000  0.4844100000000  0.4978290000000 1.0
C      1  0.4914500000000  0.4930530000000  0.4873420000000 1.0
C      1  0.4722980000000  0.4672680000000  0.5547360000000 1.0
C      1  0.4871270000000  0.5494160000000  0.5576990000000 1.0
C      1  0.5498540000000  0.4877720000000  0.5645810000000 1.0
C      1  0.5572940000000  0.4407520000000  0.4764400000000 1.0
C      1  0.4186150000000  0.4825440000000  0.4716390000000 1.0
C      1  0.5240590000000  0.5687040000000  0.4767880000000 1.0
C      1  0.5984760000000  0.4758940000000  0.5331080000000 1.0
C      1  0.4320890000000  0.4279450000000  0.5253690000000 1.0
C      1  0.4695550000000  0.5955260000000  0.5239540000000 1.0
C      1  0.4312590000000  0.5057080000000  0.5456060000000 1.0
C      1  0.5463780000000  0.5604950000000  0.5526530000000 1.0
C      1  0.5287220000000  0.4271700000000  0.5533470000000 1.0
C      1  0.5411080000000  0.5379950000000  0.5098810000000 1.0
C      1  0.5218300000000  0.4465900000000  0.5091300000000 1.0
C      1  0.4465420000000  0.5082050000000  0.5003290000000 1.0
C      1  0.6267530000000  0.5143520000000  0.4345690000000 1.0
C      1  0.4460920000000  0.3893290000000  0.4510280000000 1.0
C      1  0.4280280000000  0.6037220000000  0.4426870000000 1.0
C      1  0.5882600000000  0.5731630000000  0.5263310000000 1.0
C      1  0.5121500000000  0.3917680000000  0.5204920000000 1.0
C      1  0.3970540000000  0.5380530000000  0.5248530000000 1.0
C      1  0.4248410000000  0.4595660000000  0.4301050000000 1.0
C      1  0.4958300000000  0.5641160000000  0.4361940000000 1.0
C      1  0.5626010000000  0.4694230000000  0.4362050000000 1.0
C      1  0.5625400000000  0.5012730000000  0.4927750000000 1.0
C      1  0.4894940000000  0.4652880000000  0.4782230000000 1.0
C      1  0.4681150000000  0.5399340000000  0.4778000000000 1.0
C      1  0.5022900000000  0.5469130000000  0.5343080000000 1.0
C      1  0.5379070000000  0.4758700000000  0.5423750000000 1.0
C      1  0.4734430000000  0.4830190000000  0.5316000000000 1.0
C      1  0.5284250000000  0.5080030000000  0.4399840000000 1.0
C      1  0.4683530000000  0.4663510000000  0.4081630000000 1.0
C      1  0.4767190000000  0.5134740000000  0.4307330000000 1.0
C      1  0.4095560000000  0.5538960000000  0.5043040000000 1.0
C      1  0.5958530000000  0.5512650000000  0.5089450000000 1.0
C      1  0.4940850000000  0.4016590000000  0.5004930000000 1.0
C      1  0.5739000000000  0.5038230000000  0.5641490000000 1.0
C      1  0.4689680000000  0.4391030000000  0.5546800000000 1.0
C      1  0.4604320000000  0.5603190000000  0.5556480000000 1.0
C      1  0.4874020000000  0.4509100000000  0.4536510000000 1.0
C      1  0.4498550000000  0.5370850000000  0.4564380000000 1.0
C      1  0.5639010000000  0.5143330000000  0.4684110000000 1.0
C      1  0.4413360000000  0.4669190000000  0.4082370000000 1.0
C      1  0.4911600000000  0.5368150000000  0.4269190000000 1.0
C      1  0.5399100000000  0.4856590000000  0.4297400000000 1.0
C      1  0.4504790000000  0.5369470000000  0.5005050000000 1.0
C      1  0.5633130000000  0.5211130000000  0.5122710000000 1.0
C      1  0.4947110000000  0.4469080000000  0.5004930000000 1.0
C      1  0.5285890000000  0.4938870000000  0.5831430000000 1.0
C      1  0.4820700000000  0.4810150000000  0.5775910000000 1.0
C      1  0.4933680000000  0.5290260000000  0.5772060000000 1.0
C      1  0.6019000000000  0.5091960000000  0.4447120000000 1.0
C      1  0.4538650000000  0.4156560000000  0.4504570000000 1.0
C      1  0.4420000000000  0.5804860000000  0.4464990000000 1.0
C      1  0.4857250000000  0.4266610000000  0.5738970000000 1.0
C      1  0.4417900000000  0.5451960000000  0.5706660000000 1.0
C      1  0.5706370000000  0.5279540000000  0.5788350000000 1.0
C      1  0.5296680000000  0.5413270000000  0.4832190000000 1.0
C      1  0.5408370000000  0.4579030000000  0.4909830000000 1.0
C      1  0.4440840000000  0.4951900000000  0.4738670000000 1.0
C      1  0.4789540000000  0.4246840000000  0.5096770000000 1.0
C      1  0.4372780000000  0.5589920000000  0.5121400000000 1.0
C      1  0.5895680000000  0.5253650000000  0.5224690000000 1.0
C      1  0.5920820000000  0.4498840000000  0.5288310000000 1.0
C      1  0.4092310000000  0.4416560000000  0.5241900000000 1.0
C      1  0.4942530000000  0.6059550000000  0.5226600000000 1.0
C      1  0.4546310000000  0.5095360000000  0.4491890000000 1.0
C      1  0.5380700000000  0.5236440000000  0.4613170000000 1.0
C      1  0.4862570000000  0.4612320000000  0.4275780000000 1.0
C      1  0.5620430000000  0.5799700000000  0.5360730000000 1.0
C      1  0.5342340000000  0.4048270000000  0.5338080000000 1.0
C      1  0.4048810000000  0.5116880000000  0.5333390000000 1.0
C      1  0.5121870000000  0.4371720000000  0.5757130000000 1.0
C      1  0.4450510000000  0.5167050000000  0.5690780000000 1.0
C      1  0.5455730000000  0.5418330000000  0.5756180000000 1.0
C      1  0.3985060000000  0.4979090000000  0.4870320000000 1.0
C      1  0.5477110000000  0.5834520000000  0.4883040000000 1.0
C      1  0.5506120000000  0.4133620000000  0.4861060000000 1.0
C      1  0.5217290000000  0.5232690000000  0.5822970000000 1.0
C      1  0.5087410000000  0.4720310000000  0.5845660000000 1.0
C      1  0.4723490000000  0.5082220000000  0.5790820000000 1.0
C      1  0.4971520000000  0.4893590000000  0.5167010000000 1.0
C      1  0.4933240000000  0.5329490000000  0.5125580000000 1.0
C      1  0.5253930000000  0.4903900000000  0.5210790000000 1.0
C      1  0.5874280000000  0.4845110000000  0.4384110000000 1.0
C      1  0.4343930000000  0.4357020000000  0.4434520000000 1.0
C      1  0.4707630000000  0.5788320000000  0.4405940000000 1.0
C      1  0.4597020000000  0.4275750000000  0.5302220000000 1.0
C      1  0.4527910000000  0.5739140000000  0.5312560000000 1.0
C      1  0.5923560000000  0.5026890000000  0.5415730000000 1.0
C      1  0.4065810000000  0.5472220000000  0.4747030000000 1.0
C      1  0.5891220000000  0.5533520000000  0.4782500000000 1.0
C      1  0.5011220000000  0.4054950000000  0.4719630000000 1.0
C      1  0.5567420000000  0.4105490000000  0.5148850000000 1.0
C      1  0.3957080000000  0.4914390000000  0.5146620000000 1.0
C      1  0.5455290000000  0.5932470000000  0.5153380000000 1.0
C      1  0.5221790000000  0.5721040000000  0.4477860000000 1.0
C      1  0.5567570000000  0.4434570000000  0.4475510000000 1.0
C      1  0.4100110000000  0.4797790000000  0.4440340000000 1.0
C      1  0.5309570000000  0.4495390000000  0.5360940000000 1.0
C      1  0.4493670000000  0.4960720000000  0.5253690000000 1.0
C      1  0.5294940000000  0.5493860000000  0.5327050000000 1.0
C      1  0.5396360000000  0.4204120000000  0.4408790000000 1.0
C      1  0.3952700000000  0.5057100000000  0.4413890000000 1.0
C      1  0.5520220000000  0.5745830000000  0.4423560000000 1.0
C      1  0.4289140000000  0.5562550000000  0.4567650000000 1.0
C      1  0.5881870000000  0.5278750000000  0.4624380000000 1.0
C      1  0.4814090000000  0.4224240000000  0.4567800000000 1.0
C      1  0.3953150000000  0.4643460000000  0.5220830000000 1.0
C      1  0.5210770000000  0.6060090000000  0.5219220000000 1.0
C      1  0.5789120000000  0.4266020000000  0.5243020000000 1.0
C      1  0.5690450000000  0.5744090000000  0.4687390000000 1.0
C      1  0.5295320000000  0.4059480000000  0.4651840000000 1.0
C      1  0.3940070000000  0.5209460000000  0.4678580000000 1.0
END
