TITL C-3201372-1405-1416 -1.64662935722626e-07 125000 -88.9880725728183 0 0 16 (S4) n - 1
REM
REM in /home/nfs/bkarasulu/CARBON/AIRSS/Generating-Clusters/LCBOP/Higher-Symm/SD-CG/FIRE-CG
REM
REM
REM
REM
REM
REM ./C.cell (b20cbc046b6831c77cfcea5457e17084)
REM AIRSS Version 0.9.1 bugfix July 2018 build 013d7b7c2542+ Fri, 06 Jul 2018 19:26:36 +0100
REM compiler GCC version 9.2.1 20190827 (Red Hat 9.2.1-1)
REM options -cpp -mtune=generic -march=x86-64 -g -O0 -fpre-include=/usr/include/finclude/math-vector-fortran.h
REM seed -1597700774 1961101340 1963604201 1316561072 1063489759 -604108203 -689192301 1701860270 2137484954 -1216488355 -156538566 510804769 -179337266 -1127570665 257419274 -552154695 -1407210779 733448003 1747623549 1664977261 1204115382 867352894 -967659301 -2120965847 -817630441 -1056109584 1000475069 -2072645115 -565209397 188839668 1969090597 -1010428917 994067532
REM
CELL 1.54180   50.00000   50.00000   50.00000   90.00000   90.00000   90.00000
LATT -1
SFAC C  
C      1  0.4876070000000  0.5386460000000  0.5092660000000 1.0
C      1  0.4907350000000  0.4613540000000  0.4876040000000 1.0
C      1  0.5123940000000  0.5386470000000  0.4907370000000 1.0
C      1  0.5092640000000  0.4613530000000  0.5123920000000 1.0
C      1  0.5354320000000  0.4674060000000  0.5010150000000 1.0
C      1  0.4989830000000  0.5325920000000  0.5354340000000 1.0
C      1  0.4645670000000  0.4674070000000  0.4989820000000 1.0
C      1  0.5010170000000  0.5325950000000  0.4645690000000 1.0
C      1  0.5147620000000  0.5085380000000  0.5294290000000 1.0
C      1  0.4705710000000  0.4914600000000  0.5147620000000 1.0
C      1  0.4852380000000  0.5085410000000  0.4705710000000 1.0
C      1  0.5294290000000  0.4914610000000  0.4852370000000 1.0
C      1  0.4724230000000  0.5153170000000  0.4977330000000 1.0
C      1  0.5022680000000  0.4846840000000  0.4724230000000 1.0
C      1  0.5275770000000  0.5153170000000  0.5022690000000 1.0
C      1  0.4977320000000  0.4846820000000  0.5275760000000 1.0
END
