TITL C-3201373-1215-593 8692.32116562151 125000 -305.486554296585 0 0 54 (C1) n - 1
REM
REM in /home/nfs/bkarasulu/CARBON/AIRSS/Generating-Clusters/LCBOP/Higher-Symm/SD-CG/FIRE-CG
REM
REM
REM
REM
REM
REM ./C.cell (b20cbc046b6831c77cfcea5457e17084)
REM AIRSS Version 0.9.1 bugfix July 2018 build 013d7b7c2542+ Fri, 06 Jul 2018 19:26:36 +0100
REM compiler GCC version 9.2.1 20190827 (Red Hat 9.2.1-1)
REM options -cpp -mtune=generic -march=x86-64 -g -O0 -fpre-include=/usr/include/finclude/math-vector-fortran.h
REM seed 643646945 -21590669 51223768 -311393117 639102193 251903208 1326061455 3159714 -1138450311 749611155 -956059551 -953916686 406130830 588541424 800641462 1317216893 -124666869 650769255 -123474236 1773525338 1532299236 -1859941612 1445539708 -1895738917 1034298106 1827677761 1088921341 -625376127 16286603 -920471879 -1852869738 -406634475 2013846056
REM
CELL 1.54180   50.00000   50.00000   50.00000   90.00000   90.00000   90.00000
LATT -1
SFAC C  
C      1  0.4770770000000  0.4668140000000  0.5514930000000 1.0
C      1  0.4806560000000  0.4747800000000  0.4453370000000 1.0
C      1  0.4714390000000  0.5630670000000  0.5059290000000 1.0
C      1  0.4972260000000  0.5779100000000  0.5054320000000 1.0
C      1  0.5037670000000  0.4653890000000  0.5644640000000 1.0
C      1  0.5062660000000  0.4636910000000  0.4360090000000 1.0
C      1  0.5110650000000  0.4926510000000  0.5743180000000 1.0
C      1  0.5163760000000  0.4443150000000  0.4561680000000 1.0
C      1  0.5104860000000  0.5715900000000  0.4789250000000 1.0
C      1  0.4442310000000  0.5267400000000  0.5312200000000 1.0
C      1  0.4498130000000  0.4586730000000  0.5083490000000 1.0
C      1  0.4500060000000  0.5137000000000  0.4593330000000 1.0
C      1  0.5243390000000  0.5128910000000  0.4710530000000 1.0
C      1  0.5204090000000  0.5280930000000  0.5285410000000 1.0
C      1  0.5248290000000  0.4728470000000  0.5105570000000 1.0
C      1  0.4925700000000  0.5545480000000  0.4620430000000 1.0
C      1  0.4898320000000  0.5113610000000  0.5659830000000 1.0
C      1  0.4974520000000  0.4428900000000  0.4782080000000 1.0
C      1  0.5143680000000  0.5768550000000  0.5287910000000 1.0
C      1  0.5243340000000  0.4492180000000  0.5529550000000 1.0
C      1  0.5205960000000  0.4695360000000  0.4126900000000 1.0
C      1  0.4901490000000  0.4889450000000  0.4857340000000 1.0
C      1  0.4884170000000  0.5244870000000  0.4958760000000 1.0
C      1  0.4872900000000  0.4978750000000  0.5192420000000 1.0
C      1  0.5604830000000  0.4306960000000  0.4344900000000 1.0
C      1  0.5589130000000  0.5612900000000  0.4971540000000 1.0
C      1  0.5607880000000  0.4913160000000  0.5641110000000 1.0
C      1  0.4504720000000  0.4478840000000  0.4819320000000 1.0
C      1  0.4468490000000  0.5418870000000  0.4628500000000 1.0
C      1  0.4440000000000  0.5089480000000  0.5536640000000 1.0
C      1  0.4346130000000  0.4995700000000  0.4775130000000 1.0
C      1  0.4308700000000  0.5160710000000  0.5095480000000 1.0
C      1  0.4327950000000  0.4802790000000  0.5096790000000 1.0
C      1  0.5623610000000  0.4445980000000  0.4113910000000 1.0
C      1  0.5595720000000  0.5595500000000  0.5244110000000 1.0
C      1  0.5636300000000  0.4744600000000  0.5429200000000 1.0
C      1  0.5190200000000  0.5311420000000  0.4963250000000 1.0
C      1  0.5149820000000  0.4972780000000  0.5272900000000 1.0
C      1  0.5192960000000  0.4865470000000  0.4826860000000 1.0
C      1  0.5385120000000  0.4984320000000  0.5778380000000 1.0
C      1  0.5407430000000  0.4309840000000  0.4528100000000 1.0
C      1  0.5334370000000  0.5560070000000  0.4861660000000 1.0
C      1  0.4746000000000  0.4554110000000  0.5241650000000 1.0
C      1  0.4760210000000  0.5044610000000  0.4480740000000 1.0
C      1  0.4677580000000  0.5443350000000  0.5292390000000 1.0
C      1  0.5001920000000  0.4507420000000  0.5071320000000 1.0
C      1  0.5000070000000  0.5244980000000  0.4530060000000 1.0
C      1  0.4922430000000  0.5337260000000  0.5451940000000 1.0
C      1  0.4724730000000  0.4534350000000  0.4654970000000 1.0
C      1  0.4663610000000  0.5569600000000  0.4763680000000 1.0
C      1  0.4665510000000  0.4936040000000  0.5605410000000 1.0
C      1  0.5335470000000  0.5554010000000  0.5353610000000 1.0
C      1  0.5418310000000  0.4595540000000  0.5321610000000 1.0
C      1  0.5440890000000  0.4620690000000  0.4018390000000 1.0
END
