TITL C-3201373-1215-1953 -1.25722563126238e-06 125000 -722.719587065764 0 0 118 (S4) n - 1
REM
REM in /home/nfs/bkarasulu/CARBON/AIRSS/Generating-Clusters/LCBOP/Higher-Symm/SD-CG/FIRE-CG
REM
REM
REM
REM
REM
REM ./C.cell (b20cbc046b6831c77cfcea5457e17084)
REM AIRSS Version 0.9.1 bugfix July 2018 build 013d7b7c2542+ Fri, 06 Jul 2018 19:26:36 +0100
REM compiler GCC version 9.2.1 20190827 (Red Hat 9.2.1-1)
REM options -cpp -mtune=generic -march=x86-64 -g -O0 -fpre-include=/usr/include/finclude/math-vector-fortran.h
REM seed -274375703 2012566499 135710122 -215969302 -481797061 1864385192 1929756068 811496457 -817100096 411058143 775361901 -1656412762 1872784130 -2052236826 903991137 782920432 -323098617 -206829325 -1434974910 -1971522852 1713576435 -1241677710 -148297084 1169654936 -1948982932 364334303 156961404 -1180182653 -1070940069 -1439827498 1606900232 1841357538 -1928466753
REM
CELL 1.54180   50.00000   50.00000   50.00000   90.00000   90.00000   90.00000
LATT -1
SFAC C  
C      1  0.4312200000000  0.4336800000000  0.5093160000000 1.0
C      1  0.5687800000000  0.4903800000000  0.4335670000000 1.0
C      1  0.4312180000000  0.5661250000000  0.4902680000000 1.0
C      1  0.5687820000000  0.5094280000000  0.5660110000000 1.0
C      1  0.4931830000000  0.5716920000000  0.4432320000000 1.0
C      1  0.5068170000000  0.5564620000000  0.5715800000000 1.0
C      1  0.4931860000000  0.4281140000000  0.5563490000000 1.0
C      1  0.5068150000000  0.4433450000000  0.4280010000000 1.0
C      1  0.4720710000000  0.4120640000000  0.4438690000000 1.0
C      1  0.5279270000000  0.5558250000000  0.4119510000000 1.0
C      1  0.4720710000000  0.5877420000000  0.5557130000000 1.0
C      1  0.5279310000000  0.4439820000000  0.5876290000000 1.0
C      1  0.5240350000000  0.4222760000000  0.4385580000000 1.0
C      1  0.4759630000000  0.5611350000000  0.4221630000000 1.0
C      1  0.5240360000000  0.5775310000000  0.5610220000000 1.0
C      1  0.4759670000000  0.4386710000000  0.5774180000000 1.0
C      1  0.4196070000000  0.5407350000000  0.4823960000000 1.0
C      1  0.5803930000000  0.5172990000000  0.5406210000000 1.0
C      1  0.4196090000000  0.4590710000000  0.5171870000000 1.0
C      1  0.5803910000000  0.4825080000000  0.4589570000000 1.0
C      1  0.5417780000000  0.4237980000000  0.4841510000000 1.0
C      1  0.4582210000000  0.5155420000000  0.4236850000000 1.0
C      1  0.5417770000000  0.5760090000000  0.5154290000000 1.0
C      1  0.4582240000000  0.4842640000000  0.5758970000000 1.0
C      1  0.5598270000000  0.5188430000000  0.4361150000000 1.0
C      1  0.4401720000000  0.5635770000000  0.5187310000000 1.0
C      1  0.5598300000000  0.4809640000000  0.5634640000000 1.0
C      1  0.4401720000000  0.4362280000000  0.4808520000000 1.0
C      1  0.5959790000000  0.4647340000000  0.4744380000000 1.0
C      1  0.4040200000000  0.5252530000000  0.4646220000000 1.0
C      1  0.5959800000000  0.5350740000000  0.5251400000000 1.0
C      1  0.4040220000000  0.4745510000000  0.5349630000000 1.0
C      1  0.4334970000000  0.4764170000000  0.4994010000000 1.0
C      1  0.5665030000000  0.5002940000000  0.4763030000000 1.0
C      1  0.4334970000000  0.5233880000000  0.5001820000000 1.0
C      1  0.5665040000000  0.4995130000000  0.5232750000000 1.0
C      1  0.3990410000000  0.5013430000000  0.5256700000000 1.0
C      1  0.6009590000000  0.4740260000000  0.5012290000000 1.0
C      1  0.3990410000000  0.4984620000000  0.4739140000000 1.0
C      1  0.6009590000000  0.5257820000000  0.4983480000000 1.0
C      1  0.4372260000000  0.4382510000000  0.5556040000000 1.0
C      1  0.5627750000000  0.4440910000000  0.4381370000000 1.0
C      1  0.4372230000000  0.5615550000000  0.4439790000000 1.0
C      1  0.5627770000000  0.5557160000000  0.5614410000000 1.0
C      1  0.5156670000000  0.5138640000000  0.5211790000000 1.0
C      1  0.4843340000000  0.4785140000000  0.5137510000000 1.0
C      1  0.5156660000000  0.4859430000000  0.4784010000000 1.0
C      1  0.4843330000000  0.5212920000000  0.4858300000000 1.0
C      1  0.5517440000000  0.5319680000000  0.5750150000000 1.0
C      1  0.4482580000000  0.4246770000000  0.5318560000000 1.0
C      1  0.5517420000000  0.4678390000000  0.4245640000000 1.0
C      1  0.4482560000000  0.5751280000000  0.4677270000000 1.0
C      1  0.4811320000000  0.6107590000000  0.5089820000000 1.0
C      1  0.5188700000000  0.4907120000000  0.6106460000000 1.0
C      1  0.4811330000000  0.3890470000000  0.4905990000000 1.0
C      1  0.5188650000000  0.5090950000000  0.3889340000000 1.0
C      1  0.5425470000000  0.5802360000000  0.4849810000000 1.0
C      1  0.4574530000000  0.5147120000000  0.5801240000000 1.0
C      1  0.5425490000000  0.4195710000000  0.5145990000000 1.0
C      1  0.4574500000000  0.4850940000000  0.4194580000000 1.0
C      1  0.4589270000000  0.4866580000000  0.5050100000000 1.0
C      1  0.5410730000000  0.4946850000000  0.4865440000000 1.0
C      1  0.4589260000000  0.5131480000000  0.4945730000000 1.0
C      1  0.5410740000000  0.5051220000000  0.5130350000000 1.0
C      1  0.4772050000000  0.4160470000000  0.5340050000000 1.0
C      1  0.5227950000000  0.4656890000000  0.4159340000000 1.0
C      1  0.4772020000000  0.5837590000000  0.4655760000000 1.0
C      1  0.5227980000000  0.5341180000000  0.5836460000000 1.0
C      1  0.5452030000000  0.5625680000000  0.4606780000000 1.0
C      1  0.4547960000000  0.5390140000000  0.5624550000000 1.0
C      1  0.5452060000000  0.4372390000000  0.5389010000000 1.0
C      1  0.4547950000000  0.4607910000000  0.4371270000000 1.0
C      1  0.5002850000000  0.4674970000000  0.4931230000000 1.0
C      1  0.4997140000000  0.5065710000000  0.4673850000000 1.0
C      1  0.5002850000000  0.5323090000000  0.5064580000000 1.0
C      1  0.4997160000000  0.4932360000000  0.5321960000000 1.0
C      1  0.5658760000000  0.5407450000000  0.4566730000000 1.0
C      1  0.4341240000000  0.5430190000000  0.5406330000000 1.0
C      1  0.5658780000000  0.4590620000000  0.5429050000000 1.0
C      1  0.4341230000000  0.4567870000000  0.4589500000000 1.0
C      1  0.5249350000000  0.4643800000000  0.6058150000000 1.0
C      1  0.4750680000000  0.3938780000000  0.4642680000000 1.0
C      1  0.5249300000000  0.5354260000000  0.3937650000000 1.0
C      1  0.4750670000000  0.6059280000000  0.5353140000000 1.0
C      1  0.4919990000000  0.6011020000000  0.4838920000000 1.0
C      1  0.5080020000000  0.5158020000000  0.6009890000000 1.0
C      1  0.4920010000000  0.3987040000000  0.5156890000000 1.0
C      1  0.5079980000000  0.4840050000000  0.3985910000000 1.0
C      1  0.5133730000000  0.5754370000000  0.5183560000000 1.0
C      1  0.4866280000000  0.4813380000000  0.5753240000000 1.0
C      1  0.5133740000000  0.4243700000000  0.4812250000000 1.0
C      1  0.4866250000000  0.5184680000000  0.4242570000000 1.0
C      1  0.5209100000000  0.3992550000000  0.5191030000000 1.0
C      1  0.4790900000000  0.4805900000000  0.3991420000000 1.0
C      1  0.5209070000000  0.6005520000000  0.4804770000000 1.0
C      1  0.4790930000000  0.5192160000000  0.6004390000000 1.0
C      1  0.5225300000000  0.4342640000000  0.5602320000000 1.0
C      1  0.4774710000000  0.4394610000000  0.4341520000000 1.0
C      1  0.5225270000000  0.5655430000000  0.4393480000000 1.0
C      1  0.4774720000000  0.5603450000000  0.5654300000000 1.0
C      1  0.5792570000000  0.5266520000000  0.4787750000000 1.0
C      1  0.4207420000000  0.5209160000000  0.5265400000000 1.0
C      1  0.5792590000000  0.4731560000000  0.5208020000000 1.0
C      1  0.4207420000000  0.4788890000000  0.4730440000000 1.0
C      1  0.4936470000000  0.4423560000000  0.4849370000000 1.0
C      1  0.5063520000000  0.5147570000000  0.4422430000000 1.0
C      1  0.4936460000000  0.5574500000000  0.5146440000000 1.0
C      1  0.5063550000000  0.4850500000000  0.5573370000000 1.0
C      1  0.5485190000000  0.4262440000000  0.4551610000000 1.0
C      1  0.4514790000000  0.5445310000000  0.4261310000000 1.0
C      1  0.5485190000000  0.5735630000000  0.5444180000000 1.0
C      1  0.4514830000000  0.4552750000000  0.5734510000000 1.0
C      1  0.4679960000000  0.5658200000000  0.5168930000000 1.0
C      1  0.5320050000000  0.4828010000000  0.5657070000000 1.0
C      1  0.4679970000000  0.4339860000000  0.4826890000000 1.0
C      1  0.5320020000000  0.5170060000000  0.4338730000000 1.0
C      1  0.6146050000000  0.4999040000000  0.4997880000000 1.0
C      1  0.3853950000000  0.4999020000000  0.4997920000000 1.0
END
