TITL C-3201378-2706-107 -0.00602039494338516 125000 -632.463791744875 0 0 116 (Ci) n - 1
REM
REM in /home/nfs/bkarasulu/CARBON/AIRSS/Generating-Clusters/LCBOP/Higher-Symm/SD-CG/FIRE-CG
REM
REM
REM
REM
REM
REM ./C.cell (b20cbc046b6831c77cfcea5457e17084)
REM AIRSS Version 0.9.1 bugfix July 2018 build 013d7b7c2542+ Fri, 06 Jul 2018 19:26:36 +0100
REM compiler GCC version 9.2.1 20190827 (Red Hat 9.2.1-1)
REM options -cpp -mtune=generic -march=x86-64 -g -O0 -fpre-include=/usr/include/finclude/math-vector-fortran.h
REM seed 277634757 170198469 1055964394 1153861068 -1333695081 -956304265 -311562962 1202875397 -1680286746 475825201 -565027164 1795708430 -1580655512 221126874 -1946957377 -855601216 38546365 1548945868 -1718133215 -1083432467 -251066986 -416670044 1282929321 -219500266 1061487510 214830970 -492995209 2012321168 88949215 1535805977 1608840452 -2035801846 -1037170780
REM
CELL 1.54180   50.00000   50.00000   50.00000   90.00000   90.00000   90.00000
LATT -1
SFAC C  
C      1  0.5717340000000  0.5122040000000  0.4361610000000 1.0
C      1  0.4818590000000  0.5141130000000  0.4041800000000 1.0
C      1  0.4082650000000  0.5134020000000  0.4700630000000 1.0
C      1  0.4247010000000  0.5166310000000  0.5663150000000 1.0
C      1  0.5177520000000  0.5137430000000  0.5965620000000 1.0
C      1  0.5919530000000  0.5142570000000  0.5313930000000 1.0
C      1  0.5757660000000  0.4816130000000  0.4338480000000 1.0
C      1  0.4827150000000  0.4845020000000  0.4036010000000 1.0
C      1  0.4085140000000  0.4839880000000  0.4687700000000 1.0
C      1  0.4287340000000  0.4860400000000  0.5640020000000 1.0
C      1  0.5186080000000  0.4841310000000  0.5959830000000 1.0
C      1  0.5922030000000  0.4848420000000  0.5301000000000 1.0
C      1  0.4300680000000  0.4863550000000  0.5061560000000 1.0
C      1  0.4714100000000  0.4907550000000  0.5569410000000 1.0
C      1  0.5401550000000  0.4844920000000  0.5584160000000 1.0
C      1  0.5701900000000  0.4836890000000  0.4927600000000 1.0
C      1  0.5327950000000  0.4808060000000  0.4384640000000 1.0
C      1  0.4611190000000  0.4855760000000  0.4410230000000 1.0
C      1  0.4302770000000  0.5145550000000  0.5074030000000 1.0
C      1  0.4676730000000  0.5174380000000  0.5616990000000 1.0
C      1  0.5393490000000  0.5126680000000  0.5591400000000 1.0
C      1  0.5703990000000  0.5118890000000  0.4940070000000 1.0
C      1  0.5290570000000  0.5074890000000  0.4432220000000 1.0
C      1  0.4603120000000  0.5137520000000  0.4417470000000 1.0
C      1  0.5141930000000  0.4517060000000  0.5792870000000 1.0
C      1  0.5777540000000  0.4518230000000  0.5269980000000 1.0
C      1  0.5682330000000  0.4471860000000  0.4441120000000 1.0
C      1  0.4880850000000  0.4518740000000  0.4178980000000 1.0
C      1  0.4246390000000  0.4519480000000  0.4711420000000 1.0
C      1  0.4389560000000  0.4538090000000  0.5509610000000 1.0
C      1  0.5123820000000  0.5463710000000  0.5822650000000 1.0
C      1  0.5758290000000  0.5462960000000  0.5290220000000 1.0
C      1  0.5615110000000  0.5444350000000  0.4492030000000 1.0
C      1  0.4862740000000  0.5465380000000  0.4208760000000 1.0
C      1  0.4227130000000  0.5464220000000  0.4731660000000 1.0
C      1  0.4322340000000  0.5510580000000  0.5560510000000 1.0
C      1  0.5910560000000  0.5241870000000  0.4788650000000 1.0
C      1  0.5265760000000  0.5218290000000  0.4181500000000 1.0
C      1  0.4356710000000  0.5247380000000  0.4326150000000 1.0
C      1  0.4085660000000  0.5248910000000  0.5229420000000 1.0
C      1  0.4709170000000  0.5256740000000  0.5888510000000 1.0
C      1  0.5634890000000  0.5243120000000  0.5688170000000 1.0
C      1  0.5919010000000  0.4733530000000  0.4772210000000 1.0
C      1  0.5295500000000  0.4725700000000  0.4113120000000 1.0
C      1  0.4369790000000  0.4739320000000  0.4313460000000 1.0
C      1  0.4094120000000  0.4740570000000  0.5212980000000 1.0
C      1  0.4738910000000  0.4764150000000  0.5820130000000 1.0
C      1  0.5647960000000  0.4735060000000  0.5675480000000 1.0
C      1  0.5611990000000  0.5506140000000  0.5547320000000 1.0
C      1  0.5770830000000  0.5501670000000  0.4736820000000 1.0
C      1  0.5150400000000  0.5478500000000  0.4240260000000 1.0
C      1  0.4369370000000  0.5506180000000  0.4475190000000 1.0
C      1  0.4199670000000  0.5518800000000  0.5290630000000 1.0
C      1  0.4830610000000  0.5522580000000  0.5837860000000 1.0
C      1  0.5635310000000  0.4476260000000  0.5526440000000 1.0
C      1  0.5805000000000  0.4463640000000  0.4711000000000 1.0
C      1  0.5174070000000  0.4459870000000  0.4163770000000 1.0
C      1  0.4392680000000  0.4476300000000  0.4454320000000 1.0
C      1  0.4233840000000  0.4480770000000  0.5264810000000 1.0
C      1  0.4854280000000  0.4503940000000  0.5761370000000 1.0
C      1  0.5346020000000  0.4347020000000  0.5557210000000 1.0
C      1  0.5675390000000  0.4347810000000  0.4981720000000 1.0
C      1  0.5371980000000  0.4293310000000  0.4391150000000 1.0
C      1  0.4690040000000  0.4357860000000  0.4419860000000 1.0
C      1  0.4357510000000  0.4357960000000  0.4994900000000 1.0
C      1  0.4689690000000  0.4364610000000  0.5551600000000 1.0
C      1  0.5314630000000  0.5624590000000  0.5581770000000 1.0
C      1  0.5647160000000  0.5624480000000  0.5006730000000 1.0
C      1  0.5314980000000  0.5617830000000  0.4450030000000 1.0
C      1  0.4658650000000  0.5635430000000  0.4444430000000 1.0
C      1  0.4329280000000  0.5634630000000  0.5019910000000 1.0
C      1  0.4632700000000  0.5689130000000  0.5610480000000 1.0
C      1  0.4848950000000  0.4193320000000  0.4682440000000 1.0
C      1  0.4669900000000  0.4192660000000  0.4986790000000 1.0
C      1  0.4842780000000  0.4177080000000  0.5291600000000 1.0
C      1  0.5194760000000  0.4177650000000  0.5288070000000 1.0
C      1  0.5369120000000  0.4182710000000  0.4981440000000 1.0
C      1  0.5201720000000  0.4155690000000  0.4670330000000 1.0
C      1  0.4809920000000  0.5804800000000  0.4713560000000 1.0
C      1  0.4635560000000  0.5799730000000  0.5020190000000 1.0
C      1  0.4802950000000  0.5826750000000  0.5331300000000 1.0
C      1  0.5155720000000  0.5789130000000  0.5319190000000 1.0
C      1  0.5334770000000  0.5789780000000  0.5014840000000 1.0
C      1  0.5161890000000  0.5805370000000  0.4710030000000 1.0
C      1  0.5162210000000  0.5184430000000  0.5464240000000 1.0
C      1  0.5487390000000  0.5176930000000  0.5087760000000 1.0
C      1  0.5246680000000  0.5116030000000  0.4701070000000 1.0
C      1  0.4830230000000  0.5203820000000  0.4543550000000 1.0
C      1  0.4523180000000  0.5210590000000  0.4931760000000 1.0
C      1  0.4669540000000  0.5319220000000  0.5390920000000 1.0
C      1  0.5174440000000  0.4778630000000  0.5458080000000 1.0
C      1  0.5481490000000  0.4771850000000  0.5069880000000 1.0
C      1  0.5335140000000  0.4663220000000  0.4610710000000 1.0
C      1  0.4842470000000  0.4798010000000  0.4537390000000 1.0
C      1  0.4517280000000  0.4805510000000  0.4913880000000 1.0
C      1  0.4757990000000  0.4866410000000  0.5300560000000 1.0
C      1  0.5101740000000  0.5361150000000  0.5262560000000 1.0
C      1  0.5284840000000  0.5361280000000  0.5058150000000 1.0
C      1  0.5188900000000  0.5382090000000  0.4792330000000 1.0
C      1  0.4908410000000  0.5384080000000  0.4736360000000 1.0
C      1  0.4736630000000  0.5382110000000  0.4948640000000 1.0
C      1  0.4837200000000  0.5415580000000  0.5202910000000 1.0
C      1  0.5096260000000  0.4598360000000  0.5265270000000 1.0
C      1  0.5268040000000  0.4600340000000  0.5053000000000 1.0
C      1  0.5167470000000  0.4566860000000  0.4798720000000 1.0
C      1  0.4902940000000  0.4621290000000  0.4739070000000 1.0
C      1  0.4719830000000  0.4621160000000  0.4943480000000 1.0
C      1  0.4815780000000  0.4600350000000  0.5209300000000 1.0
C      1  0.6061380000000  0.4993540000000  0.4704560000000 1.0
C      1  0.3943290000000  0.4988900000000  0.5297070000000 1.0
C      1  0.4712230000000  0.4989080000000  0.6018910000000 1.0
C      1  0.5292450000000  0.4993360000000  0.3982720000000 1.0
C      1  0.5783680000000  0.4990440000000  0.5766000000000 1.0
C      1  0.4220990000000  0.4992000000000  0.4235630000000 1.0
C      1  0.4914620000000  0.5007320000000  0.5100700000000 1.0
C      1  0.5090050000000  0.4975120000000  0.4900930000000 1.0
END
