TITL C-3201377-4638-1753 0.209628265100076 125000 -203.037244985892 0 0 35 (C1) n - 1
REM
REM in /home/nfs/bkarasulu/CARBON/AIRSS/Generating-Clusters/LCBOP/Higher-Symm/SD-CG/FIRE-CG
REM
REM
REM
REM
REM
REM ./C.cell (b20cbc046b6831c77cfcea5457e17084)
REM AIRSS Version 0.9.1 bugfix July 2018 build 013d7b7c2542+ Fri, 06 Jul 2018 19:26:36 +0100
REM compiler GCC version 9.2.1 20190827 (Red Hat 9.2.1-1)
REM options -cpp -mtune=generic -march=x86-64 -g -O0 -fpre-include=/usr/include/finclude/math-vector-fortran.h
REM seed -602684632 -1611103289 23034821 442714207 94459254 1034501872 2137894587 281509384 -494096259 649223257 640359367 2092625994 1369852659 -670015411 -1855422983 -2018055757 955864531 1782080190 -244187572 1425947356 -1985008144 1655288743 1107519398 -559689635 -838114919 -908381256 -1720869675 -724881449 -846624099 1824920623 -1041879969 654922211 -1593270047
REM
CELL 1.54180   50.00000   50.00000   50.00000   90.00000   90.00000   90.00000
LATT -1
SFAC C  
C      1  0.4559810000000  0.4412840000000  0.6376710000000 1.0
C      1  0.5076370000000  0.4819990000000  0.4346830000000 1.0
C      1  0.5267900000000  0.5052910000000  0.4343950000000 1.0
C      1  0.5762100000000  0.5016750000000  0.4537320000000 1.0
C      1  0.5051300000000  0.4590760000000  0.3839820000000 1.0
C      1  0.5175810000000  0.4537640000000  0.4803860000000 1.0
C      1  0.5901280000000  0.5052350000000  0.4760850000000 1.0
C      1  0.5117120000000  0.4727320000000  0.5281260000000 1.0
C      1  0.4997560000000  0.5672960000000  0.4666070000000 1.0
C      1  0.4387540000000  0.4968980000000  0.4779120000000 1.0
C      1  0.4804170000000  0.4912030000000  0.4435800000000 1.0
C      1  0.4943790000000  0.5694470000000  0.4925370000000 1.0
C      1  0.5375370000000  0.5067560000000  0.5500820000000 1.0
C      1  0.5927370000000  0.5096210000000  0.5021700000000 1.0
C      1  0.5830320000000  0.5124990000000  0.5267540000000 1.0
C      1  0.4641350000000  0.5017140000000  0.5497940000000 1.0
C      1  0.4598690000000  0.4961960000000  0.4595640000000 1.0
C      1  0.4186240000000  0.5163310000000  0.5425380000000 1.0
C      1  0.5166970000000  0.5314440000000  0.4336040000000 1.0
C      1  0.4439690000000  0.4999150000000  0.5052550000000 1.0
C      1  0.5061210000000  0.4696240000000  0.4077760000000 1.0
C      1  0.5164180000000  0.4618250000000  0.4551100000000 1.0
C      1  0.5629610000000  0.5118840000000  0.5441900000000 1.0
C      1  0.4594130000000  0.4712580000000  0.5946130000000 1.0
C      1  0.4892630000000  0.5132860000000  0.5433090000000 1.0
C      1  0.4904370000000  0.5399590000000  0.5349250000000 1.0
C      1  0.4576820000000  0.4561470000000  0.6163200000000 1.0
C      1  0.5541200000000  0.5010520000000  0.4389930000000 1.0
C      1  0.4915610000000  0.5595160000000  0.5170100000000 1.0
C      1  0.5125530000000  0.4970780000000  0.5419610000000 1.0
C      1  0.5075380000000  0.5534680000000  0.4452960000000 1.0
C      1  0.4129330000000  0.4946410000000  0.4691090000000 1.0
C      1  0.5147490000000  0.4576290000000  0.5065070000000 1.0
C      1  0.4419030000000  0.5059460000000  0.5325220000000 1.0
C      1  0.4612730000000  0.4863140000000  0.5729030000000 1.0
END
