TITL C-3201377-4638-627 -1.58638254542407e-08 125000 -218.138700124584 0 0 35 (D5h) n - 1
REM
REM in /home/nfs/bkarasulu/CARBON/AIRSS/Generating-Clusters/LCBOP/Higher-Symm/SD-CG/FIRE-CG
REM
REM
REM
REM
REM
REM ./C.cell (b20cbc046b6831c77cfcea5457e17084)
REM AIRSS Version 0.9.1 bugfix July 2018 build 013d7b7c2542+ Fri, 06 Jul 2018 19:26:36 +0100
REM compiler GCC version 9.2.1 20190827 (Red Hat 9.2.1-1)
REM options -cpp -mtune=generic -march=x86-64 -g -O0 -fpre-include=/usr/include/finclude/math-vector-fortran.h
REM seed -57879004 -880931184 1462051518 -968983977 -862849139 682311949 1972573887 322898381 1556681743 1297948598 -2040056179 1535396319 -1368240144 -1180018956 -1641233511 -252454260 -1139188706 -1009146441 -1856153114 1693337450 -683143933 -1788905747 963221060 1905032327 35636341 601681925 -1701124695 33647992 -218412940 1151834766 -436903428 -110630382 -350389002
REM
CELL 1.54180   50.00000   50.00000   50.00000   90.00000   90.00000   90.00000
LATT -1
SFAC C  
C      1  0.4518100000000  0.4493770000000  0.5083890000000 1.0
C      1  0.4518080000000  0.4923330000000  0.5507360000000 1.0
C      1  0.4518050000000  0.5458820000000  0.5229680000000 1.0
C      1  0.4518050000000  0.5360200000000  0.4634590000000 1.0
C      1  0.4518080000000  0.4763770000000  0.4544490000000 1.0
C      1  0.5421750000000  0.4493810000000  0.5083890000000 1.0
C      1  0.5421730000000  0.4923380000000  0.5507350000000 1.0
C      1  0.5421700000000  0.5458860000000  0.5229670000000 1.0
C      1  0.5421700000000  0.5360250000000  0.4634590000000 1.0
C      1  0.5421730000000  0.4763810000000  0.4544490000000 1.0
C      1  0.4712180000000  0.4680060000000  0.4383050000000 1.0
C      1  0.4712200000000  0.4314370000000  0.5113620000000 1.0
C      1  0.4712180000000  0.4896180000000  0.5687180000000 1.0
C      1  0.4712140000000  0.5621450000000  0.5311080000000 1.0
C      1  0.4712140000000  0.5487880000000  0.4505080000000 1.0
C      1  0.5227640000000  0.4680080000000  0.4383050000000 1.0
C      1  0.5227670000000  0.4314390000000  0.5113620000000 1.0
C      1  0.5227640000000  0.4896210000000  0.5687170000000 1.0
C      1  0.5227600000000  0.5621480000000  0.5311070000000 1.0
C      1  0.5227600000000  0.5487900000000  0.4505080000000 1.0
C      1  0.4440130000000  0.5173060000000  0.4824430000000 1.0
C      1  0.4440150000000  0.4886470000000  0.4781130000000 1.0
C      1  0.4440160000000  0.4756740000000  0.5040310000000 1.0
C      1  0.4440150000000  0.4963150000000  0.5243790000000 1.0
C      1  0.4440130000000  0.5220440000000  0.5110360000000 1.0
C      1  0.5499640000000  0.5173110000000  0.4824420000000 1.0
C      1  0.5499660000000  0.4886530000000  0.4781120000000 1.0
C      1  0.5499670000000  0.4756800000000  0.5040300000000 1.0
C      1  0.5499660000000  0.4963200000000  0.5243780000000 1.0
C      1  0.5499640000000  0.5220500000000  0.5110350000000 1.0
C      1  0.4969910000000  0.4886370000000  0.5752220000000 1.0
C      1  0.4969910000000  0.4649790000000  0.4324650000000 1.0
C      1  0.4969870000000  0.5534070000000  0.4458240000000 1.0
C      1  0.4969870000000  0.5680290000000  0.5340520000000 1.0
C      1  0.4969940000000  0.4249490000000  0.5124380000000 1.0
END
