TITL C-3201379-3821-1610 -1.75188741035919e-06 125000 -1061.27730173617 0 0 174 (Ci) n - 1
REM
REM in /home/nfs/bkarasulu/CARBON/AIRSS/Generating-Clusters/LCBOP/Higher-Symm/SD-CG/FIRE-CG
REM
REM
REM
REM
REM
REM ./C.cell (b20cbc046b6831c77cfcea5457e17084)
REM AIRSS Version 0.9.1 bugfix July 2018 build 013d7b7c2542+ Fri, 06 Jul 2018 19:26:36 +0100
REM compiler GCC version 9.2.1 20190827 (Red Hat 9.2.1-1)
REM options -cpp -mtune=generic -march=x86-64 -g -O0 -fpre-include=/usr/include/finclude/math-vector-fortran.h
REM seed -630720584 210391800 573552281 -1428554956 -805657599 637518493 654572495 1461506984 -720288025 -1155961545 -1213162964 -755539146 1632403378 -1321176023 873203114 164472303 1200413560 -154420257 -1212108008 -91858262 -44873303 204577944 1455773581 -1169337296 -2126591575 1785013205 1703794834 -832178502 1845633617 21828132 -2131708457 -383947400 -1699864577
REM
CELL 1.54180   50.00000   50.00000   50.00000   90.00000   90.00000   90.00000
LATT -1
SFAC C  
C      1  0.5699150000000  0.5671420000000  0.5689370000000 1.0
C      1  0.5979050000000  0.4733750000000  0.5656090000000 1.0
C      1  0.5262320000000  0.4061660000000  0.5568400000000 1.0
C      1  0.4325110000000  0.4360180000000  0.5506200000000 1.0
C      1  0.4074490000000  0.5268130000000  0.5561850000000 1.0
C      1  0.4753890000000  0.5907820000000  0.5638710000000 1.0
C      1  0.5674890000000  0.5639820000000  0.4500710000000 1.0
C      1  0.5925510000000  0.4731870000000  0.4445060000000 1.0
C      1  0.5246110000000  0.4092180000000  0.4368200000000 1.0
C      1  0.4300850000000  0.4328580000000  0.4317550000000 1.0
C      1  0.4020950000000  0.5266250000000  0.4350820000000 1.0
C      1  0.4737680000000  0.5938340000000  0.4438510000000 1.0
C      1  0.5950930000000  0.4473740000000  0.4888290000000 1.0
C      1  0.5025310000000  0.3926420000000  0.4812000000000 1.0
C      1  0.4037530000000  0.4423600000000  0.4773170000000 1.0
C      1  0.4008460000000  0.5512120000000  0.4846760000000 1.0
C      1  0.4959620000000  0.6051140000000  0.4919470000000 1.0
C      1  0.5924100000000  0.5541480000000  0.4960580000000 1.0
C      1  0.5991540000000  0.4487880000000  0.5160150000000 1.0
C      1  0.5040380000000  0.3948860000000  0.5087440000000 1.0
C      1  0.4075900000000  0.4458520000000  0.5046330000000 1.0
C      1  0.4049070000000  0.5526260000000  0.5118620000000 1.0
C      1  0.4974690000000  0.6073580000000  0.5194910000000 1.0
C      1  0.5962470000000  0.5576400000000  0.5233740000000 1.0
C      1  0.5114350000000  0.5416140000000  0.5583680000000 1.0
C      1  0.5357620000000  0.5254670000000  0.5603650000000 1.0
C      1  0.5338000000000  0.4977380000000  0.5673560000000 1.0
C      1  0.5082500000000  0.4848700000000  0.5716980000000 1.0
C      1  0.4838770000000  0.4999920000000  0.5692150000000 1.0
C      1  0.4848890000000  0.5285970000000  0.5627850000000 1.0
C      1  0.4917500000000  0.5151300000000  0.4289930000000 1.0
C      1  0.5161230000000  0.5000080000000  0.4314760000000 1.0
C      1  0.5151110000000  0.4714030000000  0.4379060000000 1.0
C      1  0.4885650000000  0.4583860000000  0.4423230000000 1.0
C      1  0.4642380000000  0.4745330000000  0.4403260000000 1.0
C      1  0.4662000000000  0.5022620000000  0.4333350000000 1.0
C      1  0.4713730000000  0.4634140000000  0.5426090000000 1.0
C      1  0.4546480000000  0.5141960000000  0.5308430000000 1.0
C      1  0.4919980000000  0.5530160000000  0.5177490000000 1.0
C      1  0.5455100000000  0.5408770000000  0.5170010000000 1.0
C      1  0.5621770000000  0.4893090000000  0.5301350000000 1.0
C      1  0.5252290000000  0.4516060000000  0.5437520000000 1.0
C      1  0.4544900000000  0.4591230000000  0.4836900000000 1.0
C      1  0.4378230000000  0.5106910000000  0.4705570000000 1.0
C      1  0.4747710000000  0.5483940000000  0.4569390000000 1.0
C      1  0.5286270000000  0.5365860000000  0.4580830000000 1.0
C      1  0.5453520000000  0.4858040000000  0.4698480000000 1.0
C      1  0.5080020000000  0.4469840000000  0.4829420000000 1.0
C      1  0.4973410000000  0.5971720000000  0.4636090000000 1.0
C      1  0.5834870000000  0.5462130000000  0.4689750000000 1.0
C      1  0.5883310000000  0.4483470000000  0.4602230000000 1.0
C      1  0.5005080000000  0.3983010000000  0.4519050000000 1.0
C      1  0.4066400000000  0.4467440000000  0.4474950000000 1.0
C      1  0.4065740000000  0.5510540000000  0.4557620000000 1.0
C      1  0.4994920000000  0.6016990000000  0.5487870000000 1.0
C      1  0.5933600000000  0.5532560000000  0.5531960000000 1.0
C      1  0.5934260000000  0.4489460000000  0.5449290000000 1.0
C      1  0.5026590000000  0.4028280000000  0.5370820000000 1.0
C      1  0.4165130000000  0.4537870000000  0.5317160000000 1.0
C      1  0.4116690000000  0.5516530000000  0.5404680000000 1.0
C      1  0.4273090000000  0.5728690000000  0.5524640000000 1.0
C      1  0.5267320000000  0.5983890000000  0.5602810000000 1.0
C      1  0.6048880000000  0.5271160000000  0.5628700000000 1.0
C      1  0.5691340000000  0.4327640000000  0.5512740000000 1.0
C      1  0.4781210000000  0.4166650000000  0.5456070000000 1.0
C      1  0.4157360000000  0.4821660000000  0.5390200000000 1.0
C      1  0.4308660000000  0.5672360000000  0.4494180000000 1.0
C      1  0.5218790000000  0.5833350000000  0.4550850000000 1.0
C      1  0.5842640000000  0.5178340000000  0.4616720000000 1.0
C      1  0.5726910000000  0.4271310000000  0.4482270000000 1.0
C      1  0.4732680000000  0.4016110000000  0.4404110000000 1.0
C      1  0.3951120000000  0.4728840000000  0.4378210000000 1.0
C      1  0.4586140000000  0.4636030000000  0.3939990000000 1.0
C      1  0.4424970000000  0.5205810000000  0.3944240000000 1.0
C      1  0.4853720000000  0.5632480000000  0.3968020000000 1.0
C      1  0.5442060000000  0.5442410000000  0.4024440000000 1.0
C      1  0.5569950000000  0.4865660000000  0.4016870000000 1.0
C      1  0.5146780000000  0.4477020000000  0.3968960000000 1.0
C      1  0.4557940000000  0.4557590000000  0.5982480000000 1.0
C      1  0.4430050000000  0.5134340000000  0.5990040000000 1.0
C      1  0.4853220000000  0.5522980000000  0.6037960000000 1.0
C      1  0.5413860000000  0.5363970000000  0.6066930000000 1.0
C      1  0.5575030000000  0.4794190000000  0.6062670000000 1.0
C      1  0.5146280000000  0.4367520000000  0.6038890000000 1.0
C      1  0.5574150000000  0.5321230000000  0.5414870000000 1.0
C      1  0.5546730000000  0.4808030000000  0.5565210000000 1.0
C      1  0.5070770000000  0.4556240000000  0.5658020000000 1.0
C      1  0.4609330000000  0.4833240000000  0.5606470000000 1.0
C      1  0.4613970000000  0.5376360000000  0.5465190000000 1.0
C      1  0.5116990000000  0.5618510000000  0.5366270000000 1.0
C      1  0.5390670000000  0.5166760000000  0.4400440000000 1.0
C      1  0.5386030000000  0.4623640000000  0.4541720000000 1.0
C      1  0.4883010000000  0.4381490000000  0.4640640000000 1.0
C      1  0.4425850000000  0.4678770000000  0.4592050000000 1.0
C      1  0.4453270000000  0.5191970000000  0.4441710000000 1.0
C      1  0.4929230000000  0.5443760000000  0.4348900000000 1.0
C      1  0.5502970000000  0.5855050000000  0.4616140000000 1.0
C      1  0.6035290000000  0.4963620000000  0.4597580000000 1.0
C      1  0.5515380000000  0.4073850000000  0.4496720000000 1.0
C      1  0.4450000000000  0.4094110000000  0.4437310000000 1.0
C      1  0.3884590000000  0.5011790000000  0.4444790000000 1.0
C      1  0.4456650000000  0.5919630000000  0.4547540000000 1.0
C      1  0.5550000000000  0.5905890000000  0.5569600000000 1.0
C      1  0.6115410000000  0.4988210000000  0.5562130000000 1.0
C      1  0.5543350000000  0.4080370000000  0.5459380000000 1.0
C      1  0.4497030000000  0.4144950000000  0.5390770000000 1.0
C      1  0.3964710000000  0.5036380000000  0.5409330000000 1.0
C      1  0.4484620000000  0.5926150000000  0.5510200000000 1.0
C      1  0.4710770000000  0.5135420000000  0.3871200000000 1.0
C      1  0.4934230000000  0.5352110000000  0.3882980000000 1.0
C      1  0.5233680000000  0.5259750000000  0.3908980000000 1.0
C      1  0.5305060000000  0.4959300000000  0.3905580000000 1.0
C      1  0.5081780000000  0.4754860000000  0.3889530000000 1.0
C      1  0.4791690000000  0.4839630000000  0.3876150000000 1.0
C      1  0.4694940000000  0.5040700000000  0.6101330000000 1.0
C      1  0.4918220000000  0.5245140000000  0.6117380000000 1.0
C      1  0.5208310000000  0.5160370000000  0.6130760000000 1.0
C      1  0.5289230000000  0.4864580000000  0.6135720000000 1.0
C      1  0.5065770000000  0.4647890000000  0.6123930000000 1.0
C      1  0.4766320000000  0.4740250000000  0.6097940000000 1.0
C      1  0.4404890000000  0.4944000000000  0.5447150000000 1.0
C      1  0.4661590000000  0.5574370000000  0.5267260000000 1.0
C      1  0.5345350000000  0.5661520000000  0.5202990000000 1.0
C      1  0.5761400000000  0.5129690000000  0.5320730000000 1.0
C      1  0.5503480000000  0.4531840000000  0.5556170000000 1.0
C      1  0.4835310000000  0.4422670000000  0.5563670000000 1.0
C      1  0.4238600000000  0.4870310000000  0.4686190000000 1.0
C      1  0.4496520000000  0.5468160000000  0.4450750000000 1.0
C      1  0.5164690000000  0.5577330000000  0.4443240000000 1.0
C      1  0.5595110000000  0.5056000000000  0.4559760000000 1.0
C      1  0.5338410000000  0.4425630000000  0.4739650000000 1.0
C      1  0.4654650000000  0.4338480000000  0.4803920000000 1.0
C      1  0.4813450000000  0.5053940000000  0.5223960000000 1.0
C      1  0.4997830000000  0.5250940000000  0.5152570000000 1.0
C      1  0.5273710000000  0.5188470000000  0.5129030000000 1.0
C      1  0.5365350000000  0.4916860000000  0.5174110000000 1.0
C      1  0.5175160000000  0.4714580000000  0.5247700000000 1.0
C      1  0.4899200000000  0.4788440000000  0.5271250000000 1.0
C      1  0.4634650000000  0.5083140000000  0.4832800000000 1.0
C      1  0.4824840000000  0.5285420000000  0.4759210000000 1.0
C      1  0.5100800000000  0.5211560000000  0.4735660000000 1.0
C      1  0.5186550000000  0.4946060000000  0.4782950000000 1.0
C      1  0.5002170000000  0.4749060000000  0.4854340000000 1.0
C      1  0.4726290000000  0.4811530000000  0.4877880000000 1.0
C      1  0.4229200000000  0.5216140000000  0.5814790000000 1.0
C      1  0.4796040000000  0.5737800000000  0.5874890000000 1.0
C      1  0.5576800000000  0.5532340000000  0.5920930000000 1.0
C      1  0.5807000000000  0.4752330000000  0.5910090000000 1.0
C      1  0.5209990000000  0.4170970000000  0.5847800000000 1.0
C      1  0.4395380000000  0.4444240000000  0.5786000000000 1.0
C      1  0.4193000000000  0.5247670000000  0.4096820000000 1.0
C      1  0.4790010000000  0.5829030000000  0.4159120000000 1.0
C      1  0.5604620000000  0.5555760000000  0.4220910000000 1.0
C      1  0.5770800000000  0.4783860000000  0.4192120000000 1.0
C      1  0.5203960000000  0.4262200000000  0.4132020000000 1.0
C      1  0.4423200000000  0.4467660000000  0.4085980000000 1.0
C      1  0.6231910000000  0.4949490000000  0.4799080000000 1.0
C      1  0.5552670000000  0.3893110000000  0.4713760000000 1.0
C      1  0.4329200000000  0.3965990000000  0.4663280000000 1.0
C      1  0.3727240000000  0.5039320000000  0.4683200000000 1.0
C      1  0.4388860000000  0.6076880000000  0.4772520000000 1.0
C      1  0.5599000000000  0.6017550000000  0.4825510000000 1.0
C      1  0.6272760000000  0.4960680000000  0.5323710000000 1.0
C      1  0.5611140000000  0.3923120000000  0.5234390000000 1.0
C      1  0.4401000000000  0.3982450000000  0.5181410000000 1.0
C      1  0.3768090000000  0.5050510000000  0.5207830000000 1.0
C      1  0.4447330000000  0.6106890000000  0.5293150000000 1.0
C      1  0.5670800000000  0.6034010000000  0.5343640000000 1.0
C      1  0.5604630000000  0.3859660000000  0.4974550000000 1.0
C      1  0.3696010000000  0.5043190000000  0.4949570000000 1.0
C      1  0.4395370000000  0.6140340000000  0.5032360000000 1.0
C      1  0.6303990000000  0.4956810000000  0.5057340000000 1.0
C      1  0.4334040000000  0.3924500000000  0.4928530000000 1.0
C      1  0.5665960000000  0.6075500000000  0.5078390000000 1.0
END
