TITL C-3201377-4638-615 0.0107874536763863 125000 -426.233837173205 0 0 73 (C1) n - 1
REM
REM in /home/nfs/bkarasulu/CARBON/AIRSS/Generating-Clusters/LCBOP/Higher-Symm/SD-CG/FIRE-CG
REM
REM
REM
REM
REM
REM ./C.cell (b20cbc046b6831c77cfcea5457e17084)
REM AIRSS Version 0.9.1 bugfix July 2018 build 013d7b7c2542+ Fri, 06 Jul 2018 19:26:36 +0100
REM compiler GCC version 9.2.1 20190827 (Red Hat 9.2.1-1)
REM options -cpp -mtune=generic -march=x86-64 -g -O0 -fpre-include=/usr/include/finclude/math-vector-fortran.h
REM seed 1509736132 -1875569029 223367128 -383939245 -429728791 -930593001 -733015665 -1238576388 -1346802323 -1621531431 -438317066 -1193633360 -1843251041 -1834085892 1988211590 -2119963027 88390694 877921570 -135367383 -279151986 1945808198 625386035 1627881586 296374689 -622184383 -1039992836 -531574996 -1739079263 1814865544 1020039979 -1575813334 -1011479799 1310413449
REM
CELL 1.54180   50.00000   50.00000   50.00000   90.00000   90.00000   90.00000
LATT -1
SFAC C  
C      1  0.4676340000000  0.4771450000000  0.6009430000000 1.0
C      1  0.5892580000000  0.5768490000000  0.4627210000000 1.0
C      1  0.4922260000000  0.4386500000000  0.5463120000000 1.0
C      1  0.4872310000000  0.5056960000000  0.4494340000000 1.0
C      1  0.4645090000000  0.5149180000000  0.5053450000000 1.0
C      1  0.4978520000000  0.6108850000000  0.4807410000000 1.0
C      1  0.5126170000000  0.6304140000000  0.4718090000000 1.0
C      1  0.5144310000000  0.5766380000000  0.5283760000000 1.0
C      1  0.4927740000000  0.4752050000000  0.5079060000000 1.0
C      1  0.5656910000000  0.4951860000000  0.5104240000000 1.0
C      1  0.5284770000000  0.5211100000000  0.4672750000000 1.0
C      1  0.4857560000000  0.4835390000000  0.5547030000000 1.0
C      1  0.4153090000000  0.4790260000000  0.5100880000000 1.0
C      1  0.4836930000000  0.5186410000000  0.5942380000000 1.0
C      1  0.5511860000000  0.5671250000000  0.4981450000000 1.0
C      1  0.5320670000000  0.4754320000000  0.4252660000000 1.0
C      1  0.4470990000000  0.4621080000000  0.4562900000000 1.0
C      1  0.4486590000000  0.5582280000000  0.4632420000000 1.0
C      1  0.4121240000000  0.4947610000000  0.5326850000000 1.0
C      1  0.5037610000000  0.4702000000000  0.3850610000000 1.0
C      1  0.5024880000000  0.5115000000000  0.4723890000000 1.0
C      1  0.4361790000000  0.5005350000000  0.5769560000000 1.0
C      1  0.4487300000000  0.4389810000000  0.4999870000000 1.0
C      1  0.5072800000000  0.5163800000000  0.5242510000000 1.0
C      1  0.4863650000000  0.5107470000000  0.5450830000000 1.0
C      1  0.4335400000000  0.4562730000000  0.5456220000000 1.0
C      1  0.5269710000000  0.4930910000000  0.5751600000000 1.0
C      1  0.4914330000000  0.4647420000000  0.5344640000000 1.0
C      1  0.4828550000000  0.4696420000000  0.5798600000000 1.0
C      1  0.6075150000000  0.5066240000000  0.4781370000000 1.0
C      1  0.4357300000000  0.5365920000000  0.4547300000000 1.0
C      1  0.4882400000000  0.5805800000000  0.5178150000000 1.0
C      1  0.5317360000000  0.5299830000000  0.5232340000000 1.0
C      1  0.5445820000000  0.4248210000000  0.4982800000000 1.0
C      1  0.5079050000000  0.4798560000000  0.4107460000000 1.0
C      1  0.4304100000000  0.5109880000000  0.4497570000000 1.0
C      1  0.5096790000000  0.5104710000000  0.5880420000000 1.0
C      1  0.5701970000000  0.5734140000000  0.4808120000000 1.0
C      1  0.4624970000000  0.5232580000000  0.5331510000000 1.0
C      1  0.4581140000000  0.5037830000000  0.5956170000000 1.0
C      1  0.5871200000000  0.5008280000000  0.4932890000000 1.0
C      1  0.4686810000000  0.4217450000000  0.5133920000000 1.0
C      1  0.4311520000000  0.4554670000000  0.5154880000000 1.0
C      1  0.4999880000000  0.4606000000000  0.3606580000000 1.0
C      1  0.4887060000000  0.4374150000000  0.4738700000000 1.0
C      1  0.4547040000000  0.5491860000000  0.5397780000000 1.0
C      1  0.5550480000000  0.4689090000000  0.5111290000000 1.0
C      1  0.4887600000000  0.4948080000000  0.4249970000000 1.0
C      1  0.4347550000000  0.4847130000000  0.4495020000000 1.0
C      1  0.5322330000000  0.5577920000000  0.5165040000000 1.0
C      1  0.4657080000000  0.5750060000000  0.4748310000000 1.0
C      1  0.5579410000000  0.4488840000000  0.4900430000000 1.0
C      1  0.6080250000000  0.5790800000000  0.4447640000000 1.0
C      1  0.5490560000000  0.4977620000000  0.4292960000000 1.0
C      1  0.5083310000000  0.4433990000000  0.4547030000000 1.0
C      1  0.5723730000000  0.5239560000000  0.5486020000000 1.0
C      1  0.5564140000000  0.5161660000000  0.5276250000000 1.0
C      1  0.5215860000000  0.4307220000000  0.5129960000000 1.0
C      1  0.5471120000000  0.5167070000000  0.4483900000000 1.0
C      1  0.5366700000000  0.4600020000000  0.5315770000000 1.0
C      1  0.5226430000000  0.5911410000000  0.5501360000000 1.0
C      1  0.4963060000000  0.4511260000000  0.3366510000000 1.0
C      1  0.4606370000000  0.4456240000000  0.4741690000000 1.0
C      1  0.4460730000000  0.4328310000000  0.5555280000000 1.0
C      1  0.5549540000000  0.4543630000000  0.4627280000000 1.0
C      1  0.4839630000000  0.5889290000000  0.4909570000000 1.0
C      1  0.4690650000000  0.4228850000000  0.5421250000000 1.0
C      1  0.4661800000000  0.5725240000000  0.5333020000000 1.0
C      1  0.5343270000000  0.4739220000000  0.5566630000000 1.0
C      1  0.5322950000000  0.4556400000000  0.4457930000000 1.0
C      1  0.4956060000000  0.4258740000000  0.5004020000000 1.0
C      1  0.4261650000000  0.4837830000000  0.5558660000000 1.0
C      1  0.4926230000000  0.5041940000000  0.4991520000000 1.0
END
