TITL C-3201373-1215-1418 -6.56847938303091e-07 125000 -502.956099179355 0 0 81 (C1) n - 1
REM
REM in /home/nfs/bkarasulu/CARBON/AIRSS/Generating-Clusters/LCBOP/Higher-Symm/SD-CG/FIRE-CG
REM
REM
REM
REM
REM
REM ./C.cell (b20cbc046b6831c77cfcea5457e17084)
REM AIRSS Version 0.9.1 bugfix July 2018 build 013d7b7c2542+ Fri, 06 Jul 2018 19:26:36 +0100
REM compiler GCC version 9.2.1 20190827 (Red Hat 9.2.1-1)
REM options -cpp -mtune=generic -march=x86-64 -g -O0 -fpre-include=/usr/include/finclude/math-vector-fortran.h
REM seed -2075602721 -1647912977 -8898160 428491851 -581646049 -1710080659 1634118173 -953186368 6116301 -157019783 894691352 -1453459189 -739747142 -1844390017 -1638267705 120143471 -1370202163 -1072896959 1787411288 -408919431 -1700236668 -733883619 -1216440527 827039768 -271191963 1236825116 1814911866 -903342094 1149747250 915267760 1602969479 -1581119587 758712898
REM
CELL 1.54180   50.00000   50.00000   50.00000   90.00000   90.00000   90.00000
LATT -1
SFAC C  
C      1  0.5195060000000  0.5218420000000  0.4867740000000 1.0
C      1  0.4768950000000  0.4816380000000  0.4875540000000 1.0
C      1  0.4786660000000  0.5202570000000  0.5155340000000 1.0
C      1  0.5200080000000  0.4831860000000  0.5139540000000 1.0
C      1  0.5048570000000  0.4881080000000  0.6013190000000 1.0
C      1  0.5001240000000  0.5144500000000  0.6015430000000 1.0
C      1  0.5003640000000  0.4882310000000  0.3998100000000 1.0
C      1  0.5027500000000  0.5149450000000  0.4000030000000 1.0
C      1  0.5429020000000  0.4696210000000  0.5807750000000 1.0
C      1  0.4607440000000  0.5330060000000  0.5838290000000 1.0
C      1  0.4636030000000  0.4702920000000  0.4225220000000 1.0
C      1  0.5397590000000  0.5353340000000  0.4204420000000 1.0
C      1  0.4852470000000  0.5462090000000  0.5058490000000 1.0
C      1  0.5134560000000  0.4575820000000  0.5038180000000 1.0
C      1  0.5124600000000  0.5467540000000  0.4982760000000 1.0
C      1  0.4858910000000  0.4564900000000  0.4976040000000 1.0
C      1  0.5054090000000  0.4302240000000  0.4505680000000 1.0
C      1  0.4948600000000  0.5725450000000  0.4514590000000 1.0
C      1  0.4997410000000  0.4298740000000  0.5515320000000 1.0
C      1  0.5024310000000  0.5733860000000  0.5521350000000 1.0
C      1  0.5161550000000  0.5872130000000  0.4629330000000 1.0
C      1  0.4844290000000  0.4157600000000  0.4629890000000 1.0
C      1  0.4804850000000  0.5869300000000  0.5404940000000 1.0
C      1  0.5216040000000  0.4169450000000  0.5392520000000 1.0
C      1  0.4247500000000  0.4658540000000  0.5217170000000 1.0
C      1  0.5741890000000  0.5369130000000  0.5162400000000 1.0
C      1  0.5789360000000  0.4704120000000  0.4833130000000 1.0
C      1  0.4246670000000  0.5357910000000  0.4892120000000 1.0
C      1  0.4880830000000  0.5368970000000  0.5889580000000 1.0
C      1  0.5159950000000  0.4657480000000  0.5878200000000 1.0
C      1  0.5124020000000  0.5374980000000  0.4143430000000 1.0
C      1  0.4899180000000  0.4660970000000  0.4141680000000 1.0
C      1  0.5676650000000  0.4762010000000  0.5083140000000 1.0
C      1  0.4313690000000  0.5286850000000  0.5141510000000 1.0
C      1  0.4303700000000  0.4701570000000  0.4959420000000 1.0
C      1  0.5668340000000  0.5315820000000  0.4910250000000 1.0
C      1  0.4466520000000  0.5127650000000  0.5731600000000 1.0
C      1  0.5561920000000  0.4897580000000  0.5690010000000 1.0
C      1  0.5546270000000  0.5157090000000  0.4312590000000 1.0
C      1  0.4489400000000  0.4900050000000  0.4328890000000 1.0
C      1  0.4067730000000  0.4934010000000  0.4551530000000 1.0
C      1  0.6293900000000  0.4525300000000  0.4773550000000 1.0
C      1  0.6050140000000  0.4612300000000  0.4804000000000 1.0
C      1  0.3813850000000  0.4884260000000  0.4521690000000 1.0
C      1  0.5332790000000  0.5508950000000  0.5775370000000 1.0
C      1  0.4702590000000  0.4515390000000  0.5789120000000 1.0
C      1  0.4660870000000  0.5464190000000  0.4270280000000 1.0
C      1  0.5355580000000  0.4531300000000  0.4244390000000 1.0
C      1  0.5266150000000  0.5694080000000  0.5075280000000 1.0
C      1  0.4732160000000  0.4333010000000  0.5077640000000 1.0
C      1  0.4704650000000  0.5682890000000  0.4961470000000 1.0
C      1  0.5292400000000  0.4360550000000  0.4946130000000 1.0
C      1  0.4492350000000  0.4842590000000  0.4800550000000 1.0
C      1  0.5460190000000  0.5179870000000  0.4775110000000 1.0
C      1  0.5465300000000  0.4882300000000  0.5226720000000 1.0
C      1  0.4529970000000  0.5152840000000  0.5264350000000 1.0
C      1  0.4367980000000  0.5298760000000  0.4642790000000 1.0
C      1  0.5618570000000  0.4747330000000  0.4608520000000 1.0
C      1  0.5604250000000  0.5317460000000  0.5403180000000 1.0
C      1  0.4407780000000  0.4711530000000  0.5442230000000 1.0
C      1  0.5341000000000  0.4173480000000  0.5151710000000 1.0
C      1  0.4672680000000  0.5875110000000  0.5166780000000 1.0
C      1  0.4715710000000  0.4139550000000  0.4870220000000 1.0
C      1  0.5292910000000  0.5884230000000  0.4867470000000 1.0
C      1  0.4567380000000  0.4499110000000  0.5537310000000 1.0
C      1  0.5456370000000  0.5528860000000  0.5517560000000 1.0
C      1  0.5478760000000  0.4526190000000  0.4503260000000 1.0
C      1  0.4530560000000  0.5494710000000  0.4523140000000 1.0
C      1  0.4987590000000  0.4464020000000  0.5761540000000 1.0
C      1  0.5046230000000  0.5563310000000  0.5763980000000 1.0
C      1  0.5071390000000  0.4468400000000  0.4259080000000 1.0
C      1  0.4940570000000  0.5546600000000  0.4277100000000 1.0
C      1  0.5539740000000  0.5017320000000  0.4555490000000 1.0
C      1  0.4362240000000  0.5003250000000  0.4575160000000 1.0
C      1  0.4470300000000  0.4987430000000  0.5488970000000 1.0
C      1  0.5540890000000  0.5042030000000  0.5451110000000 1.0
C      1  0.4737970000000  0.4329380000000  0.5364670000000 1.0
C      1  0.5276010000000  0.5701670000000  0.5360430000000 1.0
C      1  0.5304560000000  0.4351060000000  0.4662750000000 1.0
C      1  0.4697960000000  0.5683870000000  0.4675450000000 1.0
C      1  0.4987200000000  0.5017340000000  0.5006570000000 1.0
END
