TITL C-3201379-3821-854 -3.07907990630185e-07 125000 -88.7221371252583 0 0 15 (Cs) n - 1
REM
REM in /home/nfs/bkarasulu/CARBON/AIRSS/Generating-Clusters/LCBOP/Higher-Symm/SD-CG/FIRE-CG
REM
REM
REM
REM
REM
REM ./C.cell (b20cbc046b6831c77cfcea5457e17084)
REM AIRSS Version 0.9.1 bugfix July 2018 build 013d7b7c2542+ Fri, 06 Jul 2018 19:26:36 +0100
REM compiler GCC version 9.2.1 20190827 (Red Hat 9.2.1-1)
REM options -cpp -mtune=generic -march=x86-64 -g -O0 -fpre-include=/usr/include/finclude/math-vector-fortran.h
REM seed -570483681 1464283329 -1330632221 -1624789488 1168138131 -2096376349 -469322653 95257614 1793527498 1219763672 1198703299 1610266662 -1966701805 1082830712 88473752 -1661837274 -200208801 -870171481 1782824225 845908050 -1160033682 -2066929171 -608082784 -591171904 1289220361 196071581 -1006184280 439242599 730431994 -275255014 304640693 1688202561 286195120
REM
CELL 1.54180   50.00000   50.00000   50.00000   90.00000   90.00000   90.00000
LATT -1
SFAC C  
C      1  0.4842920000000  0.5583160000000  0.5047320000000 1.0
C      1  0.5184050000000  0.4472990000000  0.4932410000000 1.0
C      1  0.4966910000000  0.4624690000000  0.4956970000000 1.0
C      1  0.5113060000000  0.5530250000000  0.5028650000000 1.0
C      1  0.5628510000000  0.4681680000000  0.4927580000000 1.0
C      1  0.4420630000000  0.5270490000000  0.5041890000000 1.0
C      1  0.5414270000000  0.5135360000000  0.4978430000000 1.0
C      1  0.4520740000000  0.4813410000000  0.4996680000000 1.0
C      1  0.4692310000000  0.5339660000000  0.5033830000000 1.0
C      1  0.5451030000000  0.4480810000000  0.4919220000000 1.0
C      1  0.4803070000000  0.4848310000000  0.4985060000000 1.0
C      1  0.5161550000000  0.5246100000000  0.5001250000000 1.0
C      1  0.4338990000000  0.5012650000000  0.5023560000000 1.0
C      1  0.5600050000000  0.4946580000000  0.4952250000000 1.0
C      1  0.4895370000000  0.5119410000000  0.5004000000000 1.0
END
