TITL C-3201375-1262-1471 2.59507343011208e-06 125000 -1089.56715690073 0 0 174 (C1) n - 1
REM
REM in /home/nfs/bkarasulu/CARBON/AIRSS/Generating-Clusters/LCBOP/Higher-Symm/SD-CG/FIRE-CG
REM
REM
REM
REM
REM
REM ./C.cell (b20cbc046b6831c77cfcea5457e17084)
REM AIRSS Version 0.9.1 bugfix July 2018 build 013d7b7c2542+ Fri, 06 Jul 2018 19:26:36 +0100
REM compiler GCC version 9.2.1 20190827 (Red Hat 9.2.1-1)
REM options -cpp -mtune=generic -march=x86-64 -g -O0 -fpre-include=/usr/include/finclude/math-vector-fortran.h
REM seed 918455620 1479204485 124623755 1745163732 -1529993167 -759945611 348732579 1110180283 -432889097 -330175512 -1392587328 1383394342 681594350 -1545103360 1391124954 -424290083 488009469 1237433966 -731180401 -1949430776 1204704449 1616873223 2142700309 882043015 803237374 -35029317 863920542 1956987556 -213238054 -1778364476 2001365563 1231262116 173380043
REM
CELL 1.54180   50.00000   50.00000   50.00000   90.00000   90.00000   90.00000
LATT -1
SFAC C  
C      1  0.3985220000000  0.4660970000000  0.5574520000000 1.0
C      1  0.6048030000000  0.4628280000000  0.4413560000000 1.0
C      1  0.3996660000000  0.5352160000000  0.4436900000000 1.0
C      1  0.6005510000000  0.5327300000000  0.5548410000000 1.0
C      1  0.5574180000000  0.4654950000000  0.3984440000000 1.0
C      1  0.4442250000000  0.4657010000000  0.6031200000000 1.0
C      1  0.4466190000000  0.5351960000000  0.4002010000000 1.0
C      1  0.5576470000000  0.5347200000000  0.6019680000000 1.0
C      1  0.4710490000000  0.4886740000000  0.4181150000000 1.0
C      1  0.5305250000000  0.4915760000000  0.5790080000000 1.0
C      1  0.4677680000000  0.5110550000000  0.5863760000000 1.0
C      1  0.5321640000000  0.5128370000000  0.4162200000000 1.0
C      1  0.4159550000000  0.4875370000000  0.4701870000000 1.0
C      1  0.5839530000000  0.4862000000000  0.5292240000000 1.0
C      1  0.5854610000000  0.5066610000000  0.4676550000000 1.0
C      1  0.4110610000000  0.5125980000000  0.5321740000000 1.0
C      1  0.6018280000000  0.5357780000000  0.4370270000000 1.0
C      1  0.3963660000000  0.5382100000000  0.5655810000000 1.0
C      1  0.6010090000000  0.4613360000000  0.5632820000000 1.0
C      1  0.3995820000000  0.4622830000000  0.4366320000000 1.0
C      1  0.4352680000000  0.5380530000000  0.6020320000000 1.0
C      1  0.5654710000000  0.5374140000000  0.3985510000000 1.0
C      1  0.5619520000000  0.4630440000000  0.5984910000000 1.0
C      1  0.4378170000000  0.4626160000000  0.4004020000000 1.0
C      1  0.5711220000000  0.5568200000000  0.5886310000000 1.0
C      1  0.4326710000000  0.5582330000000  0.4120580000000 1.0
C      1  0.5638770000000  0.4443950000000  0.4174890000000 1.0
C      1  0.4306990000000  0.4430440000000  0.5904340000000 1.0
C      1  0.5812020000000  0.5533050000000  0.5616970000000 1.0
C      1  0.4117350000000  0.5582330000000  0.4303410000000 1.0
C      1  0.4193250000000  0.4467020000000  0.5641160000000 1.0
C      1  0.5908590000000  0.4408530000000  0.4277690000000 1.0
C      1  0.5223430000000  0.4701190000000  0.3942010000000 1.0
C      1  0.4800410000000  0.4690590000000  0.6066440000000 1.0
C      1  0.5227520000000  0.5311920000000  0.6070060000000 1.0
C      1  0.4780230000000  0.5314610000000  0.3946910000000 1.0
C      1  0.3922530000000  0.4694770000000  0.5222220000000 1.0
C      1  0.6098110000000  0.4658700000000  0.4768820000000 1.0
C      1  0.6062510000000  0.5282880000000  0.5196170000000 1.0
C      1  0.3925980000000  0.5304480000000  0.4781140000000 1.0
C      1  0.3958150000000  0.4514110000000  0.4985710000000 1.0
C      1  0.6045130000000  0.4492180000000  0.5017810000000 1.0
C      1  0.3931740000000  0.5485490000000  0.5022030000000 1.0
C      1  0.6025610000000  0.5445290000000  0.4938870000000 1.0
C      1  0.4982530000000  0.4522930000000  0.3972990000000 1.0
C      1  0.5061400000000  0.4539860000000  0.5999940000000 1.0
C      1  0.5030350000000  0.5485880000000  0.3984470000000 1.0
C      1  0.4978790000000  0.5480980000000  0.6043460000000 1.0
C      1  0.5773380000000  0.5121220000000  0.5980440000000 1.0
C      1  0.4259220000000  0.5128070000000  0.4033510000000 1.0
C      1  0.5788560000000  0.4864420000000  0.4001530000000 1.0
C      1  0.4229250000000  0.4876930000000  0.5999370000000 1.0
C      1  0.5988020000000  0.5117760000000  0.5762650000000 1.0
C      1  0.4040170000000  0.5127350000000  0.4242830000000 1.0
C      1  0.4006700000000  0.4873590000000  0.5787410000000 1.0
C      1  0.6011030000000  0.4858510000000  0.4214160000000 1.0
C      1  0.4901930000000  0.4394090000000  0.4711760000000 1.0
C      1  0.5064530000000  0.4385840000000  0.5230990000000 1.0
C      1  0.4859350000000  0.5625650000000  0.5307420000000 1.0
C      1  0.5099490000000  0.5660210000000  0.4752170000000 1.0
C      1  0.4705900000000  0.4392240000000  0.4902620000000 1.0
C      1  0.5268300000000  0.4386890000000  0.5050200000000 1.0
C      1  0.5291340000000  0.5676330000000  0.4944340000000 1.0
C      1  0.4665040000000  0.5634770000000  0.5117380000000 1.0
C      1  0.5384260000000  0.5929870000000  0.5024790000000 1.0
C      1  0.4618910000000  0.5886580000000  0.4997630000000 1.0
C      1  0.5416200000000  0.4141330000000  0.5026040000000 1.0
C      1  0.4640580000000  0.4130040000000  0.4994170000000 1.0
C      1  0.4971770000000  0.5875620000000  0.5377280000000 1.0
C      1  0.5048520000000  0.5885540000000  0.4586940000000 1.0
C      1  0.5043000000000  0.4147740000000  0.5390730000000 1.0
C      1  0.4993560000000  0.4132250000000  0.4645420000000 1.0
C      1  0.5182920000000  0.4469770000000  0.4379030000000 1.0
C      1  0.4852700000000  0.4569670000000  0.5582420000000 1.0
C      1  0.5137990000000  0.5471410000000  0.5613270000000 1.0
C      1  0.4880140000000  0.5434960000000  0.4426660000000 1.0
C      1  0.4374030000000  0.4474050000000  0.5184740000000 1.0
C      1  0.5618920000000  0.4547880000000  0.4834410000000 1.0
C      1  0.5637630000000  0.5528760000000  0.5162530000000 1.0
C      1  0.4346540000000  0.5516930000000  0.4840400000000 1.0
C      1  0.4284750000000  0.4877490000000  0.3895080000000 1.0
C      1  0.5724550000000  0.4868890000000  0.6106600000000 1.0
C      1  0.4255390000000  0.5131340000000  0.6132000000000 1.0
C      1  0.5749380000000  0.5121900000000  0.3878160000000 1.0
C      1  0.3900390000000  0.4878480000000  0.4270090000000 1.0
C      1  0.6117790000000  0.4863750000000  0.5728970000000 1.0
C      1  0.6134400000000  0.5114650000000  0.4262870000000 1.0
C      1  0.3869520000000  0.5125630000000  0.5757020000000 1.0
C      1  0.4020710000000  0.4627550000000  0.4656340000000 1.0
C      1  0.5980550000000  0.4615820000000  0.5345420000000 1.0
C      1  0.3976430000000  0.5374560000000  0.5361270000000 1.0
C      1  0.5975240000000  0.5331530000000  0.4659970000000 1.0
C      1  0.4660770000000  0.4642110000000  0.4050800000000 1.0
C      1  0.5336240000000  0.4657140000000  0.5931410000000 1.0
C      1  0.5364240000000  0.5373130000000  0.4016680000000 1.0
C      1  0.4642120000000  0.5363410000000  0.5988630000000 1.0
C      1  0.4346210000000  0.5889190000000  0.5451230000000 1.0
C      1  0.5647830000000  0.5872810000000  0.4528510000000 1.0
C      1  0.4368700000000  0.4108250000000  0.4566120000000 1.0
C      1  0.5649070000000  0.4141610000000  0.5433510000000 1.0
C      1  0.5447980000000  0.5866520000000  0.4344770000000 1.0
C      1  0.4540890000000  0.5881530000000  0.5640550000000 1.0
C      1  0.4560150000000  0.4107620000000  0.4374490000000 1.0
C      1  0.5452170000000  0.4150020000000  0.5623960000000 1.0
C      1  0.4210460000000  0.5836120000000  0.5221350000000 1.0
C      1  0.5772420000000  0.5821040000000  0.4763290000000 1.0
C      1  0.4237950000000  0.4167020000000  0.4796750000000 1.0
C      1  0.5670370000000  0.4173990000000  0.5150600000000 1.0
C      1  0.5166610000000  0.5828780000000  0.4334450000000 1.0
C      1  0.4775430000000  0.5816900000000  0.5763290000000 1.0
C      1  0.4790060000000  0.4165860000000  0.4242330000000 1.0
C      1  0.5170490000000  0.4193160000000  0.5641290000000 1.0
C      1  0.5329510000000  0.6124380000000  0.5200460000000 1.0
C      1  0.4682010000000  0.6087100000000  0.4834030000000 1.0
C      1  0.5343490000000  0.3918990000000  0.4875900000000 1.0
C      1  0.4696190000000  0.3919420000000  0.5148430000000 1.0
C      1  0.5125150000000  0.6094710000000  0.5372340000000 1.0
C      1  0.4877790000000  0.6093980000000  0.4651830000000 1.0
C      1  0.4891660000000  0.3922080000000  0.5331550000000 1.0
C      1  0.5148690000000  0.3920320000000  0.4692280000000 1.0
C      1  0.4875770000000  0.5049150000000  0.4018330000000 1.0
C      1  0.5138250000000  0.5057620000000  0.5974770000000 1.0
C      1  0.4872270000000  0.4960610000000  0.6002110000000 1.0
C      1  0.5147490000000  0.4963840000000  0.4017710000000 1.0
C      1  0.4000350000000  0.5042930000000  0.4864800000000 1.0
C      1  0.6002840000000  0.5015230000000  0.5121580000000 1.0
C      1  0.6016630000000  0.4919910000000  0.4854470000000 1.0
C      1  0.3978070000000  0.4959990000000  0.5139220000000 1.0
C      1  0.4146480000000  0.5671750000000  0.4994350000000 1.0
C      1  0.5832910000000  0.5653720000000  0.4986690000000 1.0
C      1  0.4176660000000  0.4336110000000  0.5021000000000 1.0
C      1  0.5798950000000  0.4364030000000  0.4973220000000 1.0
C      1  0.5003810000000  0.5613170000000  0.4233810000000 1.0
C      1  0.5003790000000  0.5646390000000  0.5813400000000 1.0
C      1  0.5015240000000  0.4333010000000  0.4183020000000 1.0
C      1  0.4999610000000  0.4394140000000  0.5760960000000 1.0
C      1  0.4398590000000  0.4525230000000  0.5457140000000 1.0
C      1  0.5589520000000  0.4658480000000  0.4581020000000 1.0
C      1  0.4430880000000  0.5435870000000  0.4587250000000 1.0
C      1  0.5597510000000  0.5508420000000  0.5437350000000 1.0
C      1  0.5460740000000  0.4491880000000  0.4390380000000 1.0
C      1  0.4600750000000  0.4694070000000  0.5570100000000 1.0
C      1  0.4638260000000  0.5292700000000  0.4459650000000 1.0
C      1  0.5385240000000  0.5348270000000  0.5546540000000 1.0
C      1  0.5223880000000  0.5142320000000  0.4638510000000 1.0
C      1  0.4857690000000  0.5108980000000  0.5440960000000 1.0
C      1  0.4968850000000  0.4908610000000  0.5266870000000 1.0
C      1  0.4973100000000  0.4881780000000  0.4584170000000 1.0
C      1  0.4506420000000  0.5127860000000  0.5110190000000 1.0
C      1  0.5365220000000  0.5150630000000  0.4922040000000 1.0
C      1  0.5417330000000  0.4907730000000  0.5082600000000 1.0
C      1  0.4539100000000  0.4881580000000  0.4949200000000 1.0
C      1  0.4988200000000  0.4634340000000  0.5341340000000 1.0
C      1  0.5025360000000  0.4611340000000  0.4576840000000 1.0
C      1  0.5036820000000  0.5380220000000  0.4670800000000 1.0
C      1  0.4932750000000  0.5384520000000  0.5434750000000 1.0
C      1  0.5401650000000  0.4632710000000  0.4996510000000 1.0
C      1  0.4568620000000  0.4607160000000  0.5022860000000 1.0
C      1  0.4521000000000  0.5404980000000  0.5038320000000 1.0
C      1  0.5419200000000  0.5428790000000  0.5012430000000 1.0
C      1  0.4604320000000  0.5011710000000  0.5584690000000 1.0
C      1  0.5415800000000  0.5085150000000  0.4426370000000 1.0
C      1  0.4674400000000  0.4981430000000  0.4471970000000 1.0
C      1  0.5423900000000  0.5053530000000  0.5560510000000 1.0
C      1  0.5637330000000  0.4940840000000  0.4536000000000 1.0
C      1  0.4389250000000  0.5090360000000  0.5374630000000 1.0
C      1  0.4447500000000  0.4904120000000  0.4674080000000 1.0
C      1  0.5563290000000  0.4934750000000  0.5331990000000 1.0
C      1  0.5833340000000  0.5480710000000  0.4186260000000 1.0
C      1  0.4167420000000  0.5494730000000  0.5828850000000 1.0
C      1  0.5808650000000  0.4505850000000  0.5808060000000 1.0
C      1  0.4190550000000  0.4507290000000  0.4187890000000 1.0
C      1  0.4893660000000  0.5263020000000  0.4898760000000 1.0
C      1  0.4965060000000  0.5032420000000  0.5018110000000 1.0
END
