TITL C-3201375-1262-624 -6.48610222471227e-07 125000 -1031.46638010216 0 0 175 (C7) n - 1
REM
REM in /home/nfs/bkarasulu/CARBON/AIRSS/Generating-Clusters/LCBOP/Higher-Symm/SD-CG/FIRE-CG
REM
REM
REM
REM
REM
REM ./C.cell (b20cbc046b6831c77cfcea5457e17084)
REM AIRSS Version 0.9.1 bugfix July 2018 build 013d7b7c2542+ Fri, 06 Jul 2018 19:26:36 +0100
REM compiler GCC version 9.2.1 20190827 (Red Hat 9.2.1-1)
REM options -cpp -mtune=generic -march=x86-64 -g -O0 -fpre-include=/usr/include/finclude/math-vector-fortran.h
REM seed -1203300603 -730576382 928152427 -47553743 525006447 -1224860373 -743565913 -971318279 -605293222 -919637063 1362421159 -860488925 -778387554 1077426618 260073700 2119765008 -1030869854 -151968187 -281503586 55205188 154285470 -240521584 1648448355 1181372065 1207452603 1654436401 49213274 -944779412 -901294017 1540585743 -1468239342 -505432410 142675442
REM
CELL 1.54180   50.00000   50.00000   50.00000   90.00000   90.00000   90.00000
LATT -1
SFAC C  
C      1  0.5077780000000  0.4974510000000  0.4451860000000 1.0
C      1  0.5077770000000  0.5412660000000  0.4638310000000 1.0
C      1  0.5077780000000  0.5540070000000  0.5097120000000 1.0
C      1  0.5077780000000  0.5260800000000  0.5482800000000 1.0
C      1  0.5077780000000  0.4785140000000  0.5504920000000 1.0
C      1  0.5077780000000  0.4471280000000  0.5146820000000 1.0
C      1  0.5077780000000  0.4555550000000  0.4678170000000 1.0
C      1  0.5276340000000  0.5465820000000  0.6173830000000 1.0
C      1  0.5276350000000  0.4372690000000  0.6096060000000 1.0
C      1  0.5276340000000  0.3751940000000  0.5192930000000 1.0
C      1  0.5276340000000  0.4071010000000  0.4144520000000 1.0
C      1  0.5276330000000  0.5089620000000  0.3740300000000 1.0
C      1  0.5276330000000  0.6040750000000  0.4284660000000 1.0
C      1  0.5276340000000  0.6208170000000  0.5367680000000 1.0
C      1  0.4785820000000  0.3853180000000  0.4686300000000 1.0
C      1  0.4785810000000  0.4530230000000  0.3907790000000 1.0
C      1  0.4785810000000  0.5561020000000  0.3951740000000 1.0
C      1  0.4785810000000  0.6169360000000  0.4785040000000 1.0
C      1  0.4785810000000  0.5897140000000  0.5780220000000 1.0
C      1  0.4785820000000  0.4949360000000  0.6187870000000 1.0
C      1  0.4785820000000  0.4039710000000  0.5701030000000 1.0
C      1  0.5211910000000  0.4959460000000  0.3970170000000 1.0
C      1  0.5211910000000  0.5779880000000  0.4326220000000 1.0
C      1  0.5211910000000  0.6013030000000  0.5189640000000 1.0
C      1  0.5211920000000  0.5483350000000  0.5910260000000 1.0
C      1  0.5211920000000  0.4589690000000  0.5945440000000 1.0
C      1  0.5211920000000  0.4005010000000  0.5268680000000 1.0
C      1  0.5211920000000  0.4169570000000  0.4389600000000 1.0
C      1  0.6167180000000  0.4780810000000  0.5245430000000 1.0
C      1  0.6167180000000  0.4671450000000  0.4981640000000 1.0
C      1  0.6167180000000  0.4809500000000  0.4731680000000 1.0
C      1  0.6167180000000  0.5091000000000  0.4683770000000 1.0
C      1  0.6167180000000  0.5303980000000  0.4873980000000 1.0
C      1  0.6167180000000  0.5288060000000  0.5159080000000 1.0
C      1  0.6167180000000  0.5055220000000  0.5324390000000 1.0
C      1  0.4309120000000  0.5947790000000  0.5575540000000 1.0
C      1  0.4309130000000  0.5140960000000  0.6099860000000 1.0
C      1  0.4309130000000  0.4227980000000  0.5795960000000 1.0
C      1  0.4309130000000  0.3896350000000  0.4892690000000 1.0
C      1  0.4309120000000  0.4395790000000  0.4070230000000 1.0
C      1  0.4309120000000  0.5350210000000  0.3947910000000 1.0
C      1  0.4309120000000  0.6040910000000  0.4617840000000 1.0
C      1  0.5323640000000  0.5199360000000  0.5302180000000 1.0
C      1  0.5323640000000  0.4888040000000  0.5344270000000 1.0
C      1  0.5323640000000  0.4661030000000  0.5127120000000 1.0
C      1  0.5323640000000  0.4689270000000  0.4814240000000 1.0
C      1  0.5323640000000  0.4951500000000  0.4641240000000 1.0
C      1  0.5323640000000  0.5250250000000  0.4738400000000 1.0
C      1  0.5323640000000  0.5360560000000  0.5032540000000 1.0
C      1  0.5522860000000  0.5430740000000  0.4246400000000 1.0
C      1  0.5522860000000  0.5857750000000  0.4866900000000 1.0
C      1  0.5522860000000  0.5638860000000  0.5587630000000 1.0
C      1  0.5522860000000  0.4938890000000  0.5865860000000 1.0
C      1  0.5522860000000  0.4284940000000  0.5492080000000 1.0
C      1  0.5522860000000  0.4169440000000  0.4747750000000 1.0
C      1  0.5522860000000  0.4679370000000  0.4193370000000 1.0
C      1  0.4599870000000  0.5050100000000  0.5607010000000 1.0
C      1  0.4599870000000  0.4556660000000  0.5417640000000 1.0
C      1  0.4599870000000  0.4397060000000  0.4913780000000 1.0
C      1  0.4599870000000  0.4691480000000  0.4474850000000 1.0
C      1  0.4599860000000  0.5218230000000  0.4431370000000 1.0
C      1  0.4599860000000  0.5580640000000  0.4816080000000 1.0
C      1  0.4599870000000  0.5505820000000  0.5339290000000 1.0
C      1  0.4677910000000  0.4409810000000  0.6067030000000 1.0
C      1  0.4677910000000  0.3797780000000  0.5203850000000 1.0
C      1  0.4677910000000  0.4091050000000  0.4187170000000 1.0
C      1  0.4677900000000  0.5068780000000  0.3782560000000 1.0
C      1  0.4677900000000  0.5994710000000  0.4294710000000 1.0
C      1  0.4677910000000  0.6171610000000  0.5337960000000 1.0
C      1  0.4677910000000  0.5466260000000  0.6126710000000 1.0
C      1  0.3987860000000  0.5317390000000  0.4865800000000 1.0
C      1  0.3987860000000  0.5302810000000  0.5164470000000 1.0
C      1  0.3987860000000  0.5060210000000  0.5339300000000 1.0
C      1  0.3987860000000  0.4772270000000  0.5258630000000 1.0
C      1  0.3987860000000  0.4655810000000  0.4983210000000 1.0
C      1  0.3987860000000  0.4798530000000  0.4720440000000 1.0
C      1  0.3987860000000  0.5092960000000  0.4668180000000 1.0
C      1  0.5068840000000  0.5052440000000  0.4193730000000 1.0
C      1  0.5068840000000  0.5663060000000  0.4538300000000 1.0
C      1  0.5068840000000  0.5774390000000  0.5230540000000 1.0
C      1  0.5068850000000  0.5302580000000  0.5749180000000 1.0
C      1  0.5068850000000  0.4602930000000  0.5703670000000 1.0
C      1  0.5068850000000  0.4202270000000  0.5128290000000 1.0
C      1  0.5068840000000  0.4402330000000  0.4456300000000 1.0
C      1  0.5997330000000  0.4416450000000  0.5603030000000 1.0
C      1  0.5997330000000  0.4164690000000  0.4919740000000 1.0
C      1  0.5997320000000  0.4541940000000  0.4296890000000 1.0
C      1  0.5997320000000  0.5264120000000  0.4203480000000 1.0
C      1  0.5997320000000  0.5787420000000  0.4709870000000 1.0
C      1  0.5997320000000  0.5717770000000  0.5434730000000 1.0
C      1  0.5997330000000  0.5107640000000  0.5832220000000 1.0
C      1  0.4566810000000  0.5497710000000  0.5612050000000 1.0
C      1  0.4566810000000  0.4831800000000  0.5770730000000 1.0
C      1  0.4566810000000  0.4292540000000  0.5349040000000 1.0
C      1  0.4566810000000  0.4286020000000  0.4664510000000 1.0
C      1  0.4566810000000  0.4817140000000  0.4232620000000 1.0
C      1  0.4566810000000  0.5485950000000  0.4378580000000 1.0
C      1  0.4566810000000  0.5788830000000  0.4992480000000 1.0
C      1  0.5764210000000  0.4538510000000  0.4163510000000 1.0
C      1  0.5764210000000  0.5366260000000  0.4117650000000 1.0
C      1  0.5764210000000  0.5918210000000  0.4736210000000 1.0
C      1  0.5764210000000  0.5778730000000  0.5553410000000 1.0
C      1  0.5764220000000  0.5052850000000  0.5953880000000 1.0
C      1  0.5764220000000  0.4287180000000  0.5636050000000 1.0
C      1  0.5764220000000  0.4058280000000  0.4839260000000 1.0
C      1  0.5293040000000  0.5708960000000  0.5752330000000 1.0
C      1  0.5293040000000  0.4853830000000  0.6023360000000 1.0
C      1  0.5293040000000  0.4108770000000  0.5523770000000 1.0
C      1  0.5293040000000  0.4034830000000  0.4629770000000 1.0
C      1  0.5293030000000  0.4687680000000  0.4014560000000 1.0
C      1  0.5293030000000  0.5575720000000  0.4141410000000 1.0
C      1  0.5293030000000  0.6030230000000  0.4914790000000 1.0
C      1  0.4214170000000  0.4472200000000  0.5666170000000 1.0
C      1  0.4214170000000  0.4150090000000  0.5002700000000 1.0
C      1  0.4214160000000  0.4467980000000  0.4337200000000 1.0
C      1  0.4214160000000  0.5186490000000  0.4170800000000 1.0
C      1  0.4214160000000  0.5764570000000  0.4628810000000 1.0
C      1  0.4214160000000  0.5766910000000  0.5366330000000 1.0
C      1  0.4214170000000  0.5191750000000  0.5828000000000 1.0
C      1  0.4457180000000  0.4256600000000  0.5105350000000 1.0
C      1  0.4457170000000  0.4454130000000  0.4484470000000 1.0
C      1  0.4457170000000  0.5062720000000  0.4251800000000 1.0
C      1  0.4457170000000  0.5624070000000  0.4582540000000 1.0
C      1  0.4457170000000  0.5715490000000  0.5227640000000 1.0
C      1  0.4457180000000  0.5268120000000  0.5701320000000 1.0
C      1  0.4457180000000  0.4618860000000  0.5646900000000 1.0
C      1  0.4702770000000  0.4793310000000  0.3796640000000 1.0
C      1  0.4702760000000  0.5811960000000  0.4088120000000 1.0
C      1  0.4702770000000  0.6219190000000  0.5066270000000 1.0
C      1  0.4702770000000  0.5708340000000  0.5994510000000 1.0
C      1  0.4702780000000  0.4664100000000  0.6173870000000 1.0
C      1  0.4702780000000  0.3872800000000  0.5469280000000 1.0
C      1  0.4702770000000  0.3930300000000  0.4411310000000 1.0
C      1  0.6136100000000  0.5102030000000  0.5603810000000 1.0
C      1  0.6136110000000  0.4591540000000  0.5456230000000 1.0
C      1  0.6136100000000  0.4388630000000  0.4965100000000 1.0
C      1  0.6136100000000  0.4646100000000  0.4500250000000 1.0
C      1  0.6136100000000  0.5170060000000  0.4411710000000 1.0
C      1  0.6136100000000  0.5565970000000  0.4766170000000 1.0
C      1  0.6136100000000  0.5535690000000  0.5296700000000 1.0
C      1  0.5074180000000  0.4510740000000  0.3949550000000 1.0
C      1  0.5074180000000  0.5516220000000  0.3962540000000 1.0
C      1  0.5074180000000  0.6132980000000  0.4756750000000 1.0
C      1  0.5074190000000  0.5896580000000  0.5734140000000 1.0
C      1  0.5074190000000  0.4985040000000  0.6158700000000 1.0
C      1  0.5074190000000  0.4084760000000  0.5710740000000 1.0
C      1  0.5074190000000  0.3873680000000  0.4727580000000 1.0
C      1  0.4020610000000  0.5171470000000  0.4383610000000 1.0
C      1  0.4020610000000  0.5588830000000  0.4749750000000 1.0
C      1  0.4020610000000  0.5562780000000  0.5304340000000 1.0
C      1  0.4020610000000  0.5112950000000  0.5629760000000 1.0
C      1  0.4020610000000  0.4578060000000  0.5480960000000 1.0
C      1  0.4020610000000  0.4360900000000  0.4969990000000 1.0
C      1  0.4020610000000  0.4624990000000  0.4481630000000 1.0
C      1  0.5526140000000  0.5375710000000  0.5462240000000 1.0
C      1  0.5526140000000  0.4872860000000  0.5581950000000 1.0
C      1  0.5526140000000  0.4465740000000  0.5263430000000 1.0
C      1  0.5526140000000  0.4460940000000  0.4746550000000 1.0
C      1  0.5526140000000  0.4862060000000  0.4420520000000 1.0
C      1  0.5526130000000  0.5367050000000  0.4530850000000 1.0
C      1  0.5526140000000  0.5595650000000  0.4994460000000 1.0
C      1  0.4594800000000  0.4200590000000  0.5874250000000 1.0
C      1  0.4594790000000  0.3818060000000  0.4920080000000 1.0
C      1  0.4594790000000  0.4325560000000  0.4026090000000 1.0
C      1  0.4594790000000  0.5340920000000  0.3865480000000 1.0
C      1  0.4594790000000  0.6099570000000  0.4559180000000 1.0
C      1  0.4594790000000  0.6030210000000  0.5584830000000 1.0
C      1  0.4594790000000  0.5185090000000  0.6170090000000 1.0
C      1  0.4643550000000  0.4678290000000  0.4953540000000 1.0
C      1  0.4643550000000  0.4835740000000  0.4719520000000 1.0
C      1  0.4643550000000  0.5116880000000  0.4696700000000 1.0
C      1  0.4643550000000  0.5310000000000  0.4902280000000 1.0
C      1  0.4643550000000  0.5269690000000  0.5181440000000 1.0
C      1  0.4643550000000  0.5026290000000  0.5323980000000 1.0
C      1  0.4643550000000  0.4763100000000  0.5222550000000 1.0
END
