TITL C-3201376-6384-1677 -488.714689075763 125000 -903.312377276163 0 0 148 (C1) n - 1
REM
REM in /home/nfs/bkarasulu/CARBON/AIRSS/Generating-Clusters/LCBOP/Higher-Symm/SD-CG/FIRE-CG
REM
REM
REM
REM
REM
REM ./C.cell (b20cbc046b6831c77cfcea5457e17084)
REM AIRSS Version 0.9.1 bugfix July 2018 build 013d7b7c2542+ Fri, 06 Jul 2018 19:26:36 +0100
REM compiler GCC version 9.2.1 20190827 (Red Hat 9.2.1-1)
REM options -cpp -mtune=generic -march=x86-64 -g -O0 -fpre-include=/usr/include/finclude/math-vector-fortran.h
REM seed -711586986 718727045 -1533716958 -1075180374 1328956401 106757184 1913295805 -481009955 -730295093 -283140115 -1343331572 1552899923 -950691396 972448526 -788292056 -620657328 -1079004900 166949651 1782863034 -1726193860 420786162 -398302798 283616741 2062420886 -1649389741 1946490906 295595333 -1942947262 -2101673817 1712884136 -1588270321 -1718643374 -567708046
REM
CELL 1.54180   50.00000   50.00000   50.00000   90.00000   90.00000   90.00000
LATT -1
SFAC C  
C      1  0.4802980000000  0.4966080000000  0.5652400000000 1.0
C      1  0.4691520000000  0.5939320000000  0.5719970000000 1.0
C      1  0.5772860000000  0.5555780000000  0.5828930000000 1.0
C      1  0.4263440000000  0.4139170000000  0.4856970000000 1.0
C      1  0.5569970000000  0.4838730000000  0.3990250000000 1.0
C      1  0.5705140000000  0.4844370000000  0.5061830000000 1.0
C      1  0.4501450000000  0.5435380000000  0.4101020000000 1.0
C      1  0.6105830000000  0.4624950000000  0.5052140000000 1.0
C      1  0.4164060000000  0.5103660000000  0.4170030000000 1.0
C      1  0.5654360000000  0.4897350000000  0.6753040000000 1.0
C      1  0.5754630000000  0.4395070000000  0.5417150000000 1.0
C      1  0.4083080000000  0.4808780000000  0.5308400000000 1.0
C      1  0.5353180000000  0.5299350000000  0.5562110000000 1.0
C      1  0.3886150000000  0.4817080000000  0.4451840000000 1.0
C      1  0.4800990000000  0.5149340000000  0.5866260000000 1.0
C      1  0.5216470000000  0.6245320000000  0.5256980000000 1.0
C      1  0.4863990000000  0.5414820000000  0.4663990000000 1.0
C      1  0.4151340000000  0.5500760000000  0.4573860000000 1.0
C      1  0.6280980000000  0.4448020000000  0.4918690000000 1.0
C      1  0.5543920000000  0.4799450000000  0.5688740000000 1.0
C      1  0.5528820000000  0.6238550000000  0.4907090000000 1.0
C      1  0.5311260000000  0.4876240000000  0.3928820000000 1.0
C      1  0.4862870000000  0.5815330000000  0.5002180000000 1.0
C      1  0.6172610000000  0.4256590000000  0.4760970000000 1.0
C      1  0.4984480000000  0.5183450000000  0.5213250000000 1.0
C      1  0.5739500000000  0.6050470000000  0.4888450000000 1.0
C      1  0.4326140000000  0.5058960000000  0.5906180000000 1.0
C      1  0.4495630000000  0.5500400000000  0.5774630000000 1.0
C      1  0.4628440000000  0.4317220000000  0.4184370000000 1.0
C      1  0.5179430000000  0.5630160000000  0.3800210000000 1.0
C      1  0.4923270000000  0.5533570000000  0.5550880000000 1.0
C      1  0.4703380000000  0.5134120000000  0.5222440000000 1.0
C      1  0.5571770000000  0.4214680000000  0.4350170000000 1.0
C      1  0.5980070000000  0.4520870000000  0.5294290000000 1.0
C      1  0.5699110000000  0.4307140000000  0.4894370000000 1.0
C      1  0.5371770000000  0.4108750000000  0.5444560000000 1.0
C      1  0.5561980000000  0.5446270000000  0.5971450000000 1.0
C      1  0.4575400000000  0.5160650000000  0.4971130000000 1.0
C      1  0.4648070000000  0.4931560000000  0.5405060000000 1.0
C      1  0.5524150000000  0.4629130000000  0.4964480000000 1.0
C      1  0.5065670000000  0.4663620000000  0.5396030000000 1.0
C      1  0.4434430000000  0.4270120000000  0.4401730000000 1.0
C      1  0.4527880000000  0.4909800000000  0.4841540000000 1.0
C      1  0.4954440000000  0.4736220000000  0.5666650000000 1.0
C      1  0.4040540000000  0.4591540000000  0.4395200000000 1.0
C      1  0.5129660000000  0.6164950000000  0.5723110000000 1.0
C      1  0.5158130000000  0.3851710000000  0.4849170000000 1.0
C      1  0.4211670000000  0.5759620000000  0.4696210000000 1.0
C      1  0.4337040000000  0.5795270000000  0.5422590000000 1.0
C      1  0.4473040000000  0.6010310000000  0.5553120000000 1.0
C      1  0.4724510000000  0.5870630000000  0.4557540000000 1.0
C      1  0.4402050000000  0.5176930000000  0.4036670000000 1.0
C      1  0.5364820000000  0.4307020000000  0.5670730000000 1.0
C      1  0.5751550000000  0.5925600000000  0.4631990000000 1.0
C      1  0.4403870000000  0.4447120000000  0.5555080000000 1.0
C      1  0.4056120000000  0.5240990000000  0.4642880000000 1.0
C      1  0.4283600000000  0.5578980000000  0.5602160000000 1.0
C      1  0.5936120000000  0.4800710000000  0.4886370000000 1.0
C      1  0.4143200000000  0.5068580000000  0.5168590000000 1.0
C      1  0.5246200000000  0.6081700000000  0.5482010000000 1.0
C      1  0.5610420000000  0.4086730000000  0.5041650000000 1.0
C      1  0.4309690000000  0.4534420000000  0.4422700000000 1.0
C      1  0.5568410000000  0.5728960000000  0.4545600000000 1.0
C      1  0.4194250000000  0.5824880000000  0.4962130000000 1.0
C      1  0.5676010000000  0.4921110000000  0.7011750000000 1.0
C      1  0.4662050000000  0.4515370000000  0.5722350000000 1.0
C      1  0.4674870000000  0.4846320000000  0.4595550000000 1.0
C      1  0.4893180000000  0.5641770000000  0.4485750000000 1.0
C      1  0.3708280000000  0.4805740000000  0.4669720000000 1.0
C      1  0.3803350000000  0.4888200000000  0.4919980000000 1.0
C      1  0.5095550000000  0.5667700000000  0.4284590000000 1.0
C      1  0.4534360000000  0.5251520000000  0.5900660000000 1.0
C      1  0.5105080000000  0.5305900000000  0.4780830000000 1.0
C      1  0.5416680000000  0.3889380000000  0.4946090000000 1.0
C      1  0.4858190000000  0.3956350000000  0.5176230000000 1.0
C      1  0.5886200000000  0.5788140000000  0.5351240000000 1.0
C      1  0.4786230000000  0.4147890000000  0.4029520000000 1.0
C      1  0.4932860000000  0.4262150000000  0.5493720000000 1.0
C      1  0.5377980000000  0.4418130000000  0.4265380000000 1.0
C      1  0.4729730000000  0.4188350000000  0.4773660000000 1.0
C      1  0.5345860000000  0.5634600000000  0.3599720000000 1.0
C      1  0.5632320000000  0.4873450000000  0.6489980000000 1.0
C      1  0.4679370000000  0.4607470000000  0.4160510000000 1.0
C      1  0.5609130000000  0.4853170000000  0.6226810000000 1.0
C      1  0.5035000000000  0.6215320000000  0.4807070000000 1.0
C      1  0.5515110000000  0.5543690000000  0.4751140000000 1.0
C      1  0.4847000000000  0.4484540000000  0.5330620000000 1.0
C      1  0.5801360000000  0.4766300000000  0.4614630000000 1.0
C      1  0.5508990000000  0.5034110000000  0.5512080000000 1.0
C      1  0.5084980000000  0.5331920000000  0.5429400000000 1.0
C      1  0.5363120000000  0.5740490000000  0.4349760000000 1.0
C      1  0.5644300000000  0.5017320000000  0.5266270000000 1.0
C      1  0.4748070000000  0.4473510000000  0.4838570000000 1.0
C      1  0.4002440000000  0.5113100000000  0.4909330000000 1.0
C      1  0.5899220000000  0.4264680000000  0.4692720000000 1.0
C      1  0.5315520000000  0.4537350000000  0.4531640000000 1.0
C      1  0.5095910000000  0.4107740000000  0.5289900000000 1.0
C      1  0.4576840000000  0.4995350000000  0.3910950000000 1.0
C      1  0.5234310000000  0.4349310000000  0.4037760000000 1.0
C      1  0.4733580000000  0.5655750000000  0.5719570000000 1.0
C      1  0.4233410000000  0.4207560000000  0.5119580000000 1.0
C      1  0.3853070000000  0.4722920000000  0.5152340000000 1.0
C      1  0.4903000000000  0.4691520000000  0.4712130000000 1.0
C      1  0.5507630000000  0.4709370000000  0.4665820000000 1.0
C      1  0.5008030000000  0.5611580000000  0.4018750000000 1.0
C      1  0.4640740000000  0.5412180000000  0.4854970000000 1.0
C      1  0.4739810000000  0.5531440000000  0.3988640000000 1.0
C      1  0.5257840000000  0.6263020000000  0.4979640000000 1.0
C      1  0.4380950000000  0.5562690000000  0.4313150000000 1.0
C      1  0.4889810000000  0.3968390000000  0.4889520000000 1.0
C      1  0.5564710000000  0.4518220000000  0.5612390000000 1.0
C      1  0.4469050000000  0.4142450000000  0.4656130000000 1.0
C      1  0.4611600000000  0.4010540000000  0.5320150000000 1.0
C      1  0.4388120000000  0.5749740000000  0.5149560000000 1.0
C      1  0.5410520000000  0.4086500000000  0.4558370000000 1.0
C      1  0.5332980000000  0.5815360000000  0.5455020000000 1.0
C      1  0.5858400000000  0.4617350000000  0.4371410000000 1.0
C      1  0.5045070000000  0.4844680000000  0.3919330000000 1.0
C      1  0.5482380000000  0.5576610000000  0.5482320000000 1.0
C      1  0.4841660000000  0.6008510000000  0.4785250000000 1.0
C      1  0.4018880000000  0.5066910000000  0.4409870000000 1.0
C      1  0.5252560000000  0.4290920000000  0.4712150000000 1.0
C      1  0.5758180000000  0.5629170000000  0.5549910000000 1.0
C      1  0.5089560000000  0.4814340000000  0.4899870000000 1.0
C      1  0.5623350000000  0.4146430000000  0.5316180000000 1.0
C      1  0.5087110000000  0.4298930000000  0.5734150000000 1.0
C      1  0.5092250000000  0.5091540000000  0.4963810000000 1.0
C      1  0.4884690000000  0.6113500000000  0.5818250000000 1.0
C      1  0.4212910000000  0.4684560000000  0.5539250000000 1.0
C      1  0.5271460000000  0.5514800000000  0.4878360000000 1.0
C      1  0.5578290000000  0.4848630000000  0.5963740000000 1.0
C      1  0.4532390000000  0.4721820000000  0.4386250000000 1.0
C      1  0.5056870000000  0.5246840000000  0.5959820000000 1.0
C      1  0.5038750000000  0.4189920000000  0.3949780000000 1.0
C      1  0.4636550000000  0.4669950000000  0.5265390000000 1.0
C      1  0.5822050000000  0.4331120000000  0.4425550000000 1.0
C      1  0.4216390000000  0.4852660000000  0.5772720000000 1.0
C      1  0.4401690000000  0.4213220000000  0.5354500000000 1.0
C      1  0.5318790000000  0.5327580000000  0.5868240000000 1.0
C      1  0.5125270000000  0.5706640000000  0.5026820000000 1.0
C      1  0.5857640000000  0.5932890000000  0.5122310000000 1.0
C      1  0.5246120000000  0.4617160000000  0.5084920000000 1.0
C      1  0.4556850000000  0.4650030000000  0.4994110000000 1.0
C      1  0.4772240000000  0.4799910000000  0.3974590000000 1.0
C      1  0.4445450000000  0.5824360000000  0.4506000000000 1.0
C      1  0.4630150000000  0.5648240000000  0.5031270000000 1.0
C      1  0.5777840000000  0.4738770000000  0.4128910000000 1.0
C      1  0.5182150000000  0.4322030000000  0.5002260000000 1.0
END
