TITL C-3201378-2706-2165 -5.46109726317588e-07 125000 -596.227710279535 0 0 106 (T23) n - 1
REM
REM in /home/nfs/bkarasulu/CARBON/AIRSS/Generating-Clusters/LCBOP/Higher-Symm/SD-CG/FIRE-CG
REM
REM
REM
REM
REM
REM ./C.cell (b20cbc046b6831c77cfcea5457e17084)
REM AIRSS Version 0.9.1 bugfix July 2018 build 013d7b7c2542+ Fri, 06 Jul 2018 19:26:36 +0100
REM compiler GCC version 9.2.1 20190827 (Red Hat 9.2.1-1)
REM options -cpp -mtune=generic -march=x86-64 -g -O0 -fpre-include=/usr/include/finclude/math-vector-fortran.h
REM seed -1818382491 -1396075615 725844953 2102874443 -209092451 -687497311 1427600958 1804717881 -309396871 301918322 617512308 2033162111 451747901 372176970 -1276614857 1580934990 110159670 -1150237270 909294265 1164427199 120684865 899056984 -574832037 1838406194 -1149025661 -1669320151 -1514169336 -1235108257 695370321 1234597212 112578681 -789718069 101044237
REM
CELL 1.54180   50.00000   50.00000   50.00000   90.00000   90.00000   90.00000
LATT -1
SFAC C  
C      1  0.4365820000000  0.5561890000000  0.4727310000000 1.0
C      1  0.4729940000000  0.4371400000000  0.5553660000000 1.0
C      1  0.5556300000000  0.4735530000000  0.4363180000000 1.0
C      1  0.5651290000000  0.5561880000000  0.5284530000000 1.0
C      1  0.4365810000000  0.4466400000000  0.5284520000000 1.0
C      1  0.5651290000000  0.4466390000000  0.4727310000000 1.0
C      1  0.5287160000000  0.4371410000000  0.4458170000000 1.0
C      1  0.4729940000000  0.5656880000000  0.4458170000000 1.0
C      1  0.5287160000000  0.5656880000000  0.5553660000000 1.0
C      1  0.4460800000000  0.4735530000000  0.5648650000000 1.0
C      1  0.5556290000000  0.5292750000000  0.5648650000000 1.0
C      1  0.4460810000000  0.5292750000000  0.4363180000000 1.0
C      1  0.5468810000000  0.5336120000000  0.4288120000000 1.0
C      1  0.4290750000000  0.5474400000000  0.5327890000000 1.0
C      1  0.5330530000000  0.4296340000000  0.5466170000000 1.0
C      1  0.4548290000000  0.5336120000000  0.5723710000000 1.0
C      1  0.5468800000000  0.4692160000000  0.5723720000000 1.0
C      1  0.4548300000000  0.4692160000000  0.4288110000000 1.0
C      1  0.5726350000000  0.5474390000000  0.4683940000000 1.0
C      1  0.4290750000000  0.4553890000000  0.4683930000000 1.0
C      1  0.5726350000000  0.4553880000000  0.5327900000000 1.0
C      1  0.4686570000000  0.4296340000000  0.4545660000000 1.0
C      1  0.5330530000000  0.5731940000000  0.4545660000000 1.0
C      1  0.4686570000000  0.5731940000000  0.5466170000000 1.0
C      1  0.4775940000000  0.5116630000000  0.5666020000000 1.0
C      1  0.5668660000000  0.4781530000000  0.5108410000000 1.0
C      1  0.5111040000000  0.5674250000000  0.4773310000000 1.0
C      1  0.5241160000000  0.5116630000000  0.4345810000000 1.0
C      1  0.4775940000000  0.4911650000000  0.4345810000000 1.0
C      1  0.5241150000000  0.4911650000000  0.5666020000000 1.0
C      1  0.4348440000000  0.4781540000000  0.4903420000000 1.0
C      1  0.5668660000000  0.5246750000000  0.4903430000000 1.0
C      1  0.4348440000000  0.5246750000000  0.5108400000000 1.0
C      1  0.4906060000000  0.5674250000000  0.5238520000000 1.0
C      1  0.5111040000000  0.4354030000000  0.5238520000000 1.0
C      1  0.4906060000000  0.4354030000000  0.4773310000000 1.0
C      1  0.4086320000000  0.4924620000000  0.4491130000000 1.0
C      1  0.4493760000000  0.4091910000000  0.4916390000000 1.0
C      1  0.4919030000000  0.4499360000000  0.4083680000000 1.0
C      1  0.5930780000000  0.4924610000000  0.5520700000000 1.0
C      1  0.4086320000000  0.5103670000000  0.5520700000000 1.0
C      1  0.5930780000000  0.5103660000000  0.4491140000000 1.0
C      1  0.5523330000000  0.4091910000000  0.5095440000000 1.0
C      1  0.4493770000000  0.5936380000000  0.5095440000000 1.0
C      1  0.5523340000000  0.5936370000000  0.4916400000000 1.0
C      1  0.5098070000000  0.4499360000000  0.5928150000000 1.0
C      1  0.4919030000000  0.5528920000000  0.5928150000000 1.0
C      1  0.5098080000000  0.5528930000000  0.4083680000000 1.0
C      1  0.4604880000000  0.5093100000000  0.4500540000000 1.0
C      1  0.4503170000000  0.4610470000000  0.5084870000000 1.0
C      1  0.5087500000000  0.4508760000000  0.4602250000000 1.0
C      1  0.5412220000000  0.5093090000000  0.5511300000000 1.0
C      1  0.4604880000000  0.4935190000000  0.5511290000000 1.0
C      1  0.5412220000000  0.4935190000000  0.4500540000000 1.0
C      1  0.5513930000000  0.4610470000000  0.4926960000000 1.0
C      1  0.4503170000000  0.5417810000000  0.4926960000000 1.0
C      1  0.5513930000000  0.5417810000000  0.5084870000000 1.0
C      1  0.4929590000000  0.4508760000000  0.5409580000000 1.0
C      1  0.5087510000000  0.5519520000000  0.5409590000000 1.0
C      1  0.4929600000000  0.5519520000000  0.4602250000000 1.0
C      1  0.5478940000000  0.5055940000000  0.4746340000000 1.0
C      1  0.4748970000000  0.5484530000000  0.5047720000000 1.0
C      1  0.5050350000000  0.4754560000000  0.5476300000000 1.0
C      1  0.4538160000000  0.5055940000000  0.5265490000000 1.0
C      1  0.5478940000000  0.4972340000000  0.5265490000000 1.0
C      1  0.4538160000000  0.4972340000000  0.4746340000000 1.0
C      1  0.5268130000000  0.5484530000000  0.4964120000000 1.0
C      1  0.4748970000000  0.4543750000000  0.4964110000000 1.0
C      1  0.5268130000000  0.4543750000000  0.5047720000000 1.0
C      1  0.4966750000000  0.4754560000000  0.4535530000000 1.0
C      1  0.5050350000000  0.5273720000000  0.4535530000000 1.0
C      1  0.4966750000000  0.5273720000000  0.5476300000000 1.0
C      1  0.6013130000000  0.5051470000000  0.5282210000000 1.0
C      1  0.5284850000000  0.6018720000000  0.5043260000000 1.0
C      1  0.5045880000000  0.5290430000000  0.6010490000000 1.0
C      1  0.4003970000000  0.5051480000000  0.4729620000000 1.0
C      1  0.6013130000000  0.4976800000000  0.4729620000000 1.0
C      1  0.4003970000000  0.4976810000000  0.5282210000000 1.0
C      1  0.4732260000000  0.6018720000000  0.4968580000000 1.0
C      1  0.5284840000000  0.4009560000000  0.4968580000000 1.0
C      1  0.4732250000000  0.4009560000000  0.5043250000000 1.0
C      1  0.4971220000000  0.5290440000000  0.4001340000000 1.0
C      1  0.5045890000000  0.4737850000000  0.4001340000000 1.0
C      1  0.4971210000000  0.4737850000000  0.6010490000000 1.0
C      1  0.5732820000000  0.5317140000000  0.4430330000000 1.0
C      1  0.4432970000000  0.5738410000000  0.5308910000000 1.0
C      1  0.5311540000000  0.4438550000000  0.5730180000000 1.0
C      1  0.4284290000000  0.5317140000000  0.5581500000000 1.0
C      1  0.5732810000000  0.4711140000000  0.5581500000000 1.0
C      1  0.4284290000000  0.4711150000000  0.4430330000000 1.0
C      1  0.5584140000000  0.5738400000000  0.4702920000000 1.0
C      1  0.4432960000000  0.4289880000000  0.4702920000000 1.0
C      1  0.5584130000000  0.4289880000000  0.5308910000000 1.0
C      1  0.4705550000000  0.4438560000000  0.4281650000000 1.0
C      1  0.5311550000000  0.5589730000000  0.4281650000000 1.0
C      1  0.4705550000000  0.5589730000000  0.5730180000000 1.0
C      1  0.5008550000000  0.5014140000000  0.5873140000000 1.0
C      1  0.5875770000000  0.5014140000000  0.5005920000000 1.0
C      1  0.5008550000000  0.5881360000000  0.5005920000000 1.0
C      1  0.5008550000000  0.5014140000000  0.4138690000000 1.0
C      1  0.4141330000000  0.5014140000000  0.5005910000000 1.0
C      1  0.5008550000000  0.4146920000000  0.5005910000000 1.0
C      1  0.4468030000000  0.5554660000000  0.4465400000000 1.0
C      1  0.5549070000000  0.4473620000000  0.4465400000000 1.0
C      1  0.4468030000000  0.4473620000000  0.5546430000000 1.0
C      1  0.5549070000000  0.5554660000000  0.5546440000000 1.0
END
