TITL C-3201377-4638-961 0.951779344261325 125000 -144.109445928736 0 0 27 (C1) n - 1
REM
REM in /home/nfs/bkarasulu/CARBON/AIRSS/Generating-Clusters/LCBOP/Higher-Symm/SD-CG/FIRE-CG
REM
REM
REM
REM
REM
REM ./C.cell (b20cbc046b6831c77cfcea5457e17084)
REM AIRSS Version 0.9.1 bugfix July 2018 build 013d7b7c2542+ Fri, 06 Jul 2018 19:26:36 +0100
REM compiler GCC version 9.2.1 20190827 (Red Hat 9.2.1-1)
REM options -cpp -mtune=generic -march=x86-64 -g -O0 -fpre-include=/usr/include/finclude/math-vector-fortran.h
REM seed -99207039 -1828681979 2035240382 -397452353 -1645286709 194203723 1951521919 -1400461711 -2109722185 208496185 449304947 1103308410 1153934794 660596842 961323047 1311064683 -566605110 -472071719 709419637 2051163638 -1480240211 -1120872957 -1135896333 1435465389 1967729931 2038377195 790828218 -854760859 -1949551257 -2098975224 1627899146 802573164 -1892593338
REM
CELL 1.54180   50.00000   50.00000   50.00000   90.00000   90.00000   90.00000
LATT -1
SFAC C  
C      1  0.5242550000000  0.5005500000000  0.4966090000000 1.0
C      1  0.4441560000000  0.5112750000000  0.5330850000000 1.0
C      1  0.4952810000000  0.4653260000000  0.5104510000000 1.0
C      1  0.4928500000000  0.5081780000000  0.5324260000000 1.0
C      1  0.5284920000000  0.4807440000000  0.4182480000000 1.0
C      1  0.4980810000000  0.4933580000000  0.5783700000000 1.0
C      1  0.4704240000000  0.5479350000000  0.5143510000000 1.0
C      1  0.4678290000000  0.5710400000000  0.5297990000000 1.0
C      1  0.5218590000000  0.5064920000000  0.3782240000000 1.0
C      1  0.4747540000000  0.5496680000000  0.4868190000000 1.0
C      1  0.4689520000000  0.5223910000000  0.5266890000000 1.0
C      1  0.5361660000000  0.4615970000000  0.4348710000000 1.0
C      1  0.5051930000000  0.5109670000000  0.5578610000000 1.0
C      1  0.5040910000000  0.5222000000000  0.4200120000000 1.0
C      1  0.5471860000000  0.4283930000000  0.4765350000000 1.0
C      1  0.4898840000000  0.4760710000000  0.5966960000000 1.0
C      1  0.5421960000000  0.4445400000000  0.4542200000000 1.0
C      1  0.4214790000000  0.5002660000000  0.5396880000000 1.0
C      1  0.4920510000000  0.5362260000000  0.4389920000000 1.0
C      1  0.5358590000000  0.4035110000000  0.4780460000000 1.0
C      1  0.4816150000000  0.4589920000000  0.6145720000000 1.0
C      1  0.5181980000000  0.5031930000000  0.4051140000000 1.0
C      1  0.4820510000000  0.5455860000000  0.4616810000000 1.0
C      1  0.5236790000000  0.5306730000000  0.5621310000000 1.0
C      1  0.5632880000000  0.4376830000000  0.4966380000000 1.0
C      1  0.5043230000000  0.4910700000000  0.5128270000000 1.0
C      1  0.4658070000000  0.5920770000000  0.5450460000000 1.0
END
