TITL C-3201376-6384-1028 -14.5540745964406 125000 -832.387389624052 0 0 136 (C1) n - 1
REM
REM in /home/nfs/bkarasulu/CARBON/AIRSS/Generating-Clusters/LCBOP/Higher-Symm/SD-CG/FIRE-CG
REM
REM
REM
REM
REM
REM ./C.cell (b20cbc046b6831c77cfcea5457e17084)
REM AIRSS Version 0.9.1 bugfix July 2018 build 013d7b7c2542+ Fri, 06 Jul 2018 19:26:36 +0100
REM compiler GCC version 9.2.1 20190827 (Red Hat 9.2.1-1)
REM options -cpp -mtune=generic -march=x86-64 -g -O0 -fpre-include=/usr/include/finclude/math-vector-fortran.h
REM seed 469833979 -2060325254 -1099388500 621284895 -951568843 -2021292524 1842478956 644803504 2010574208 -697785154 1719039901 996781817 -1090331026 1648549168 -1504801062 -966880007 -262473480 -12906795 844033970 142237710 -2112586719 -1102490319 -605077240 159890929 7230156 1545670762 -995615777 -934981045 203642449 518584175 1024371346 671518614 432935789
REM
CELL 1.54180   50.00000   50.00000   50.00000   90.00000   90.00000   90.00000
LATT -1
SFAC C  
C      1  0.4480160000000  0.5328620000000  0.4962920000000 1.0
C      1  0.5391360000000  0.5868510000000  0.5268680000000 1.0
C      1  0.4584540000000  0.5148610000000  0.5889600000000 1.0
C      1  0.4278900000000  0.5847820000000  0.4891250000000 1.0
C      1  0.3941910000000  0.4507440000000  0.5106650000000 1.0
C      1  0.5601180000000  0.5794340000000  0.5457270000000 1.0
C      1  0.5771010000000  0.4482050000000  0.4480710000000 1.0
C      1  0.3970240000000  0.5444920000000  0.4695860000000 1.0
C      1  0.4859560000000  0.5087670000000  0.4814600000000 1.0
C      1  0.4686250000000  0.3997450000000  0.5547740000000 1.0
C      1  0.4835780000000  0.4684730000000  0.5843490000000 1.0
C      1  0.5579000000000  0.4431390000000  0.5249650000000 1.0
C      1  0.5071150000000  0.4940740000000  0.5373270000000 1.0
C      1  0.4734710000000  0.3945240000000  0.4548530000000 1.0
C      1  0.5028210000000  0.3641470000000  0.5440070000000 1.0
C      1  0.4561750000000  0.4023590000000  0.5057500000000 1.0
C      1  0.5699690000000  0.3925970000000  0.5291870000000 1.0
C      1  0.6059520000000  0.5264800000000  0.5743970000000 1.0
C      1  0.4804550000000  0.3742030000000  0.5552170000000 1.0
C      1  0.5097530000000  0.5106980000000  0.5899770000000 1.0
C      1  0.4403110000000  0.4587630000000  0.4313300000000 1.0
C      1  0.3948570000000  0.5152480000000  0.4664380000000 1.0
C      1  0.4261800000000  0.4455340000000  0.4523560000000 1.0
C      1  0.4379860000000  0.5282520000000  0.5721740000000 1.0
C      1  0.5828030000000  0.6584240000000  0.3829940000000 1.0
C      1  0.5527480000000  0.5649170000000  0.5695500000000 1.0
C      1  0.5143100000000  0.5209090000000  0.5387600000000 1.0
C      1  0.5937350000000  0.5169130000000  0.5519950000000 1.0
C      1  0.4891190000000  0.4047570000000  0.4349280000000 1.0
C      1  0.4906030000000  0.6115690000000  0.5259590000000 1.0
C      1  0.5786570000000  0.4851160000000  0.5237710000000 1.0
C      1  0.4635300000000  0.4124280000000  0.4776060000000 1.0
C      1  0.5482640000000  0.4396180000000  0.4478690000000 1.0
C      1  0.5514720000000  0.4901150000000  0.5711800000000 1.0
C      1  0.5720240000000  0.4192960000000  0.5279510000000 1.0
C      1  0.4950080000000  0.4897100000000  0.4569230000000 1.0
C      1  0.5650990000000  0.4654970000000  0.5102840000000 1.0
C      1  0.5432250000000  0.5246410000000  0.4874380000000 1.0
C      1  0.4912770000000  0.5627960000000  0.4945270000000 1.0
C      1  0.4757500000000  0.5865610000000  0.4811950000000 1.0
C      1  0.5401960000000  0.4483610000000  0.4738320000000 1.0
C      1  0.5403940000000  0.5313040000000  0.5368680000000 1.0
C      1  0.5568290000000  0.4485010000000  0.5958240000000 1.0
C      1  0.5371590000000  0.5144710000000  0.5800340000000 1.0
C      1  0.4951350000000  0.5414470000000  0.5409770000000 1.0
C      1  0.5159750000000  0.5882040000000  0.4595380000000 1.0
C      1  0.5867790000000  0.4760220000000  0.4547080000000 1.0
C      1  0.4561290000000  0.4991300000000  0.5436800000000 1.0
C      1  0.4047200000000  0.5163410000000  0.5183380000000 1.0
C      1  0.4830230000000  0.4979450000000  0.5893880000000 1.0
C      1  0.5459890000000  0.5377760000000  0.5647960000000 1.0
C      1  0.4373410000000  0.4398390000000  0.5670620000000 1.0
C      1  0.4625030000000  0.6115010000000  0.5189360000000 1.0
C      1  0.5382600000000  0.5681470000000  0.5052960000000 1.0
C      1  0.5713700000000  0.4916410000000  0.4358310000000 1.0
C      1  0.3991040000000  0.5096700000000  0.5472960000000 1.0
C      1  0.4994000000000  0.4679550000000  0.5007320000000 1.0
C      1  0.5178560000000  0.4250760000000  0.5424120000000 1.0
C      1  0.5198560000000  0.5669890000000  0.4809050000000 1.0
C      1  0.4087840000000  0.5269450000000  0.5694000000000 1.0
C      1  0.5501390000000  0.3743680000000  0.5296060000000 1.0
C      1  0.4458490000000  0.5256260000000  0.5441170000000 1.0
C      1  0.4317120000000  0.5306220000000  0.5193740000000 1.0
C      1  0.3935640000000  0.4700630000000  0.4892870000000 1.0
C      1  0.5223350000000  0.3785150000000  0.5298030000000 1.0
C      1  0.4302260000000  0.4866890000000  0.4278020000000 1.0
C      1  0.5987030000000  0.5530150000000  0.5174430000000 1.0
C      1  0.4363560000000  0.4795030000000  0.5420200000000 1.0
C      1  0.4506040000000  0.4767490000000  0.4965320000000 1.0
C      1  0.4433710000000  0.5355060000000  0.4503180000000 1.0
C      1  0.5259800000000  0.4416570000000  0.4273550000000 1.0
C      1  0.5641510000000  0.6045830000000  0.4398210000000 1.0
C      1  0.4875120000000  0.5886850000000  0.4539510000000 1.0
C      1  0.4771710000000  0.4880820000000  0.5026200000000 1.0
C      1  0.5487440000000  0.4713950000000  0.4880210000000 1.0
C      1  0.4065550000000  0.5001110000000  0.4419950000000 1.0
C      1  0.5251340000000  0.4979490000000  0.4525940000000 1.0
C      1  0.4794350000000  0.4214840000000  0.5704540000000 1.0
C      1  0.4767010000000  0.5382910000000  0.4846790000000 1.0
C      1  0.3946560000000  0.5001590000000  0.4929100000000 1.0
C      1  0.5099140000000  0.4809820000000  0.3998380000000 1.0
C      1  0.4762460000000  0.5679410000000  0.4375650000000 1.0
C      1  0.5523140000000  0.5764560000000  0.5942270000000 1.0
C      1  0.5393530000000  0.4654880000000  0.5816820000000 1.0
C      1  0.6000970000000  0.5251920000000  0.5241430000000 1.0
C      1  0.4966660000000  0.4310060000000  0.4264770000000 1.0
C      1  0.5143860000000  0.4049790000000  0.5226090000000 1.0
C      1  0.6046810000000  0.5618400000000  0.4915110000000 1.0
C      1  0.5743870000000  0.4945380000000  0.5513880000000 1.0
C      1  0.4894820000000  0.5611720000000  0.5238730000000 1.0
C      1  0.4103050000000  0.4837280000000  0.5526450000000 1.0
C      1  0.5114290000000  0.4562450000000  0.5796970000000 1.0
C      1  0.5145130000000  0.5093650000000  0.3963940000000 1.0
C      1  0.4949700000000  0.4573470000000  0.4752240000000 1.0
C      1  0.5732940000000  0.4315030000000  0.6067330000000 1.0
C      1  0.5403210000000  0.4972690000000  0.4793650000000 1.0
C      1  0.5161270000000  0.4697690000000  0.5241750000000 1.0
C      1  0.4636450000000  0.4455800000000  0.5776270000000 1.0
C      1  0.5706280000000  0.6232560000000  0.4201150000000 1.0
C      1  0.4502770000000  0.4067750000000  0.5335540000000 1.0
C      1  0.5853190000000  0.5717010000000  0.5344710000000 1.0
C      1  0.5064480000000  0.4296700000000  0.5675380000000 1.0
C      1  0.4305580000000  0.4262440000000  0.5418450000000 1.0
C      1  0.4774990000000  0.4934300000000  0.4314570000000 1.0
C      1  0.4523240000000  0.5041530000000  0.4215230000000 1.0
C      1  0.4679380000000  0.5485040000000  0.4577080000000 1.0
C      1  0.5951180000000  0.5018520000000  0.5061500000000 1.0
C      1  0.4795410000000  0.4948760000000  0.5307920000000 1.0
C      1  0.5971580000000  0.4905490000000  0.4786570000000 1.0
C      1  0.5843020000000  0.5895020000000  0.4521250000000 1.0
C      1  0.4375810000000  0.4642790000000  0.5180640000000 1.0
C      1  0.5767650000000  0.6409820000000  0.4014050000000 1.0
C      1  0.5311100000000  0.4473650000000  0.5325640000000 1.0
C      1  0.5984150000000  0.5748270000000  0.4691750000000 1.0
C      1  0.4445560000000  0.6258570000000  0.5338330000000 1.0
C      1  0.5438160000000  0.4861690000000  0.4318090000000 1.0
C      1  0.4094440000000  0.5672250000000  0.4788970000000 1.0
C      1  0.4536930000000  0.5960950000000  0.4960110000000 1.0
C      1  0.5465800000000  0.5404840000000  0.5110150000000 1.0
C      1  0.5192840000000  0.5289370000000  0.4150270000000 1.0
C      1  0.5374730000000  0.6007880000000  0.4474140000000 1.0
C      1  0.4737710000000  0.4497430000000  0.4203430000000 1.0
C      1  0.4382190000000  0.4911450000000  0.4760580000000 1.0
C      1  0.4374980000000  0.5189780000000  0.4727520000000 1.0
C      1  0.5306260000000  0.4677550000000  0.4143590000000 1.0
C      1  0.4478520000000  0.5319220000000  0.4217760000000 1.0
C      1  0.5237610000000  0.5275160000000  0.4431480000000 1.0
C      1  0.4889610000000  0.4296150000000  0.4805870000000 1.0
C      1  0.4033220000000  0.4578210000000  0.4647780000000 1.0
C      1  0.5303050000000  0.5419000000000  0.4671170000000 1.0
C      1  0.4848770000000  0.4743740000000  0.4109950000000 1.0
C      1  0.4638100000000  0.5556220000000  0.4142050000000 1.0
C      1  0.5071910000000  0.4141870000000  0.4969850000000 1.0
C      1  0.5165800000000  0.6042850000000  0.5296610000000 1.0
C      1  0.4397540000000  0.4257390000000  0.4662430000000 1.0
C      1  0.4191610000000  0.4426610000000  0.5213280000000 1.0
END
