TITL C-3201374-830-206 -7.26430192754201e-07 125000 -221.610842044954 0 0 37 (C1) n - 1
REM
REM in /home/nfs/bkarasulu/CARBON/AIRSS/Generating-Clusters/LCBOP/Higher-Symm/SD-CG/FIRE-CG
REM
REM
REM
REM
REM
REM ./C.cell (b20cbc046b6831c77cfcea5457e17084)
REM AIRSS Version 0.9.1 bugfix July 2018 build 013d7b7c2542+ Fri, 06 Jul 2018 19:26:36 +0100
REM compiler GCC version 9.2.1 20190827 (Red Hat 9.2.1-1)
REM options -cpp -mtune=generic -march=x86-64 -g -O0 -fpre-include=/usr/include/finclude/math-vector-fortran.h
REM seed 184088736 -783978710 -1013530144 2018416365 -2106914010 2058995951 -946656032 1686086865 2008922579 185245885 838194119 -1909969449 -1701203137 2041150029 908171923 -2040629499 1362508937 -795197502 -213147264 -1524441068 1301986092 2075293471 -1289896914 -484151560 -199677105 2035270013 1424074445 424594634 -1901253710 1197889302 -1559605386 -765278671 1177092253
REM
CELL 1.54180   50.00000   50.00000   50.00000   90.00000   90.00000   90.00000
LATT -1
SFAC C  
C      1  0.4502280000000  0.5002320000000  0.5392550000000 1.0
C      1  0.4572390000000  0.4627980000000  0.4966790000000 1.0
C      1  0.4555580000000  0.5054640000000  0.4602540000000 1.0
C      1  0.4543040000000  0.5436560000000  0.5026760000000 1.0
C      1  0.5237800000000  0.4471470000000  0.4805240000000 1.0
C      1  0.5186960000000  0.5145200000000  0.4502800000000 1.0
C      1  0.5190380000000  0.5539710000000  0.5132030000000 1.0
C      1  0.5153320000000  0.4939310000000  0.5579310000000 1.0
C      1  0.5530160000000  0.4469660000000  0.4784570000000 1.0
C      1  0.5342830000000  0.4934770000000  0.4623660000000 1.0
C      1  0.5340840000000  0.5403200000000  0.4912800000000 1.0
C      1  0.5300330000000  0.5156730000000  0.5440010000000 1.0
C      1  0.4736180000000  0.4386500000000  0.4937530000000 1.0
C      1  0.4699370000000  0.5084060000000  0.4354860000000 1.0
C      1  0.4701040000000  0.5677450000000  0.5049030000000 1.0
C      1  0.4636050000000  0.4993820000000  0.5655420000000 1.0
C      1  0.5190080000000  0.4769710000000  0.4841570000000 1.0
C      1  0.5131150000000  0.5314100000000  0.4732570000000 1.0
C      1  0.5109320000000  0.5332360000000  0.5316500000000 1.0
C      1  0.5118200000000  0.4753130000000  0.5352550000000 1.0
C      1  0.4969770000000  0.5113730000000  0.4321480000000 1.0
C      1  0.4971680000000  0.5719060000000  0.5075600000000 1.0
C      1  0.4904920000000  0.4981950000000  0.5722390000000 1.0
C      1  0.4995130000000  0.4329090000000  0.4861510000000 1.0
C      1  0.4617290000000  0.5273480000000  0.4792230000000 1.0
C      1  0.4587040000000  0.5246300000000  0.5248880000000 1.0
C      1  0.4588300000000  0.4767290000000  0.5228500000000 1.0
C      1  0.4635030000000  0.4811340000000  0.4751150000000 1.0
C      1  0.5600840000000  0.4976930000000  0.4760660000000 1.0
C      1  0.5537960000000  0.5183670000000  0.4972440000000 1.0
C      1  0.5462320000000  0.5043670000000  0.5213670000000 1.0
C      1  0.5693960000000  0.4698170000000  0.4789720000000 1.0
C      1  0.4885480000000  0.5175600000000  0.5191890000000 1.0
C      1  0.4866540000000  0.4801960000000  0.5259540000000 1.0
C      1  0.4916420000000  0.4881600000000  0.4812840000000 1.0
C      1  0.4904320000000  0.5182040000000  0.4883470000000 1.0
C      1  0.5306240000000  0.4804050000000  0.5142170000000 1.0
END
