TITL C-3201373-1215-1321 -2.7592495703022e-07 125000 -262.340883585752 0 0 47 (S4) n - 1
REM
REM in /home/nfs/bkarasulu/CARBON/AIRSS/Generating-Clusters/LCBOP/Higher-Symm/SD-CG/FIRE-CG
REM
REM
REM
REM
REM
REM ./C.cell (b20cbc046b6831c77cfcea5457e17084)
REM AIRSS Version 0.9.1 bugfix July 2018 build 013d7b7c2542+ Fri, 06 Jul 2018 19:26:36 +0100
REM compiler GCC version 9.2.1 20190827 (Red Hat 9.2.1-1)
REM options -cpp -mtune=generic -march=x86-64 -g -O0 -fpre-include=/usr/include/finclude/math-vector-fortran.h
REM seed 1000753395 -1339337498 887890926 43587093 543082232 1668483056 -1646464730 -1383431696 -1281449686 1319515690 -311462428 100960159 -1680216410 -997297704 -662809245 1100658281 -1495574300 -1383731170 -653614778 -1640134676 1763889408 -1945023018 704618282 -189735761 -844436633 1753859001 222717051 -429786469 -839919209 961692100 -224144111 1372779196 1504015375
REM
CELL 1.54180   50.00000   50.00000   50.00000   90.00000   90.00000   90.00000
LATT -1
SFAC C  
C      1  0.5434190000000  0.4914050000000  0.4865480000000 1.0
C      1  0.5120750000000  0.5102310000000  0.5443750000000 1.0
C      1  0.4542470000000  0.4914060000000  0.5130310000000 1.0
C      1  0.4855920000000  0.5102300000000  0.4552030000000 1.0
C      1  0.5032630000000  0.4981410000000  0.5687330000000 1.0
C      1  0.4298890000000  0.5034980000000  0.5042200000000 1.0
C      1  0.4944030000000  0.4981380000000  0.4308450000000 1.0
C      1  0.5677770000000  0.5034960000000  0.4953590000000 1.0
C      1  0.4874060000000  0.4899020000000  0.4754170000000 1.0
C      1  0.5232060000000  0.5117330000000  0.4883620000000 1.0
C      1  0.5102600000000  0.4899030000000  0.5241620000000 1.0
C      1  0.4744610000000  0.5117340000000  0.5112160000000 1.0
C      1  0.4897100000000  0.5596740000000  0.4540280000000 1.0
C      1  0.5445930000000  0.4419610000000  0.4906670000000 1.0
C      1  0.5079570000000  0.5596750000000  0.5455490000000 1.0
C      1  0.4530720000000  0.4419630000000  0.5089140000000 1.0
C      1  0.4740200000000  0.4440420000000  0.4897350000000 1.0
C      1  0.5088890000000  0.5575940000000  0.4749750000000 1.0
C      1  0.5236460000000  0.4440420000000  0.5098450000000 1.0
C      1  0.4887790000000  0.5575950000000  0.5246010000000 1.0
C      1  0.5268910000000  0.5355250000000  0.4728680000000 1.0
C      1  0.5257530000000  0.4661100000000  0.5278470000000 1.0
C      1  0.4707760000000  0.5355270000000  0.5267090000000 1.0
C      1  0.4719120000000  0.4661100000000  0.4717330000000 1.0
C      1  0.5665930000000  0.4930700000000  0.5286400000000 1.0
C      1  0.4699830000000  0.5085670000000  0.5675490000000 1.0
C      1  0.4310730000000  0.4930710000000  0.4709390000000 1.0
C      1  0.5276840000000  0.5085640000000  0.4320290000000 1.0
C      1  0.5461480000000  0.4657500000000  0.4758690000000 1.0
C      1  0.5227540000000  0.5358860000000  0.5471040000000 1.0
C      1  0.4515180000000  0.4657520000000  0.5237110000000 1.0
C      1  0.4749130000000  0.5358840000000  0.4524740000000 1.0
C      1  0.4514380000000  0.5250660000000  0.5473620000000 1.0
C      1  0.4512600000000  0.4765720000000  0.4523950000000 1.0
C      1  0.5462290000000  0.5250630000000  0.4522160000000 1.0
C      1  0.5464060000000  0.4765720000000  0.5471850000000 1.0
C      1  0.4865560000000  0.5812840000000  0.4379130000000 1.0
C      1  0.5607070000000  0.4203510000000  0.4875130000000 1.0
C      1  0.5111120000000  0.5812860000000  0.5616620000000 1.0
C      1  0.4369580000000  0.4203520000000  0.5120690000000 1.0
C      1  0.5720880000000  0.5204010000000  0.4704660000000 1.0
C      1  0.5281560000000  0.4812340000000  0.5730440000000 1.0
C      1  0.4255790000000  0.5204040000000  0.5291110000000 1.0
C      1  0.4695100000000  0.4812320000000  0.4265350000000 1.0
C      1  0.4988340000000  0.5662590000000  0.4997880000000 1.0
C      1  0.4988320000000  0.4353770000000  0.4997900000000 1.0
C      1  0.4988330000000  0.5008180000000  0.4997890000000 1.0
END
