TITL C-3201377-4638-562 23747.292493938 125000 -1209.69655198974 0 0 199 (C1) n - 1
REM
REM in /home/nfs/bkarasulu/CARBON/AIRSS/Generating-Clusters/LCBOP/Higher-Symm/SD-CG/FIRE-CG
REM
REM
REM
REM
REM
REM ./C.cell (b20cbc046b6831c77cfcea5457e17084)
REM AIRSS Version 0.9.1 bugfix July 2018 build 013d7b7c2542+ Fri, 06 Jul 2018 19:26:36 +0100
REM compiler GCC version 9.2.1 20190827 (Red Hat 9.2.1-1)
REM options -cpp -mtune=generic -march=x86-64 -g -O0 -fpre-include=/usr/include/finclude/math-vector-fortran.h
REM seed 1725848961 -2109117587 1536479103 -511278745 1619459159 -1851533008 502568074 -96375561 -953397939 -1645862604 -76739451 -142412332 931875996 -1511279242 -1127493576 745442016 -1305725918 1107631636 643094961 -1329080282 30814638 965413543 2019411078 2006123819 -383240234 -2059627773 -437447921 788367222 1634037947 482721250 392920037 1222994953 1393360767
REM
CELL 1.54180   50.00000   50.00000   50.00000   90.00000   90.00000   90.00000
LATT -1
SFAC C  
C      1  0.4350420000000  0.5733650000000  0.5726540000000 1.0
C      1  0.5315520000000  0.5607650000000  0.5929000000000 1.0
C      1  0.5927210000000  0.5646610000000  0.5145480000000 1.0
C      1  0.5625950000000  0.5649620000000  0.4295290000000 1.0
C      1  0.4599900000000  0.5687310000000  0.4030450000000 1.0
C      1  0.4028150000000  0.5630290000000  0.4915040000000 1.0
C      1  0.5590430000000  0.5607170000000  0.5805490000000 1.0
C      1  0.4600560000000  0.5764690000000  0.5880790000000 1.0
C      1  0.4043720000000  0.5647200000000  0.5209730000000 1.0
C      1  0.4347940000000  0.5654770000000  0.4223400000000 1.0
C      1  0.5440980000000  0.5632710000000  0.4045420000000 1.0
C      1  0.5882190000000  0.5663220000000  0.4853200000000 1.0
C      1  0.6378570000000  0.4935660000000  0.4443070000000 1.0
C      1  0.5145280000000  0.4891360000000  0.3627660000000 1.0
C      1  0.3901830000000  0.4856050000000  0.4235780000000 1.0
C      1  0.3701280000000  0.5021270000000  0.5609200000000 1.0
C      1  0.4805230000000  0.4976920000000  0.6349860000000 1.0
C      1  0.6056420000000  0.4889170000000  0.5754910000000 1.0
C      1  0.3740150000000  0.4873310000000  0.4454830000000 1.0
C      1  0.4873500000000  0.4908480000000  0.3642720000000 1.0
C      1  0.6298910000000  0.4937320000000  0.4186000000000 1.0
C      1  0.6235040000000  0.4964410000000  0.5562760000000 1.0
C      1  0.5059040000000  0.4885750000000  0.6325990000000 1.0
C      1  0.3894900000000  0.4960970000000  0.5784870000000 1.0
C      1  0.5481910000000  0.4659100000000  0.4293160000000 1.0
C      1  0.4656610000000  0.4821790000000  0.4077650000000 1.0
C      1  0.3975450000000  0.4756150000000  0.4862260000000 1.0
C      1  0.4358960000000  0.4785570000000  0.5741990000000 1.0
C      1  0.5293390000000  0.4762790000000  0.5908620000000 1.0
C      1  0.5961430000000  0.4629600000000  0.5021300000000 1.0
C      1  0.4405970000000  0.4689620000000  0.4240450000000 1.0
C      1  0.5305200000000  0.4774290000000  0.4064720000000 1.0
C      1  0.6059180000000  0.4764560000000  0.4773560000000 1.0
C      1  0.5578430000000  0.4662750000000  0.5737660000000 1.0
C      1  0.4553110000000  0.4575390000000  0.5824450000000 1.0
C      1  0.4100090000000  0.4630150000000  0.5115810000000 1.0
C      1  0.4583000000000  0.4756230000000  0.4948110000000 1.0
C      1  0.4635250000000  0.4472960000000  0.5314110000000 1.0
C      1  0.5066130000000  0.4675690000000  0.5368470000000 1.0
C      1  0.5386160000000  0.4715220000000  0.5035520000000 1.0
C      1  0.5343280000000  0.4699260000000  0.4565330000000 1.0
C      1  0.4856260000000  0.4697620000000  0.4577130000000 1.0
C      1  0.5473780000000  0.4588670000000  0.4806980000000 1.0
C      1  0.5261360000000  0.4565250000000  0.5223820000000 1.0
C      1  0.4831640000000  0.4587040000000  0.5475110000000 1.0
C      1  0.4463680000000  0.4623450000000  0.5154820000000 1.0
C      1  0.4661770000000  0.4592630000000  0.4739590000000 1.0
C      1  0.5088380000000  0.4558720000000  0.4554680000000 1.0
C      1  0.5404670000000  0.5408890000000  0.4871300000000 1.0
C      1  0.5163660000000  0.5378300000000  0.4451350000000 1.0
C      1  0.4785700000000  0.5637740000000  0.4592390000000 1.0
C      1  0.4619220000000  0.5491450000000  0.5082230000000 1.0
C      1  0.4960090000000  0.5680490000000  0.5362990000000 1.0
C      1  0.5427180000000  0.5470310000000  0.5359500000000 1.0
C      1  0.4697390000000  0.5608990000000  0.4842640000000 1.0
C      1  0.4905220000000  0.5492950000000  0.4382400000000 1.0
C      1  0.5323100000000  0.5547980000000  0.4640110000000 1.0
C      1  0.5527860000000  0.5447630000000  0.5112660000000 1.0
C      1  0.5215370000000  0.5637440000000  0.5404800000000 1.0
C      1  0.4711660000000  0.5564960000000  0.5342200000000 1.0
C      1  0.5581450000000  0.6016390000000  0.5214290000000 1.0
C      1  0.5345670000000  0.6192000000000  0.4821240000000 1.0
C      1  0.4835430000000  0.6228310000000  0.4688850000000 1.0
C      1  0.4400020000000  0.6008670000000  0.4891950000000 1.0
C      1  0.4639200000000  0.6100390000000  0.5375610000000 1.0
C      1  0.5121180000000  0.6163700000000  0.5474020000000 1.0
C      1  0.4471240000000  0.6046010000000  0.5168610000000 1.0
C      1  0.4581590000000  0.6149480000000  0.4721560000000 1.0
C      1  0.5097940000000  0.6243030000000  0.4735610000000 1.0
C      1  0.5557040000000  0.6037420000000  0.4928220000000 1.0
C      1  0.5369530000000  0.6131640000000  0.5371040000000 1.0
C      1  0.4858920000000  0.6081490000000  0.5561460000000 1.0
C      1  0.5236100000000  0.5332410000000  0.6008950000000 1.0
C      1  0.6009430000000  0.5370710000000  0.5193060000000 1.0
C      1  0.5763880000000  0.5401070000000  0.4395110000000 1.0
C      1  0.4640770000000  0.5400670000000  0.3952060000000 1.0
C      1  0.3930610000000  0.5359320000000  0.4824220000000 1.0
C      1  0.4317590000000  0.5433320000000  0.5630140000000 1.0
C      1  0.4655570000000  0.5505200000000  0.6001740000000 1.0
C      1  0.4155040000000  0.5413340000000  0.5344900000000 1.0
C      1  0.4279630000000  0.5356910000000  0.4239780000000 1.0
C      1  0.5440630000000  0.5345480000000  0.3964710000000 1.0
C      1  0.5939290000000  0.5366770000000  0.4692730000000 1.0
C      1  0.5648580000000  0.5322590000000  0.5754560000000 1.0
C      1  0.4511330000000  0.3691100000000  0.4861060000000 1.0
C      1  0.4612050000000  0.3823970000000  0.5477810000000 1.0
C      1  0.5264230000000  0.3854210000000  0.5607750000000 1.0
C      1  0.5546600000000  0.3911630000000  0.5124870000000 1.0
C      1  0.5354320000000  0.3891160000000  0.4644720000000 1.0
C      1  0.4839940000000  0.3894530000000  0.4544290000000 1.0
C      1  0.5600810000000  0.3847370000000  0.4833490000000 1.0
C      1  0.5512510000000  0.3889950000000  0.5433540000000 1.0
C      1  0.4903660000000  0.3858600000000  0.5616110000000 1.0
C      1  0.4518650000000  0.3791840000000  0.5143410000000 1.0
C      1  0.4554900000000  0.3825480000000  0.4588990000000 1.0
C      1  0.5129100000000  0.3861460000000  0.4441030000000 1.0
C      1  0.4212720000000  0.5815040000000  0.4758170000000 1.0
C      1  0.4160350000000  0.5907750000000  0.5611740000000 1.0
C      1  0.5103700000000  0.5803580000000  0.5900560000000 1.0
C      1  0.5773710000000  0.5826960000000  0.5332510000000 1.0
C      1  0.5510860000000  0.5743360000000  0.4544330000000 1.0
C      1  0.4886050000000  0.5800500000000  0.4017500000000 1.0
C      1  0.5680700000000  0.5843790000000  0.4755260000000 1.0
C      1  0.5728160000000  0.5775910000000  0.5616340000000 1.0
C      1  0.4846460000000  0.5908230000000  0.5799710000000 1.0
C      1  0.4020920000000  0.5870980000000  0.5381190000000 1.0
C      1  0.4255530000000  0.5788610000000  0.4466820000000 1.0
C      1  0.5167630000000  0.5765950000000  0.4018010000000 1.0
C      1  0.5884620000000  0.4224560000000  0.5319410000000 1.0
C      1  0.5723610000000  0.4206240000000  0.4458460000000 1.0
C      1  0.4843450000000  0.4266340000000  0.4186500000000 1.0
C      1  0.4176270000000  0.4208090000000  0.4795800000000 1.0
C      1  0.4420170000000  0.4087790000000  0.5577820000000 1.0
C      1  0.5237700000000  0.4178000000000  0.5773460000000 1.0
C      1  0.4180240000000  0.4191290000000  0.5386420000000 1.0
C      1  0.4348130000000  0.4091150000000  0.4457630000000 1.0
C      1  0.5171220000000  0.4149700000000  0.4238620000000 1.0
C      1  0.5842920000000  0.4096260000000  0.4757280000000 1.0
C      1  0.5680960000000  0.4143110000000  0.5526200000000 1.0
C      1  0.4895040000000  0.4151790000000  0.5778450000000 1.0
C      1  0.4522780000000  0.5210700000000  0.5115630000000 1.0
C      1  0.4926740000000  0.5096820000000  0.5328020000000 1.0
C      1  0.5413440000000  0.5003710000000  0.5402480000000 1.0
C      1  0.5460550000000  0.5121760000000  0.4833740000000 1.0
C      1  0.5075670000000  0.5125320000000  0.4594660000000 1.0
C      1  0.4600750000000  0.5099610000000  0.4622230000000 1.0
C      1  0.5403280000000  0.4987440000000  0.5094180000000 1.0
C      1  0.5128450000000  0.4940470000000  0.5474480000000 1.0
C      1  0.4630310000000  0.5103980000000  0.5392280000000 1.0
C      1  0.4587660000000  0.5032930000000  0.4894970000000 1.0
C      1  0.4842830000000  0.4973320000000  0.4513600000000 1.0
C      1  0.5299440000000  0.4977170000000  0.4650610000000 1.0
C      1  0.6092560000000  0.4945790000000  0.4012920000000 1.0
C      1  0.4640050000000  0.4936900000000  0.3804940000000 1.0
C      1  0.3740720000000  0.4899990000000  0.4743630000000 1.0
C      1  0.4168640000000  0.4977980000000  0.5854880000000 1.0
C      1  0.5297100000000  0.4883930000000  0.6169130000000 1.0
C      1  0.6337950000000  0.5072400000000  0.5332670000000 1.0
C      1  0.4156850000000  0.4883230000000  0.4107920000000 1.0
C      1  0.5376280000000  0.4872020000000  0.3795300000000 1.0
C      1  0.6277760000000  0.4955850000000  0.4707790000000 1.0
C      1  0.5796540000000  0.4869730000000  0.5882510000000 1.0
C      1  0.4585060000000  0.5118130000000  0.6280630000000 1.0
C      1  0.3590840000000  0.5105430000000  0.5380090000000 1.0
C      1  0.5018230000000  0.5196770000000  0.5867040000000 1.0
C      1  0.5806440000000  0.5171520000000  0.5114110000000 1.0
C      1  0.5591250000000  0.5179140000000  0.4359610000000 1.0
C      1  0.4744940000000  0.5297970000000  0.4217400000000 1.0
C      1  0.4148890000000  0.5169900000000  0.4854460000000 1.0
C      1  0.4619170000000  0.5362970000000  0.5552650000000 1.0
C      1  0.4794590000000  0.5350180000000  0.5797080000000 1.0
C      1  0.4222810000000  0.5181350000000  0.5152810000000 1.0
C      1  0.4495630000000  0.5260220000000  0.4413330000000 1.0
C      1  0.5322090000000  0.5233580000000  0.4227020000000 1.0
C      1  0.5754880000000  0.5119380000000  0.4811580000000 1.0
C      1  0.5502630000000  0.5255280000000  0.5520510000000 1.0
C      1  0.5583230000000  0.5082270000000  0.3859530000000 1.0
C      1  0.4246600000000  0.5150050000000  0.4025290000000 1.0
C      1  0.3574330000000  0.5172980000000  0.5120980000000 1.0
C      1  0.4467880000000  0.5308360000000  0.6103890000000 1.0
C      1  0.5667920000000  0.5123040000000  0.5959330000000 1.0
C      1  0.6239320000000  0.5219970000000  0.4821110000000 1.0
C      1  0.4481710000000  0.5180890000000  0.3842950000000 1.0
C      1  0.5811780000000  0.4952270000000  0.4028160000000 1.0
C      1  0.6256800000000  0.5244610000000  0.5116620000000 1.0
C      1  0.5428030000000  0.5138660000000  0.6120630000000 1.0
C      1  0.4275130000000  0.5244640000000  0.5888940000000 1.0
C      1  0.3698440000000  0.5172040000000  0.4865120000000 1.0
C      1  0.5628510000000  0.4784630000000  0.5442930000000 1.0
C      1  0.5838030000000  0.4881120000000  0.4618870000000 1.0
C      1  0.5143390000000  0.4995750000000  0.4157090000000 1.0
C      1  0.4346120000000  0.4781050000000  0.4537680000000 1.0
C      1  0.4176550000000  0.4916900000000  0.5295780000000 1.0
C      1  0.4812280000000  0.4693840000000  0.5745740000000 1.0
C      1  0.4409240000000  0.4899540000000  0.5474920000000 1.0
C      1  0.4185810000000  0.4905020000000  0.4724390000000 1.0
C      1  0.4851830000000  0.5011520000000  0.4218370000000 1.0
C      1  0.5707330000000  0.4897620000000  0.4325540000000 1.0
C      1  0.5825320000000  0.4828280000000  0.5229790000000 1.0
C      1  0.5054810000000  0.4900080000000  0.5769970000000 1.0
C      1  0.5513170000000  0.4202750000000  0.5096270000000 1.0
C      1  0.5312180000000  0.4170790000000  0.4698040000000 1.0
C      1  0.4844800000000  0.4162630000000  0.4656340000000 1.0
C      1  0.4424290000000  0.4194450000000  0.4870250000000 1.0
C      1  0.4678620000000  0.4212900000000  0.5231540000000 1.0
C      1  0.5133280000000  0.4147310000000  0.5325790000000 1.0
C      1  0.4487570000000  0.4068840000000  0.5098870000000 1.0
C      1  0.4631410000000  0.4317200000000  0.4741100000000 1.0
C      1  0.5080880000000  0.4297060000000  0.4637010000000 1.0
C      1  0.5483420000000  0.4317580000000  0.4846850000000 1.0
C      1  0.5337040000000  0.4312230000000  0.5273190000000 1.0
C      1  0.4918060000000  0.4090440000000  0.5198610000000 1.0
C      1  0.5930590000000  0.4318320000000  0.5032530000000 1.0
C      1  0.4063430000000  0.4328080000000  0.5127580000000 1.0
C      1  0.5481400000000  0.4321970000000  0.4286980000000 1.0
C      1  0.4597900000000  0.4270810000000  0.5768620000000 1.0
C      1  0.5512550000000  0.4322180000000  0.5710010000000 1.0
C      1  0.4511420000000  0.4341690000000  0.4269420000000 1.0
C      1  0.5007720000000  0.5219270000000  0.5096730000000 1.0
END
