TITL C-3201375-1262-350 7.2093539031944e-08 125000 -1258.43653025799 0 0 197 (C1) n - 1
REM
REM in /home/nfs/bkarasulu/CARBON/AIRSS/Generating-Clusters/LCBOP/Higher-Symm/SD-CG/FIRE-CG
REM
REM
REM
REM
REM
REM ./C.cell (b20cbc046b6831c77cfcea5457e17084)
REM AIRSS Version 0.9.1 bugfix July 2018 build 013d7b7c2542+ Fri, 06 Jul 2018 19:26:36 +0100
REM compiler GCC version 9.2.1 20190827 (Red Hat 9.2.1-1)
REM options -cpp -mtune=generic -march=x86-64 -g -O0 -fpre-include=/usr/include/finclude/math-vector-fortran.h
REM seed 1621890724 -1566279324 -73594668 1113914077 346133270 -705851359 -1399075468 1779971895 -600793927 680819764 -1637895643 847372714 -978719366 535631364 -1875051424 -103169279 1661285169 -740819109 958015563 1840229057 184162142 -492880048 -469999301 -1013699268 878696366 -87505363 -231209034 -623841375 1337267985 1168600626 1731061554 609983564 -1041349188
REM
CELL 1.54180   50.00000   50.00000   50.00000   90.00000   90.00000   90.00000
LATT -1
SFAC C  
C      1  0.5192610000000  0.5460340000000  0.4875900000000 1.0
C      1  0.4883270000000  0.5037980000000  0.5456630000000 1.0
C      1  0.5466460000000  0.4817420000000  0.5088730000000 1.0
C      1  0.5056680000000  0.4421130000000  0.5003800000000 1.0
C      1  0.4890760000000  0.4604490000000  0.4883130000000 1.0
C      1  0.5012680000000  0.5476810000000  0.5067520000000 1.0
C      1  0.5011050000000  0.4912610000000  0.4441120000000 1.0
C      1  0.5093300000000  0.4878680000000  0.5481740000000 1.0
C      1  0.5194830000000  0.5094100000000  0.4485940000000 1.0
C      1  0.5522990000000  0.4992870000000  0.4901560000000 1.0
C      1  0.4501270000000  0.5121050000000  0.5048580000000 1.0
C      1  0.4466620000000  0.4944180000000  0.4855200000000 1.0
C      1  0.5516660000000  0.4277360000000  0.3592980000000 1.0
C      1  0.3579950000000  0.5500000000000  0.4303080000000 1.0
C      1  0.4262050000000  0.3567830000000  0.5528450000000 1.0
C      1  0.5481180000000  0.5733090000000  0.6415580000000 1.0
C      1  0.4453870000000  0.5733320000000  0.3580930000000 1.0
C      1  0.4503530000000  0.4269850000000  0.6429710000000 1.0
C      1  0.3573000000000  0.4457450000000  0.5760180000000 1.0
C      1  0.6414380000000  0.4483670000000  0.4278330000000 1.0
C      1  0.6421220000000  0.5535470000000  0.5764390000000 1.0
C      1  0.4261270000000  0.6402500000000  0.4490640000000 1.0
C      1  0.5728780000000  0.6425340000000  0.5501310000000 1.0
C      1  0.5713090000000  0.3603430000000  0.4484480000000 1.0
C      1  0.3697940000000  0.4040110000000  0.6039280000000 1.0
C      1  0.5997840000000  0.3694630000000  0.4062200000000 1.0
C      1  0.4024290000000  0.5995800000000  0.3701710000000 1.0
C      1  0.3667250000000  0.5925870000000  0.4022000000000 1.0
C      1  0.6286130000000  0.5960260000000  0.6028100000000 1.0
C      1  0.6310860000000  0.4059210000000  0.4000780000000 1.0
C      1  0.5975630000000  0.6322720000000  0.5945030000000 1.0
C      1  0.3970680000000  0.6299690000000  0.4075030000000 1.0
C      1  0.4009330000000  0.3676300000000  0.5967360000000 1.0
C      1  0.4080180000000  0.3987230000000  0.6332670000000 1.0
C      1  0.5942590000000  0.4000820000000  0.3691320000000 1.0
C      1  0.5901040000000  0.6019680000000  0.6316300000000 1.0
C      1  0.5850930000000  0.5662110000000  0.5067590000000 1.0
C      1  0.5087760000000  0.5836800000000  0.5648910000000 1.0
C      1  0.5669600000000  0.5082070000000  0.5844460000000 1.0
C      1  0.5810990000000  0.4362360000000  0.4957620000000 1.0
C      1  0.4152040000000  0.4330670000000  0.5085010000000 1.0
C      1  0.4199210000000  0.5632070000000  0.4946430000000 1.0
C      1  0.5051910000000  0.4217590000000  0.4368520000000 1.0
C      1  0.4931830000000  0.4150970000000  0.5670520000000 1.0
C      1  0.4932630000000  0.5827690000000  0.4328940000000 1.0
C      1  0.5662280000000  0.4957850000000  0.4172530000000 1.0
C      1  0.4331310000000  0.4907530000000  0.5843360000000 1.0
C      1  0.4328720000000  0.5062920000000  0.4154310000000 1.0
C      1  0.4225730000000  0.5870340000000  0.3581770000000 1.0
C      1  0.3575150000000  0.4236280000000  0.5908300000000 1.0
C      1  0.5859820000000  0.3588310000000  0.4263040000000 1.0
C      1  0.4281950000000  0.4122700000000  0.6440650000000 1.0
C      1  0.5740240000000  0.4133560000000  0.3581180000000 1.0
C      1  0.5699840000000  0.5884650000000  0.6425920000000 1.0
C      1  0.3563160000000  0.5723130000000  0.4158990000000 1.0
C      1  0.6412540000000  0.5761010000000  0.5905500000000 1.0
C      1  0.6422770000000  0.4259940000000  0.4134510000000 1.0
C      1  0.5857130000000  0.6433670000000  0.5734390000000 1.0
C      1  0.4108890000000  0.6411660000000  0.4272660000000 1.0
C      1  0.4130500000000  0.3562560000000  0.5759770000000 1.0
C      1  0.5353450000000  0.5056260000000  0.3796620000000 1.0
C      1  0.3812930000000  0.5351930000000  0.5062250000000 1.0
C      1  0.5013400000000  0.3742270000000  0.5399680000000 1.0
C      1  0.5363820000000  0.4961160000000  0.6214280000000 1.0
C      1  0.4613510000000  0.4984480000000  0.3751700000000 1.0
C      1  0.4641320000000  0.5053980000000  0.6199780000000 1.0
C      1  0.3779200000000  0.4632640000000  0.4965480000000 1.0
C      1  0.6184310000000  0.4659430000000  0.5079210000000 1.0
C      1  0.6254460000000  0.5383200000000  0.4990550000000 1.0
C      1  0.5056050000000  0.6199550000000  0.4633150000000 1.0
C      1  0.4991180000000  0.6234520000000  0.5362940000000 1.0
C      1  0.4938220000000  0.3854450000000  0.4678630000000 1.0
C      1  0.4461490000000  0.5233090000000  0.5301410000000 1.0
C      1  0.5195860000000  0.4323660000000  0.5202550000000 1.0
C      1  0.5315180000000  0.5338250000000  0.4429380000000 1.0
C      1  0.4437270000000  0.4686630000000  0.4749330000000 1.0
C      1  0.5529210000000  0.4714730000000  0.5339670000000 1.0
C      1  0.5662290000000  0.5189660000000  0.4797390000000 1.0
C      1  0.5299880000000  0.5534910000000  0.4628920000000 1.0
C      1  0.4830290000000  0.5607100000000  0.5206380000000 1.0
C      1  0.4659650000000  0.4510920000000  0.4748090000000 1.0
C      1  0.5335320000000  0.4750330000000  0.5542100000000 1.0
C      1  0.4793580000000  0.4802290000000  0.4344350000000 1.0
C      1  0.4657330000000  0.5197170000000  0.5504330000000 1.0
C      1  0.5684960000000  0.4105050000000  0.5029740000000 1.0
C      1  0.5006370000000  0.5700280000000  0.4072500000000 1.0
C      1  0.4083170000000  0.4990420000000  0.5708160000000 1.0
C      1  0.5699830000000  0.5897880000000  0.4974330000000 1.0
C      1  0.4329450000000  0.5884970000000  0.5019040000000 1.0
C      1  0.4293360000000  0.4087400000000  0.4998410000000 1.0
C      1  0.5021710000000  0.4311950000000  0.5901090000000 1.0
C      1  0.4979630000000  0.4326380000000  0.4104860000000 1.0
C      1  0.4985480000000  0.5670700000000  0.5869510000000 1.0
C      1  0.4096090000000  0.4970850000000  0.4311940000000 1.0
C      1  0.5919860000000  0.4997640000000  0.5714480000000 1.0
C      1  0.5915530000000  0.5030850000000  0.4306900000000 1.0
C      1  0.5596690000000  0.4687990000000  0.4272070000000 1.0
C      1  0.4279820000000  0.5576870000000  0.4670300000000 1.0
C      1  0.4656970000000  0.4239810000000  0.5610330000000 1.0
C      1  0.5614890000000  0.5349170000000  0.5742400000000 1.0
C      1  0.4397490000000  0.5331190000000  0.4252630000000 1.0
C      1  0.4390330000000  0.4636550000000  0.5754980000000 1.0
C      1  0.4249370000000  0.4381610000000  0.5355380000000 1.0
C      1  0.5727660000000  0.4430480000000  0.4683270000000 1.0
C      1  0.5762200000000  0.5606410000000  0.5341560000000 1.0
C      1  0.4666000000000  0.5727600000000  0.4395020000000 1.0
C      1  0.5362890000000  0.5752860000000  0.5600930000000 1.0
C      1  0.5326280000000  0.4299790000000  0.4422610000000 1.0
C      1  0.4589670000000  0.4447870000000  0.5808140000000 1.0
C      1  0.5793680000000  0.4615670000000  0.4481910000000 1.0
C      1  0.4476160000000  0.5782780000000  0.4593150000000 1.0
C      1  0.4590140000000  0.5526260000000  0.4192460000000 1.0
C      1  0.5421960000000  0.5543090000000  0.5797900000000 1.0
C      1  0.5403530000000  0.4492920000000  0.4213060000000 1.0
C      1  0.5818100000000  0.5415410000000  0.5538960000000 1.0
C      1  0.4209600000000  0.5392170000000  0.4471930000000 1.0
C      1  0.4186950000000  0.4567560000000  0.5554360000000 1.0
C      1  0.4459080000000  0.4182860000000  0.5419480000000 1.0
C      1  0.5522410000000  0.4231050000000  0.4610450000000 1.0
C      1  0.5556610000000  0.5807200000000  0.5406780000000 1.0
C      1  0.5587710000000  0.6020180000000  0.5214250000000 1.0
C      1  0.5221030000000  0.5563730000000  0.6004550000000 1.0
C      1  0.6037890000000  0.5234530000000  0.5593580000000 1.0
C      1  0.5567260000000  0.4003670000000  0.4781920000000 1.0
C      1  0.4412220000000  0.3965360000000  0.5233730000000 1.0
C      1  0.4432720000000  0.6003780000000  0.4773800000000 1.0
C      1  0.5225340000000  0.4437540000000  0.3992080000000 1.0
C      1  0.4781060000000  0.4422940000000  0.6022570000000 1.0
C      1  0.4763660000000  0.5579040000000  0.3966900000000 1.0
C      1  0.6020500000000  0.4786520000000  0.4428170000000 1.0
C      1  0.3965660000000  0.4749010000000  0.5595030000000 1.0
C      1  0.3987640000000  0.5210840000000  0.4438870000000 1.0
C      1  0.5800870000000  0.4633700000000  0.5373000000000 1.0
C      1  0.5344480000000  0.5812490000000  0.4593000000000 1.0
C      1  0.4623580000000  0.5286800000000  0.5773310000000 1.0
C      1  0.5876230000000  0.5341960000000  0.4703380000000 1.0
C      1  0.4200520000000  0.5339340000000  0.5348060000000 1.0
C      1  0.4171680000000  0.4611200000000  0.4683620000000 1.0
C      1  0.5301660000000  0.4118560000000  0.5358030000000 1.0
C      1  0.4648030000000  0.4239060000000  0.4659480000000 1.0
C      1  0.4729330000000  0.5835570000000  0.5331270000000 1.0
C      1  0.4645540000000  0.4700370000000  0.4131310000000 1.0
C      1  0.5382860000000  0.4688440000000  0.5815020000000 1.0
C      1  0.5390810000000  0.5372620000000  0.4158030000000 1.0
C      1  0.3668220000000  0.5130660000000  0.5028640000000 1.0
C      1  0.4972790000000  0.3645640000000  0.5153040000000 1.0
C      1  0.5122330000000  0.5030160000000  0.3665400000000 1.0
C      1  0.3655560000000  0.4866010000000  0.5001350000000 1.0
C      1  0.6333180000000  0.4879060000000  0.5053510000000 1.0
C      1  0.6364620000000  0.5143080000000  0.5032690000000 1.0
C      1  0.5033400000000  0.6337430000000  0.4860200000000 1.0
C      1  0.5019330000000  0.6354810000000  0.5125910000000 1.0
C      1  0.4957020000000  0.3694440000000  0.4891120000000 1.0
C      1  0.5132790000000  0.4996310000000  0.6342280000000 1.0
C      1  0.4856510000000  0.5017790000000  0.3644040000000 1.0
C      1  0.4868200000000  0.5025740000000  0.6336380000000 1.0
C      1  0.5940270000000  0.4534680000000  0.5141800000000 1.0
C      1  0.5116300000000  0.5959870000000  0.4500740000000 1.0
C      1  0.4516070000000  0.5091090000000  0.5952540000000 1.0
C      1  0.6009090000000  0.5491370000000  0.4906230000000 1.0
C      1  0.4064430000000  0.5459780000000  0.5125760000000 1.0
C      1  0.4020880000000  0.4505150000000  0.4903700000000 1.0
C      1  0.5099550000000  0.3986260000000  0.5510470000000 1.0
C      1  0.4876610000000  0.4100570000000  0.4555970000000 1.0
C      1  0.4924570000000  0.5985690000000  0.5473670000000 1.0
C      1  0.4497170000000  0.4900660000000  0.3993830000000 1.0
C      1  0.5489770000000  0.4903540000000  0.5971000000000 1.0
C      1  0.5491470000000  0.5135400000000  0.4028910000000 1.0
C      1  0.5324170000000  0.4392910000000  0.3736220000000 1.0
C      1  0.3728320000000  0.5307270000000  0.4411870000000 1.0
C      1  0.4369870000000  0.3707650000000  0.5328800000000 1.0
C      1  0.5297480000000  0.5607970000000  0.6268180000000 1.0
C      1  0.4655960000000  0.5621950000000  0.3714110000000 1.0
C      1  0.4693670000000  0.4386930000000  0.6284000000000 1.0
C      1  0.3709080000000  0.4651700000000  0.5638510000000 1.0
C      1  0.6274580000000  0.4680310000000  0.4391200000000 1.0
C      1  0.6291970000000  0.5335790000000  0.5644020000000 1.0
C      1  0.4385230000000  0.6260260000000  0.4678700000000 1.0
C      1  0.5624750000000  0.6281300000000  0.5302530000000 1.0
C      1  0.5600570000000  0.3748370000000  0.4677460000000 1.0
C      1  0.5561380000000  0.4043340000000  0.5276410000000 1.0
C      1  0.5259610000000  0.5586230000000  0.4027900000000 1.0
C      1  0.4066520000000  0.5236570000000  0.5574290000000 1.0
C      1  0.5568380000000  0.5918880000000  0.4727340000000 1.0
C      1  0.4472380000000  0.5919370000000  0.5257350000000 1.0
C      1  0.4427600000000  0.4088730000000  0.4752740000000 1.0
C      1  0.5263060000000  0.4453950000000  0.5914190000000 1.0
C      1  0.4731120000000  0.4445650000000  0.4046820000000 1.0
C      1  0.4747630000000  0.5523860000000  0.5858540000000 1.0
C      1  0.4071820000000  0.4723990000000  0.4444730000000 1.0
C      1  0.5937540000000  0.4745930000000  0.5592560000000 1.0
C      1  0.5960470000000  0.5273850000000  0.4442970000000 1.0
C      1  0.6093510000000  0.3908460000000  0.3908530000000 1.0
C      1  0.3877590000000  0.6082850000000  0.3923970000000 1.0
C      1  0.3921080000000  0.3892380000000  0.6122410000000 1.0
C      1  0.6062020000000  0.6109730000000  0.6105340000000 1.0
C      1  0.4946550000000  0.4868680000000  0.4922350000000 1.0
END
