TITL C-3201374-830-682 2.77713168240455e-08 125000 -631.600485490491 0 0 105 (C1) n - 1
REM
REM in /home/nfs/bkarasulu/CARBON/AIRSS/Generating-Clusters/LCBOP/Higher-Symm/SD-CG/FIRE-CG
REM
REM
REM
REM
REM
REM ./C.cell (b20cbc046b6831c77cfcea5457e17084)
REM AIRSS Version 0.9.1 bugfix July 2018 build 013d7b7c2542+ Fri, 06 Jul 2018 19:26:36 +0100
REM compiler GCC version 9.2.1 20190827 (Red Hat 9.2.1-1)
REM options -cpp -mtune=generic -march=x86-64 -g -O0 -fpre-include=/usr/include/finclude/math-vector-fortran.h
REM seed 78995820 -1982489957 -1934613500 1184426037 -909701098 -113065353 -1911016013 1072495478 320806867 400800791 -425634357 1254286870 -620091180 -1320443033 -1117301460 1552155079 -564596196 122750085 -1714681387 2061303855 186424880 -764903236 1813074466 -212321834 -1343490330 -2106612012 -1701101099 -308353333 796442372 1484306044 -838966200 -59079067 -1253570158
REM
CELL 1.54180   50.00000   50.00000   50.00000   90.00000   90.00000   90.00000
LATT -1
SFAC C  
C      1  0.4018650000000  0.5108500000000  0.5026430000000 1.0
C      1  0.4042760000000  0.4866090000000  0.4903260000000 1.0
C      1  0.5547550000000  0.5662870000000  0.5007250000000 1.0
C      1  0.5491330000000  0.4346020000000  0.4958820000000 1.0
C      1  0.4631900000000  0.3916190000000  0.5031240000000 1.0
C      1  0.4682970000000  0.6052630000000  0.5055780000000 1.0
C      1  0.5934120000000  0.5005010000000  0.4834120000000 1.0
C      1  0.5920310000000  0.4942580000000  0.5116940000000 1.0
C      1  0.4955540000000  0.5763240000000  0.6005120000000 1.0
C      1  0.5206010000000  0.4313590000000  0.4119120000000 1.0
C      1  0.4964650000000  0.4696650000000  0.4952210000000 1.0
C      1  0.4979400000000  0.5378020000000  0.5166790000000 1.0
C      1  0.5253390000000  0.4569720000000  0.5530510000000 1.0
C      1  0.5193970000000  0.5424660000000  0.4571570000000 1.0
C      1  0.4722420000000  0.4367100000000  0.5219410000000 1.0
C      1  0.4679800000000  0.5609760000000  0.4842980000000 1.0
C      1  0.5488170000000  0.4436520000000  0.5457240000000 1.0
C      1  0.5454670000000  0.5520000000000  0.4551570000000 1.0
C      1  0.5771630000000  0.4922630000000  0.5709050000000 1.0
C      1  0.5773200000000  0.5050210000000  0.4251560000000 1.0
C      1  0.4469510000000  0.3740490000000  0.4927980000000 1.0
C      1  0.4558090000000  0.6229760000000  0.5200450000000 1.0
C      1  0.4861130000000  0.4384630000000  0.4488120000000 1.0
C      1  0.5082170000000  0.5741780000000  0.5539790000000 1.0
C      1  0.4379600000000  0.4563260000000  0.4649250000000 1.0
C      1  0.4253980000000  0.5393790000000  0.5371820000000 1.0
C      1  0.4495190000000  0.4962530000000  0.4063910000000 1.0
C      1  0.4521050000000  0.5029900000000  0.5961150000000 1.0
C      1  0.4998560000000  0.5854430000000  0.4333460000000 1.0
C      1  0.5014310000000  0.4137210000000  0.5660600000000 1.0
C      1  0.4467480000000  0.5049190000000  0.4784160000000 1.0
C      1  0.4552020000000  0.4932040000000  0.5196580000000 1.0
C      1  0.4431290000000  0.5581060000000  0.4698940000000 1.0
C      1  0.4475460000000  0.4464020000000  0.5312960000000 1.0
C      1  0.5196780000000  0.5298450000000  0.5293400000000 1.0
C      1  0.4932310000000  0.4817600000000  0.4720260000000 1.0
C      1  0.5293040000000  0.5807490000000  0.5040230000000 1.0
C      1  0.5222500000000  0.4224480000000  0.4930540000000 1.0
C      1  0.4901090000000  0.4712710000000  0.4155290000000 1.0
C      1  0.4862200000000  0.5348420000000  0.5772720000000 1.0
C      1  0.5025470000000  0.4696060000000  0.5433460000000 1.0
C      1  0.4974670000000  0.5281160000000  0.4669410000000 1.0
C      1  0.5739500000000  0.4606260000000  0.4606790000000 1.0
C      1  0.5680520000000  0.5317400000000  0.5309250000000 1.0
C      1  0.4431800000000  0.5484420000000  0.4417850000000 1.0
C      1  0.4453590000000  0.4532550000000  0.5594640000000 1.0
C      1  0.5644290000000  0.5494990000000  0.4340830000000 1.0
C      1  0.5713720000000  0.4455280000000  0.5634150000000 1.0
C      1  0.5964530000000  0.4766520000000  0.4675050000000 1.0
C      1  0.5917120000000  0.5170340000000  0.5284450000000 1.0
C      1  0.4652700000000  0.4510020000000  0.5816640000000 1.0
C      1  0.4633290000000  0.5490060000000  0.4196270000000 1.0
C      1  0.5519730000000  0.4777130000000  0.4544270000000 1.0
C      1  0.5439380000000  0.5180390000000  0.5231390000000 1.0
C      1  0.5594130000000  0.4492700000000  0.5187470000000 1.0
C      1  0.5624150000000  0.5486900000000  0.4790680000000 1.0
C      1  0.4814560000000  0.5849650000000  0.4917490000000 1.0
C      1  0.4799530000000  0.4113770000000  0.5128590000000 1.0
C      1  0.4609590000000  0.4718040000000  0.4189420000000 1.0
C      1  0.4583720000000  0.5285580000000  0.5813300000000 1.0
C      1  0.4829490000000  0.5693190000000  0.4200710000000 1.0
C      1  0.4844500000000  0.4298960000000  0.5797250000000 1.0
C      1  0.5661780000000  0.4366180000000  0.4731350000000 1.0
C      1  0.5678850000000  0.5592270000000  0.5249140000000 1.0
C      1  0.4670530000000  0.4763870000000  0.5983380000000 1.0
C      1  0.4643060000000  0.5232340000000  0.4037110000000 1.0
C      1  0.5843930000000  0.4700910000000  0.5548750000000 1.0
C      1  0.5829100000000  0.5281000000000  0.4405300000000 1.0
C      1  0.4811750000000  0.5348560000000  0.4929150000000 1.0
C      1  0.4916840000000  0.4578810000000  0.5198490000000 1.0
C      1  0.5815720000000  0.4702660000000  0.5245940000000 1.0
C      1  0.5833630000000  0.5262210000000  0.4710610000000 1.0
C      1  0.5142300000000  0.4056950000000  0.5432680000000 1.0
C      1  0.5120560000000  0.5927000000000  0.4563060000000 1.0
C      1  0.4340780000000  0.5210090000000  0.4396230000000 1.0
C      1  0.4376370000000  0.4811930000000  0.5604490000000 1.0
C      1  0.5528070000000  0.4915680000000  0.4297440000000 1.0
C      1  0.5547930000000  0.5039580000000  0.5801850000000 1.0
C      1  0.5019890000000  0.5116890000000  0.5710640000000 1.0
C      1  0.5015640000000  0.4951220000000  0.4264090000000 1.0
C      1  0.4394860000000  0.5382230000000  0.5607380000000 1.0
C      1  0.4584290000000  0.4533690000000  0.4444860000000 1.0
C      1  0.5092710000000  0.5876930000000  0.4840580000000 1.0
C      1  0.5086290000000  0.4088680000000  0.5152880000000 1.0
C      1  0.5006390000000  0.4461290000000  0.4241090000000 1.0
C      1  0.4966590000000  0.5615640000000  0.5766910000000 1.0
C      1  0.5284860000000  0.5088840000000  0.5801560000000 1.0
C      1  0.5282130000000  0.5002380000000  0.4196470000000 1.0
C      1  0.4244150000000  0.5055250000000  0.4180010000000 1.0
C      1  0.4273450000000  0.4937130000000  0.5835280000000 1.0
C      1  0.4887970000000  0.4920000000000  0.5546650000000 1.0
C      1  0.4873190000000  0.5039180000000  0.4518660000000 1.0
C      1  0.4145240000000  0.5354950000000  0.5104060000000 1.0
C      1  0.4255220000000  0.4672920000000  0.4887890000000 1.0
C      1  0.4607620000000  0.4942500000000  0.5470390000000 1.0
C      1  0.4560520000000  0.5068770000000  0.4526780000000 1.0
C      1  0.5411560000000  0.4187060000000  0.4020900000000 1.0
C      1  0.4941830000000  0.5896340000000  0.6228750000000 1.0
C      1  0.5200960000000  0.5827290000000  0.5313590000000 1.0
C      1  0.5038800000000  0.4280220000000  0.4698240000000 1.0
C      1  0.5406250000000  0.4896560000000  0.4772650000000 1.0
C      1  0.5424590000000  0.4997140000000  0.5018770000000 1.0
C      1  0.4410440000000  0.4681990000000  0.5127580000000 1.0
C      1  0.4215480000000  0.5527040000000  0.4882950000000 1.0
C      1  0.4614490000000  0.5126760000000  0.5004360000000 1.0
END
