TITL C-3201375-1262-452 -46114.9426534375 125000 -811.255149228279 0 0 145 (C1) n - 1
REM
REM in /home/nfs/bkarasulu/CARBON/AIRSS/Generating-Clusters/LCBOP/Higher-Symm/SD-CG/FIRE-CG
REM
REM
REM
REM
REM
REM ./C.cell (b20cbc046b6831c77cfcea5457e17084)
REM AIRSS Version 0.9.1 bugfix July 2018 build 013d7b7c2542+ Fri, 06 Jul 2018 19:26:36 +0100
REM compiler GCC version 9.2.1 20190827 (Red Hat 9.2.1-1)
REM options -cpp -mtune=generic -march=x86-64 -g -O0 -fpre-include=/usr/include/finclude/math-vector-fortran.h
REM seed 1824676290 1623395659 -182604348 1979878903 -1571858926 37774792 1153088996 1265770014 -294259867 730490503 -1703178353 -1549339521 -164403334 457310329 1623116710 -1214926359 -133368693 588758163 1468716834 164598272 1582393574 369429965 395708000 -736944522 -1513696390 1588885642 1338898976 303231657 -577424156 -2025514326 -191241745 -315004531 -269831053
REM
CELL 1.54180   50.00000   50.00000   50.00000   90.00000   90.00000   90.00000
LATT -1
SFAC C  
C      1  0.5190520000000  0.5697290000000  0.4329060000000 1.0
C      1  0.4424220000000  0.5626800000000  0.4634660000000 1.0
C      1  0.4523140000000  0.5627420000000  0.5474860000000 1.0
C      1  0.5265780000000  0.5618380000000  0.5629530000000 1.0
C      1  0.5666440000000  0.5634500000000  0.4946040000000 1.0
C      1  0.5170770000000  0.4325640000000  0.5646480000000 1.0
C      1  0.4438000000000  0.4332750000000  0.5408630000000 1.0
C      1  0.4374890000000  0.4313640000000  0.4659160000000 1.0
C      1  0.5251850000000  0.4302100000000  0.4361020000000 1.0
C      1  0.5630160000000  0.4401800000000  0.5041630000000 1.0
C      1  0.5050580000000  0.5373880000000  0.6046400000000 1.0
C      1  0.6009460000000  0.5420740000000  0.5294700000000 1.0
C      1  0.5623660000000  0.5480960000000  0.4136020000000 1.0
C      1  0.4376610000000  0.5350000000000  0.4179780000000 1.0
C      1  0.3965990000000  0.5347070000000  0.5410570000000 1.0
C      1  0.5181250000000  0.4615800000000  0.3870170000000 1.0
C      1  0.6003530000000  0.4581160000000  0.4729670000000 1.0
C      1  0.5592330000000  0.4519770000000  0.5865920000000 1.0
C      1  0.4372200000000  0.4549930000000  0.5889530000000 1.0
C      1  0.3897910000000  0.4665260000000  0.4715110000000 1.0
C      1  0.5354590000000  0.4638150000000  0.6006350000000 1.0
C      1  0.6041140000000  0.4703780000000  0.4992470000000 1.0
C      1  0.5429820000000  0.4686480000000  0.3979620000000 1.0
C      1  0.4047290000000  0.4675410000000  0.4463790000000 1.0
C      1  0.4170310000000  0.4654850000000  0.5692710000000 1.0
C      1  0.5395210000000  0.5351810000000  0.3984940000000 1.0
C      1  0.6048930000000  0.5308600000000  0.5027390000000 1.0
C      1  0.5317670000000  0.5287610000000  0.6002340000000 1.0
C      1  0.4144950000000  0.5263310000000  0.5632490000000 1.0
C      1  0.4195900000000  0.5247110000000  0.4384180000000 1.0
C      1  0.4008420000000  0.4553380000000  0.5222050000000 1.0
C      1  0.4856100000000  0.4520070000000  0.6013870000000 1.0
C      1  0.5895150000000  0.4571090000000  0.5465460000000 1.0
C      1  0.5756410000000  0.4534960000000  0.4310130000000 1.0
C      1  0.4238990000000  0.4317800000000  0.4187430000000 1.0
C      1  0.3972140000000  0.5373970000000  0.4818090000000 1.0
C      1  0.4876480000000  0.5474340000000  0.3954410000000 1.0
C      1  0.5923800000000  0.5429260000000  0.4544590000000 1.0
C      1  0.5729150000000  0.5423420000000  0.5727070000000 1.0
C      1  0.4552810000000  0.5402850000000  0.5928660000000 1.0
C      1  0.5467220000000  0.4695910000000  0.4618110000000 1.0
C      1  0.4835650000000  0.4597660000000  0.4281480000000 1.0
C      1  0.4390970000000  0.4684550000000  0.5061410000000 1.0
C      1  0.4811830000000  0.4672840000000  0.5571360000000 1.0
C      1  0.5461630000000  0.4670640000000  0.5373930000000 1.0
C      1  0.5492700000000  0.5332550000000  0.5355830000000 1.0
C      1  0.4804680000000  0.5285620000000  0.5563300000000 1.0
C      1  0.4281340000000  0.5501560000000  0.5110160000000 1.0
C      1  0.4850330000000  0.5352210000000  0.4387060000000 1.0
C      1  0.5482270000000  0.5348800000000  0.4618810000000 1.0
C      1  0.4781950000000  0.4924650000000  0.5094370000000 1.0
C      1  0.5049990000000  0.4915870000000  0.5200360000000 1.0
C      1  0.5226140000000  0.4804780000000  0.4993450000000 1.0
C      1  0.5063570000000  0.4881670000000  0.4756770000000 1.0
C      1  0.4795050000000  0.4806920000000  0.4819450000000 1.0
C      1  0.4681510000000  0.5222020000000  0.4765060000000 1.0
C      1  0.5064140000000  0.5163130000000  0.4772750000000 1.0
C      1  0.5236140000000  0.5250100000000  0.4979420000000 1.0
C      1  0.5104050000000  0.5189550000000  0.5231750000000 1.0
C      1  0.4649180000000  0.5196400000000  0.5059650000000 1.0
C      1  0.5402190000000  0.4578660000000  0.4884730000000 1.0
C      1  0.4996200000000  0.4431150000000  0.4445610000000 1.0
C      1  0.4469080000000  0.4478380000000  0.4884010000000 1.0
C      1  0.4688260000000  0.4488790000000  0.5404020000000 1.0
C      1  0.5260060000000  0.4474180000000  0.5405010000000 1.0
C      1  0.5434400000000  0.5463280000000  0.5084920000000 1.0
C      1  0.5032570000000  0.5414710000000  0.5426600000000 1.0
C      1  0.4553930000000  0.5464590000000  0.5189310000000 1.0
C      1  0.4695230000000  0.5461850000000  0.4616080000000 1.0
C      1  0.5287510000000  0.5553650000000  0.4573080000000 1.0
C      1  0.4051440000000  0.5316280000000  0.5110890000000 1.0
C      1  0.4824960000000  0.5272740000000  0.5877480000000 1.0
C      1  0.5779870000000  0.5310660000000  0.5449000000000 1.0
C      1  0.5683230000000  0.5326650000000  0.4388600000000 1.0
C      1  0.4676130000000  0.5324060000000  0.4136640000000 1.0
C      1  0.4050870000000  0.4756530000000  0.4938450000000 1.0
C      1  0.4970830000000  0.4689320000000  0.4034730000000 1.0
C      1  0.5776490000000  0.4691060000000  0.4566230000000 1.0
C      1  0.5654660000000  0.4678830000000  0.5617410000000 1.0
C      1  0.4642550000000  0.4686730000000  0.5869740000000 1.0
C      1  0.5112530000000  0.4397890000000  0.5177300000000 1.0
C      1  0.5185000000000  0.4380190000000  0.4894230000000 1.0
C      1  0.4949980000000  0.4391530000000  0.4724360000000 1.0
C      1  0.4735870000000  0.4398420000000  0.4918300000000 1.0
C      1  0.4836210000000  0.4419920000000  0.5179620000000 1.0
C      1  0.5139020000000  0.5649660000000  0.4794640000000 1.0
C      1  0.5224240000000  0.5672670000000  0.5075250000000 1.0
C      1  0.4994260000000  0.5626330000000  0.5232310000000 1.0
C      1  0.4766670000000  0.5628470000000  0.5071020000000 1.0
C      1  0.4858930000000  0.5624670000000  0.4799830000000 1.0
C      1  0.5876810000000  0.4533390000000  0.5174880000000 1.0
C      1  0.5502640000000  0.4489830000000  0.4190480000000 1.0
C      1  0.4220630000000  0.4434510000000  0.4436880000000 1.0
C      1  0.4178980000000  0.4489210000000  0.5445040000000 1.0
C      1  0.5125130000000  0.4471260000000  0.5911270000000 1.0
C      1  0.5905720000000  0.5481740000000  0.4832040000000 1.0
C      1  0.5450890000000  0.5471860000000  0.5810400000000 1.0
C      1  0.4378800000000  0.5465250000000  0.5695130000000 1.0
C      1  0.4172640000000  0.5445150000000  0.4608530000000 1.0
C      1  0.5153330000000  0.5529790000000  0.4061410000000 1.0
C      1  0.4782400000000  0.3949730000000  0.4841820000000 1.0
C      1  0.4757990000000  0.3952380000000  0.5151550000000 1.0
C      1  0.5037780000000  0.3953960000000  0.5272140000000 1.0
C      1  0.5247470000000  0.3966070000000  0.5047600000000 1.0
C      1  0.5096760000000  0.3948110000000  0.4774730000000 1.0
C      1  0.4814470000000  0.6046910000000  0.5199360000000 1.0
C      1  0.4762450000000  0.6049310000000  0.4883560000000 1.0
C      1  0.5044890000000  0.6075980000000  0.4738040000000 1.0
C      1  0.5275850000000  0.6085830000000  0.4962570000000 1.0
C      1  0.5125210000000  0.6056750000000  0.5252680000000 1.0
C      1  0.5808620000000  0.4976480000000  0.4663400000000 1.0
C      1  0.4973250000000  0.4971500000000  0.4082350000000 1.0
C      1  0.4311820000000  0.4931740000000  0.4705940000000 1.0
C      1  0.4494380000000  0.4968300000000  0.5719140000000 1.0
C      1  0.5544350000000  0.4950220000000  0.5726000000000 1.0
C      1  0.5807260000000  0.5024960000000  0.5351260000000 1.0
C      1  0.4908120000000  0.4984400000000  0.5879860000000 1.0
C      1  0.4143410000000  0.5034500000000  0.5133580000000 1.0
C      1  0.4690280000000  0.5023110000000  0.4127090000000 1.0
C      1  0.5579370000000  0.5049530000000  0.4284440000000 1.0
C      1  0.5238900000000  0.4046710000000  0.4526430000000 1.0
C      1  0.4548290000000  0.4059860000000  0.4682100000000 1.0
C      1  0.4523170000000  0.4067340000000  0.5294920000000 1.0
C      1  0.5090270000000  0.4062050000000  0.5540130000000 1.0
C      1  0.5507350000000  0.4118760000000  0.5068970000000 1.0
C      1  0.5237960000000  0.5892280000000  0.5495760000000 1.0
C      1  0.4636180000000  0.5906050000000  0.5401920000000 1.0
C      1  0.4522290000000  0.5903910000000  0.4746570000000 1.0
C      1  0.5095310000000  0.5962030000000  0.4456800000000 1.0
C      1  0.5545220000000  0.5925540000000  0.4926930000000 1.0
C      1  0.5615630000000  0.4924240000000  0.5165190000000 1.0
C      1  0.5351250000000  0.4927910000000  0.4439750000000 1.0
C      1  0.4649480000000  0.4834390000000  0.4358520000000 1.0
C      1  0.4378680000000  0.4919940000000  0.5245650000000 1.0
C      1  0.5036760000000  0.4895680000000  0.5649070000000 1.0
C      1  0.5621170000000  0.5089920000000  0.4841430000000 1.0
C      1  0.5347220000000  0.5069040000000  0.5562620000000 1.0
C      1  0.4598340000000  0.5082340000000  0.5486760000000 1.0
C      1  0.4604140000000  0.4948780000000  0.4648720000000 1.0
C      1  0.5093630000000  0.5087480000000  0.4329190000000 1.0
C      1  0.5477230000000  0.5043160000000  0.4009540000000 1.0
C      1  0.5411280000000  0.4945960000000  0.5989040000000 1.0
C      1  0.4202760000000  0.4962330000000  0.5704160000000 1.0
C      1  0.4159310000000  0.4956830000000  0.4467080000000 1.0
C      1  0.6108440000000  0.5004890000000  0.5008700000000 1.0
END
