TITL C-3201379-3821-904 -5.29351816012601e-08 125000 -13.421503195208 0 0 7 (C3v) n - 1
REM
REM in /home/nfs/bkarasulu/CARBON/AIRSS/Generating-Clusters/LCBOP/Higher-Symm/SD-CG/FIRE-CG
REM
REM
REM
REM
REM
REM ./C.cell (b20cbc046b6831c77cfcea5457e17084)
REM AIRSS Version 0.9.1 bugfix July 2018 build 013d7b7c2542+ Fri, 06 Jul 2018 19:26:36 +0100
REM compiler GCC version 9.2.1 20190827 (Red Hat 9.2.1-1)
REM options -cpp -mtune=generic -march=x86-64 -g -O0 -fpre-include=/usr/include/finclude/math-vector-fortran.h
REM seed -1321419802 1097828674 162883889 1831483774 1946447630 773276733 -792679150 -2109042431 269694391 867968691 -1412171989 868490103 -1983739626 1094929791 891415478 -938071922 -849445594 -2092008315 -1300902303 696579040 -413983624 1242889701 -216136468 587730907 1389604866 -883962894 984540709 -2094371175 -222779312 286504485 -1746687248 -779490603 259367887
REM
CELL 1.54180   50.00000   50.00000   50.00000   90.00000   90.00000   90.00000
LATT -1
SFAC C  
C      1  0.5338220000000  0.5003410000000  0.5026570000000 1.0
C      1  0.5000550000000  0.5351300000000  0.5018260000000 1.0
C      1  0.4660970000000  0.5011710000000  0.5018260000000 1.0
C      1  0.5008860000000  0.4674050000000  0.5026570000000 1.0
C      1  0.5008860000000  0.5003410000000  0.5355930000000 1.0
C      1  0.5000550000000  0.5011710000000  0.4678680000000 1.0
C      1  0.4990120000000  0.5022140000000  0.5007830000000 1.0
END
