TITL C-3201377-4638-498 1.43214269558256 125000 -259.490260563514 0 0 45 (C1) n - 1
REM
REM in /home/nfs/bkarasulu/CARBON/AIRSS/Generating-Clusters/LCBOP/Higher-Symm/SD-CG/FIRE-CG
REM
REM
REM
REM
REM
REM ./C.cell (b20cbc046b6831c77cfcea5457e17084)
REM AIRSS Version 0.9.1 bugfix July 2018 build 013d7b7c2542+ Fri, 06 Jul 2018 19:26:36 +0100
REM compiler GCC version 9.2.1 20190827 (Red Hat 9.2.1-1)
REM options -cpp -mtune=generic -march=x86-64 -g -O0 -fpre-include=/usr/include/finclude/math-vector-fortran.h
REM seed -82687520 530964566 -1462273174 -2137589622 -1548233661 1426153413 1951417733 1916926095 1598746450 -1881380685 1144777568 -193956762 542927565 -975081181 1318233054 -998086792 -1083951713 -1369943856 2078550091 2106479 480971829 337426328 905427297 -468481944 -1971416153 -1868875624 979292345 531094207 -926318767 643517023 9189286 -9173389 -15321546
REM
CELL 1.54180   50.00000   50.00000   50.00000   90.00000   90.00000   90.00000
LATT -1
SFAC C  
C      1  0.5534150000000  0.5383820000000  0.4998510000000 1.0
C      1  0.5180950000000  0.5473820000000  0.3948110000000 1.0
C      1  0.5736180000000  0.5565080000000  0.5394990000000 1.0
C      1  0.4432660000000  0.4023530000000  0.6402960000000 1.0
C      1  0.5580170000000  0.5089670000000  0.5415950000000 1.0
C      1  0.5183130000000  0.5502940000000  0.4432070000000 1.0
C      1  0.4909790000000  0.4966420000000  0.3998520000000 1.0
C      1  0.4435540000000  0.4454680000000  0.5717850000000 1.0
C      1  0.5357840000000  0.4990500000000  0.4732520000000 1.0
C      1  0.4450620000000  0.5523020000000  0.4093000000000 1.0
C      1  0.4433860000000  0.4314040000000  0.5942440000000 1.0
C      1  0.5148450000000  0.5428720000000  0.4702390000000 1.0
C      1  0.4487290000000  0.5642290000000  0.3859170000000 1.0
C      1  0.4826760000000  0.4833940000000  0.3790040000000 1.0
C      1  0.5744810000000  0.4650260000000  0.4838440000000 1.0
C      1  0.4439810000000  0.5390340000000  0.4321970000000 1.0
C      1  0.5877140000000  0.5637550000000  0.5907690000000 1.0
C      1  0.5779230000000  0.5741500000000  0.5171160000000 1.0
C      1  0.5118620000000  0.5368640000000  0.4192160000000 1.0
C      1  0.4439670000000  0.4735680000000  0.5268660000000 1.0
C      1  0.5595880000000  0.5332880000000  0.5282230000000 1.0
C      1  0.4448810000000  0.4881200000000  0.5032340000000 1.0
C      1  0.4432380000000  0.4173320000000  0.6166850000000 1.0
C      1  0.5812120000000  0.4553860000000  0.5078580000000 1.0
C      1  0.4533710000000  0.5755040000000  0.3628750000000 1.0
C      1  0.4623600000000  0.3822010000000  0.6436730000000 1.0
C      1  0.5661790000000  0.4839280000000  0.5455290000000 1.0
C      1  0.5809360000000  0.5605640000000  0.5658080000000 1.0
C      1  0.4931480000000  0.4778390000000  0.4873620000000 1.0
C      1  0.4926990000000  0.5025430000000  0.4481860000000 1.0
C      1  0.4688470000000  0.4931320000000  0.4890960000000 1.0
C      1  0.5354600000000  0.5265280000000  0.4819380000000 1.0
C      1  0.4218860000000  0.4993650000000  0.4913240000000 1.0
C      1  0.4452990000000  0.5237410000000  0.4554170000000 1.0
C      1  0.5767660000000  0.4626970000000  0.5332300000000 1.0
C      1  0.4248260000000  0.4073560000000  0.6598690000000 1.0
C      1  0.4984480000000  0.5116750000000  0.4221120000000 1.0
C      1  0.5667010000000  0.5636070000000  0.4942090000000 1.0
C      1  0.5104790000000  0.4877630000000  0.4666850000000 1.0
C      1  0.4877550000000  0.5388430000000  0.4783860000000 1.0
C      1  0.4437240000000  0.4595310000000  0.5493260000000 1.0
C      1  0.4223360000000  0.5151570000000  0.4694600000000 1.0
C      1  0.5586610000000  0.4831250000000  0.4723450000000 1.0
C      1  0.4713120000000  0.5156740000000  0.4676560000000 1.0
C      1  0.4802230000000  0.3634580000000  0.6466560000000 1.0
END
