TITL C-3201379-3821-1469 -28.7993715867859 125000 -696.715652513493 0 0 114 (C1) n - 1
REM
REM in /home/nfs/bkarasulu/CARBON/AIRSS/Generating-Clusters/LCBOP/Higher-Symm/SD-CG/FIRE-CG
REM
REM
REM
REM
REM
REM ./C.cell (b20cbc046b6831c77cfcea5457e17084)
REM AIRSS Version 0.9.1 bugfix July 2018 build 013d7b7c2542+ Fri, 06 Jul 2018 19:26:36 +0100
REM compiler GCC version 9.2.1 20190827 (Red Hat 9.2.1-1)
REM options -cpp -mtune=generic -march=x86-64 -g -O0 -fpre-include=/usr/include/finclude/math-vector-fortran.h
REM seed 964769176 -215078389 1092730065 978073815 -304970658 485628361 1066533479 727203674 -688975146 -26381517 -24868318 1503427752 915078428 -1317140394 -706288174 -335834916 1639954251 1999900658 -852955434 -1623365757 -136664149 -1154314336 -264397272 1262027324 2107865425 185295318 1922704749 -1012263143 -1238588476 -257870959 -1734883508 636914574 1409396575
REM
CELL 1.54180   50.00000   50.00000   50.00000   90.00000   90.00000   90.00000
LATT -1
SFAC C  
C      1  0.4634930000000  0.5552250000000  0.5536490000000 1.0
C      1  0.5370080000000  0.5443450000000  0.5486110000000 1.0
C      1  0.5601600000000  0.5458720000000  0.4813970000000 1.0
C      1  0.4978000000000  0.5406060000000  0.4380340000000 1.0
C      1  0.4413480000000  0.5478330000000  0.4820160000000 1.0
C      1  0.4682000000000  0.4849580000000  0.5149490000000 1.0
C      1  0.4826740000000  0.4962400000000  0.5370530000000 1.0
C      1  0.5366330000000  0.4865670000000  0.5074440000000 1.0
C      1  0.5201950000000  0.4867520000000  0.4811520000000 1.0
C      1  0.4828200000000  0.4870970000000  0.4869580000000 1.0
C      1  0.5749060000000  0.5292710000000  0.4645690000000 1.0
C      1  0.4867590000000  0.5233440000000  0.4187060000000 1.0
C      1  0.4177280000000  0.5335490000000  0.4865570000000 1.0
C      1  0.4582100000000  0.5371690000000  0.5747060000000 1.0
C      1  0.5587610000000  0.5296900000000  0.5594920000000 1.0
C      1  0.4082950000000  0.4890160000000  0.4720350000000 1.0
C      1  0.4335970000000  0.4947420000000  0.5692430000000 1.0
C      1  0.5575530000000  0.4843800000000  0.5747520000000 1.0
C      1  0.5914220000000  0.4844280000000  0.4736860000000 1.0
C      1  0.5030140000000  0.4787730000000  0.4153070000000 1.0
C      1  0.5865130000000  0.5309490000000  0.5147880000000 1.0
C      1  0.5391300000000  0.5263950000000  0.4244630000000 1.0
C      1  0.4397990000000  0.5265040000000  0.4413290000000 1.0
C      1  0.4229890000000  0.5388800000000  0.5386760000000 1.0
C      1  0.5119890000000  0.5304660000000  0.5840600000000 1.0
C      1  0.4685370000000  0.5035960000000  0.6039170000000 1.0
C      1  0.5984940000000  0.5042080000000  0.5565880000000 1.0
C      1  0.5901770000000  0.5072420000000  0.4284430000000 1.0
C      1  0.4562960000000  0.4872310000000  0.4103020000000 1.0
C      1  0.3894780000000  0.5082130000000  0.5138250000000 1.0
C      1  0.4840480000000  0.4812760000000  0.5601800000000 1.0
C      1  0.5628540000000  0.4704070000000  0.5099600000000 1.0
C      1  0.5298060000000  0.4815540000000  0.4557030000000 1.0
C      1  0.4476640000000  0.4603800000000  0.4595210000000 1.0
C      1  0.4421440000000  0.4713700000000  0.5210650000000 1.0
C      1  0.4771770000000  0.3949270000000  0.4836170000000 1.0
C      1  0.4959450000000  0.3869870000000  0.5062960000000 1.0
C      1  0.5238950000000  0.3912060000000  0.4980780000000 1.0
C      1  0.5245570000000  0.3972610000000  0.4690840000000 1.0
C      1  0.4957510000000  0.4016130000000  0.4594180000000 1.0
C      1  0.4592260000000  0.4582460000000  0.5910060000000 1.0
C      1  0.5585110000000  0.4234720000000  0.5265340000000 1.0
C      1  0.5772880000000  0.4646130000000  0.4344080000000 1.0
C      1  0.4713740000000  0.4396960000000  0.4226680000000 1.0
C      1  0.4298930000000  0.4245370000000  0.4996350000000 1.0
C      1  0.5187280000000  0.5560340000000  0.5678280000000 1.0
C      1  0.5739190000000  0.5563110000000  0.5045450000000 1.0
C      1  0.5243580000000  0.5512150000000  0.4323240000000 1.0
C      1  0.4467250000000  0.5540210000000  0.4540240000000 1.0
C      1  0.4398440000000  0.5644670000000  0.5389140000000 1.0
C      1  0.4255100000000  0.4669280000000  0.4757910000000 1.0
C      1  0.4307360000000  0.4777810000000  0.5464550000000 1.0
C      1  0.5499030000000  0.4620480000000  0.5580000000000 1.0
C      1  0.5734680000000  0.4631430000000  0.4847140000000 1.0
C      1  0.5091100000000  0.4695320000000  0.4407900000000 1.0
C      1  0.5219880000000  0.5908660000000  0.4654980000000 1.0
C      1  0.4785240000000  0.5919340000000  0.4682890000000 1.0
C      1  0.4677550000000  0.5970040000000  0.5105620000000 1.0
C      1  0.5046190000000  0.5933680000000  0.5345740000000 1.0
C      1  0.5382160000000  0.5922410000000  0.5069110000000 1.0
C      1  0.4965180000000  0.5310440000000  0.4641820000000 1.0
C      1  0.4632220000000  0.5353520000000  0.4937530000000 1.0
C      1  0.4815480000000  0.5442110000000  0.5356790000000 1.0
C      1  0.5232560000000  0.5252490000000  0.5329010000000 1.0
C      1  0.5366770000000  0.5337530000000  0.4895770000000 1.0
C      1  0.4897190000000  0.4250220000000  0.4421120000000 1.0
C      1  0.4555920000000  0.4143520000000  0.4905990000000 1.0
C      1  0.4901680000000  0.3941440000000  0.5336320000000 1.0
C      1  0.5440640000000  0.4030530000000  0.5152940000000 1.0
C      1  0.5481540000000  0.4126380000000  0.4616780000000 1.0
C      1  0.3876620000000  0.4917200000000  0.4920230000000 1.0
C      1  0.4490190000000  0.4851570000000  0.5927110000000 1.0
C      1  0.5862480000000  0.4880000000000  0.5749020000000 1.0
C      1  0.5961430000000  0.4834050000000  0.4443400000000 1.0
C      1  0.4771170000000  0.4666760000000  0.4093160000000 1.0
C      1  0.5605970000000  0.5802080000000  0.5123380000000 1.0
C      1  0.5291260000000  0.5761210000000  0.4453560000000 1.0
C      1  0.4629640000000  0.5775750000000  0.4530760000000 1.0
C      1  0.4468440000000  0.5866310000000  0.5221790000000 1.0
C      1  0.5086500000000  0.5807480000000  0.5570750000000 1.0
C      1  0.4339880000000  0.5230600000000  0.5636730000000 1.0
C      1  0.5427840000000  0.5107800000000  0.5779500000000 1.0
C      1  0.5891000000000  0.5117350000000  0.4843120000000 1.0
C      1  0.5105430000000  0.5065830000000  0.4120930000000 1.0
C      1  0.4187580000000  0.5144850000000  0.4629070000000 1.0
C      1  0.5633980000000  0.4516550000000  0.5331030000000 1.0
C      1  0.5524260000000  0.4718570000000  0.4413800000000 1.0
C      1  0.4461660000000  0.4443350000000  0.4362140000000 1.0
C      1  0.4278720000000  0.4541970000000  0.5017750000000 1.0
C      1  0.4809990000000  0.4559930000000  0.5733540000000 1.0
C      1  0.4897040000000  0.4356250000000  0.5148880000000 1.0
C      1  0.5005260000000  0.4398730000000  0.5603690000000 1.0
C      1  0.5201070000000  0.4679610000000  0.5243930000000 1.0
C      1  0.5217250000000  0.4437740000000  0.4800760000000 1.0
C      1  0.4746190000000  0.4601810000000  0.4740750000000 1.0
C      1  0.4910250000000  0.4219130000000  0.5399280000000 1.0
C      1  0.5224620000000  0.4576300000000  0.5515950000000 1.0
C      1  0.5500650000000  0.4390620000000  0.4732530000000 1.0
C      1  0.4990840000000  0.4487160000000  0.4588330000000 1.0
C      1  0.4711400000000  0.4380440000000  0.4949410000000 1.0
C      1  0.4092020000000  0.5289130000000  0.5143350000000 1.0
C      1  0.4813620000000  0.5253610000000  0.5897180000000 1.0
C      1  0.5826200000000  0.5235850000000  0.5429690000000 1.0
C      1  0.5672080000000  0.5230080000000  0.4367580000000 1.0
C      1  0.4590810000000  0.5135760000000  0.4220110000000 1.0
C      1  0.5367490000000  0.5155250000000  0.5112140000000 1.0
C      1  0.5133490000000  0.5452520000000  0.4815370000000 1.0
C      1  0.4775160000000  0.5153520000000  0.4784240000000 1.0
C      1  0.4787730000000  0.5519580000000  0.5097210000000 1.0
C      1  0.4961960000000  0.5206870000000  0.5373010000000 1.0
C      1  0.5042060000000  0.6259120000000  0.4956220000000 1.0
C      1  0.5026010000000  0.5952010000000  0.4972090000000 1.0
C      1  0.5001780000000  0.5640520000000  0.4970970000000 1.0
C      1  0.5132280000000  0.4471650000000  0.5067900000000 1.0
END
