TITL C-3201377-4638-1297 20391.1461744924 125000 -1047.50950543341 0 0 180 (C1) n - 1
REM
REM in /home/nfs/bkarasulu/CARBON/AIRSS/Generating-Clusters/LCBOP/Higher-Symm/SD-CG/FIRE-CG
REM
REM
REM
REM
REM
REM ./C.cell (b20cbc046b6831c77cfcea5457e17084)
REM AIRSS Version 0.9.1 bugfix July 2018 build 013d7b7c2542+ Fri, 06 Jul 2018 19:26:36 +0100
REM compiler GCC version 9.2.1 20190827 (Red Hat 9.2.1-1)
REM options -cpp -mtune=generic -march=x86-64 -g -O0 -fpre-include=/usr/include/finclude/math-vector-fortran.h
REM seed -1671286073 94722606 783200646 -264779281 -895612446 982144565 -496767194 173427696 1333331220 44251310 113731351 169909448 -679964268 -1046406145 1949122108 1169357928 173650002 -538580341 -666084833 -1089394209 -734773577 1293974360 -585116784 -1692528515 1692312242 -1509175703 -1895087996 -1682139023 -1361470239 -790771161 -1548231965 1084187463 -323089942
REM
CELL 1.54180   50.00000   50.00000   50.00000   90.00000   90.00000   90.00000
LATT -1
SFAC C  
C      1  0.4903290000000  0.5880050000000  0.4485330000000 1.0
C      1  0.4891060000000  0.4489510000000  0.4110730000000 1.0
C      1  0.4905450000000  0.4115470000000  0.5519150000000 1.0
C      1  0.4896340000000  0.5522060000000  0.5889600000000 1.0
C      1  0.5088060000000  0.5884540000000  0.5512740000000 1.0
C      1  0.5103240000000  0.4485830000000  0.5890190000000 1.0
C      1  0.5081130000000  0.4125330000000  0.4489160000000 1.0
C      1  0.5104880000000  0.5518300000000  0.4108520000000 1.0
C      1  0.5400990000000  0.5178610000000  0.5615140000000 1.0
C      1  0.5409950000000  0.5621110000000  0.4816050000000 1.0
C      1  0.5407140000000  0.4818160000000  0.4372100000000 1.0
C      1  0.5400960000000  0.4374060000000  0.5189160000000 1.0
C      1  0.4624830000000  0.5174840000000  0.4360480000000 1.0
C      1  0.4604820000000  0.5612710000000  0.5180060000000 1.0
C      1  0.4603680000000  0.4816440000000  0.5627900000000 1.0
C      1  0.4592810000000  0.4365340000000  0.4811890000000 1.0
C      1  0.4443680000000  0.4866670000000  0.5183870000000 1.0
C      1  0.4476660000000  0.5163240000000  0.5142450000000 1.0
C      1  0.4531410000000  0.5118880000000  0.4830090000000 1.0
C      1  0.4483730000000  0.4809660000000  0.4891990000000 1.0
C      1  0.5558630000000  0.4876990000000  0.4818280000000 1.0
C      1  0.5562020000000  0.5174300000000  0.4866450000000 1.0
C      1  0.5553870000000  0.5137110000000  0.5165790000000 1.0
C      1  0.5551080000000  0.4820050000000  0.5131760000000 1.0
C      1  0.5538470000000  0.4543110000000  0.6036400000000 1.0
C      1  0.5526680000000  0.6034310000000  0.5466750000000 1.0
C      1  0.5542710000000  0.5471320000000  0.3963000000000 1.0
C      1  0.5516790000000  0.3967660000000  0.4534060000000 1.0
C      1  0.4458220000000  0.4561040000000  0.3965810000000 1.0
C      1  0.4476590000000  0.6042820000000  0.4544010000000 1.0
C      1  0.4450680000000  0.5463500000000  0.6019320000000 1.0
C      1  0.4472270000000  0.3959950000000  0.5472810000000 1.0
C      1  0.4303440000000  0.4766920000000  0.6058070000000 1.0
C      1  0.4272490000000  0.5974500000000  0.5153960000000 1.0
C      1  0.4292930000000  0.5245560000000  0.3964210000000 1.0
C      1  0.4265220000000  0.3977830000000  0.4777890000000 1.0
C      1  0.5706800000000  0.4774440000000  0.3954210000000 1.0
C      1  0.5712500000000  0.6040360000000  0.4785000000000 1.0
C      1  0.5704800000000  0.5222030000000  0.6040880000000 1.0
C      1  0.5712380000000  0.3962460000000  0.5222940000000 1.0
C      1  0.4003550000000  0.5126760000000  0.5462630000000 1.0
C      1  0.4054570000000  0.5298540000000  0.4792370000000 1.0
C      1  0.4076870000000  0.5028740000000  0.4652730000000 1.0
C      1  0.3994450000000  0.4556340000000  0.5195670000000 1.0
C      1  0.6010620000000  0.5170000000000  0.4527060000000 1.0
C      1  0.6001980000000  0.5447870000000  0.5167800000000 1.0
C      1  0.5998340000000  0.4843140000000  0.5449510000000 1.0
C      1  0.5995180000000  0.4558900000000  0.4843060000000 1.0
C      1  0.4725420000000  0.5602200000000  0.5674850000000 1.0
C      1  0.4734270000000  0.5669550000000  0.4391240000000 1.0
C      1  0.4718470000000  0.4416360000000  0.4327130000000 1.0
C      1  0.4735630000000  0.4327360000000  0.5609340000000 1.0
C      1  0.5272690000000  0.5602050000000  0.4325180000000 1.0
C      1  0.5261450000000  0.5671810000000  0.5601230000000 1.0
C      1  0.5271410000000  0.4398180000000  0.5676790000000 1.0
C      1  0.5256400000000  0.4334960000000  0.4400670000000 1.0
C      1  0.6125020000000  0.5101840000000  0.4765020000000 1.0
C      1  0.6103780000000  0.4791260000000  0.4945300000000 1.0
C      1  0.6096110000000  0.4924870000000  0.5202590000000 1.0
C      1  0.6106380000000  0.5202260000000  0.5093790000000 1.0
C      1  0.3896110000000  0.5060050000000  0.5211900000000 1.0
C      1  0.3911740000000  0.4801500000000  0.5084950000000 1.0
C      1  0.3937110000000  0.4826270000000  0.4800960000000 1.0
C      1  0.3876590000000  0.5270130000000  0.5019530000000 1.0
C      1  0.5917970000000  0.4333250000000  0.5377320000000 1.0
C      1  0.5913350000000  0.5379600000000  0.5673400000000 1.0
C      1  0.5922130000000  0.5673560000000  0.4626580000000 1.0
C      1  0.5911700000000  0.4619640000000  0.4325420000000 1.0
C      1  0.4073350000000  0.4360180000000  0.4632410000000 1.0
C      1  0.4074330000000  0.5424700000000  0.4314180000000 1.0
C      1  0.4069620000000  0.5614520000000  0.5337060000000 1.0
C      1  0.4091080000000  0.4610440000000  0.5692630000000 1.0
C      1  0.5796350000000  0.5137530000000  0.4343640000000 1.0
C      1  0.5790510000000  0.4360910000000  0.4864530000000 1.0
C      1  0.5792670000000  0.4865550000000  0.5645190000000 1.0
C      1  0.5796530000000  0.5643870000000  0.5141140000000 1.0
C      1  0.4214270000000  0.5118980000000  0.5653490000000 1.0
C      1  0.4198790000000  0.4360860000000  0.5152980000000 1.0
C      1  0.4226880000000  0.4937100000000  0.4406610000000 1.0
C      1  0.4222200000000  0.5554000000000  0.4809510000000 1.0
C      1  0.4862510000000  0.5070310000000  0.5981270000000 1.0
C      1  0.4866610000000  0.5976090000000  0.4935150000000 1.0
C      1  0.4878010000000  0.4933210000000  0.4004520000000 1.0
C      1  0.4858670000000  0.4016990000000  0.5069940000000 1.0
C      1  0.5151980000000  0.5069450000000  0.4008570000000 1.0
C      1  0.5141810000000  0.5976370000000  0.5064730000000 1.0
C      1  0.5139170000000  0.4937480000000  0.5979110000000 1.0
C      1  0.5132800000000  0.4020860000000  0.4937320000000 1.0
C      1  0.4473330000000  0.5359810000000  0.5570150000000 1.0
C      1  0.4474650000000  0.5543710000000  0.4615160000000 1.0
C      1  0.4462660000000  0.4658700000000  0.4447650000000 1.0
C      1  0.4469520000000  0.4429680000000  0.5381610000000 1.0
C      1  0.5535060000000  0.5370130000000  0.4427560000000 1.0
C      1  0.5527640000000  0.5569620000000  0.5371750000000 1.0
C      1  0.5530580000000  0.4631350000000  0.5570240000000 1.0
C      1  0.5523910000000  0.4435110000000  0.4631070000000 1.0
C      1  0.5821310000000  0.5117070000000  0.5796350000000 1.0
C      1  0.5828910000000  0.5795260000000  0.4889580000000 1.0
C      1  0.5823020000000  0.4881780000000  0.4198240000000 1.0
C      1  0.5823980000000  0.4208510000000  0.5115760000000 1.0
C      1  0.4171000000000  0.5155770000000  0.4211330000000 1.0
C      1  0.4162800000000  0.5717240000000  0.5063960000000 1.0
C      1  0.4187750000000  0.4872360000000  0.5813840000000 1.0
C      1  0.4160940000000  0.4224800000000  0.4891880000000 1.0
C      1  0.4733330000000  0.5335810000000  0.6047000000000 1.0
C      1  0.4752190000000  0.6046020000000  0.4668920000000 1.0
C      1  0.4742950000000  0.4672810000000  0.3939300000000 1.0
C      1  0.4747400000000  0.3949800000000  0.5339530000000 1.0
C      1  0.5266500000000  0.5339410000000  0.3944300000000 1.0
C      1  0.5251450000000  0.6047080000000  0.5333720000000 1.0
C      1  0.5260150000000  0.4671570000000  0.6050890000000 1.0
C      1  0.5240710000000  0.3956600000000  0.4665810000000 1.0
C      1  0.5169390000000  0.4430340000000  0.4140550000000 1.0
C      1  0.5183100000000  0.4140870000000  0.5577710000000 1.0
C      1  0.5174160000000  0.5575720000000  0.5860330000000 1.0
C      1  0.5182120000000  0.5856850000000  0.4428380000000 1.0
C      1  0.4826610000000  0.4424410000000  0.5866800000000 1.0
C      1  0.4802980000000  0.4156550000000  0.4429440000000 1.0
C      1  0.4827210000000  0.5577340000000  0.4132200000000 1.0
C      1  0.4807890000000  0.5855680000000  0.5562930000000 1.0
C      1  0.5775010000000  0.5626550000000  0.5780670000000 1.0
C      1  0.5784350000000  0.5782060000000  0.4379110000000 1.0
C      1  0.5770600000000  0.4372530000000  0.4220330000000 1.0
C      1  0.5783140000000  0.4225410000000  0.5626440000000 1.0
C      1  0.4227190000000  0.5659700000000  0.4209810000000 1.0
C      1  0.4200300000000  0.5745810000000  0.5579940000000 1.0
C      1  0.4229120000000  0.4363160000000  0.5797100000000 1.0
C      1  0.4205330000000  0.4253780000000  0.4380670000000 1.0
C      1  0.5510820000000  0.4711140000000  0.4606280000000 1.0
C      1  0.5508540000000  0.4607190000000  0.5294830000000 1.0
C      1  0.5508840000000  0.5292750000000  0.5386380000000 1.0
C      1  0.5518390000000  0.5391020000000  0.4704280000000 1.0
C      1  0.4488430000000  0.4705670000000  0.5401510000000 1.0
C      1  0.4490110000000  0.4605330000000  0.4716020000000 1.0
C      1  0.4539230000000  0.5270540000000  0.4604090000000 1.0
C      1  0.4499830000000  0.5383690000000  0.5296620000000 1.0
C      1  0.4768180000000  0.5021590000000  0.5706820000000 1.0
C      1  0.4768760000000  0.5701810000000  0.4977970000000 1.0
C      1  0.4787960000000  0.4970990000000  0.4281220000000 1.0
C      1  0.4756190000000  0.4287650000000  0.5019520000000 1.0
C      1  0.5246710000000  0.5023330000000  0.4284410000000 1.0
C      1  0.5243010000000  0.5704450000000  0.5018040000000 1.0
C      1  0.5234620000000  0.4977740000000  0.5702500000000 1.0
C      1  0.5234340000000  0.4292100000000  0.4986880000000 1.0
C      1  0.5123430000000  0.4816900000000  0.5496820000000 1.0
C      1  0.5132590000000  0.5495470000000  0.5174440000000 1.0
C      1  0.5135840000000  0.5180590000000  0.4492390000000 1.0
C      1  0.5128020000000  0.4503120000000  0.4831380000000 1.0
C      1  0.4893030000000  0.4813940000000  0.4490710000000 1.0
C      1  0.4884540000000  0.5499140000000  0.4817840000000 1.0
C      1  0.4879040000000  0.5177520000000  0.5498340000000 1.0
C      1  0.4862960000000  0.4499000000000  0.5175610000000 1.0
C      1  0.4337490000000  0.5976670000000  0.5441920000000 1.0
C      1  0.4365930000000  0.5529510000000  0.3975720000000 1.0
C      1  0.4336210000000  0.4006860000000  0.4494490000000 1.0
C      1  0.4369490000000  0.4482230000000  0.6035360000000 1.0
C      1  0.5643420000000  0.6018680000000  0.4500930000000 1.0
C      1  0.5636210000000  0.5505920000000  0.6018680000000 1.0
C      1  0.5645560000000  0.3985020000000  0.5507670000000 1.0
C      1  0.5633310000000  0.4492000000000  0.3980640000000 1.0
C      1  0.4639030000000  0.4415020000000  0.6073780000000 1.0
C      1  0.4600740000000  0.6039990000000  0.5520200000000 1.0
C      1  0.4636100000000  0.5588630000000  0.3928400000000 1.0
C      1  0.4604870000000  0.3958420000000  0.4427150000000 1.0
C      1  0.5363460000000  0.4426900000000  0.3939010000000 1.0
C      1  0.5374170000000  0.6060200000000  0.4433080000000 1.0
C      1  0.5367810000000  0.5574730000000  0.6061890000000 1.0
C      1  0.5377280000000  0.3939520000000  0.5577090000000 1.0
C      1  0.4289920000000  0.4397070000000  0.4129060000000 1.0
C      1  0.4310950000000  0.4113900000000  0.5650990000000 1.0
C      1  0.4281760000000  0.5628430000000  0.5851390000000 1.0
C      1  0.4314090000000  0.5898450000000  0.4363140000000 1.0
C      1  0.5701540000000  0.4368140000000  0.5879090000000 1.0
C      1  0.5683570000000  0.4122480000000  0.4361960000000 1.0
C      1  0.5704080000000  0.5643540000000  0.4124370000000 1.0
C      1  0.5691170000000  0.5878350000000  0.5640160000000 1.0
C      1  0.4994560000000  0.4691900000000  0.5301620000000 1.0
C      1  0.5017570000000  0.5306730000000  0.4692970000000 1.0
C      1  0.5006300000000  0.4697620000000  0.4699640000000 1.0
C      1  0.5005480000000  0.5300260000000  0.5300530000000 1.0
END
