TITL C-3201379-3821-1287 -5.48739106976063e-07 125000 -1149.82589547122 0 0 184 (C2) n - 1
REM
REM in /home/nfs/bkarasulu/CARBON/AIRSS/Generating-Clusters/LCBOP/Higher-Symm/SD-CG/FIRE-CG
REM
REM
REM
REM
REM
REM ./C.cell (b20cbc046b6831c77cfcea5457e17084)
REM AIRSS Version 0.9.1 bugfix July 2018 build 013d7b7c2542+ Fri, 06 Jul 2018 19:26:36 +0100
REM compiler GCC version 9.2.1 20190827 (Red Hat 9.2.1-1)
REM options -cpp -mtune=generic -march=x86-64 -g -O0 -fpre-include=/usr/include/finclude/math-vector-fortran.h
REM seed -1138735658 331710427 -863071051 473645416 -1472591125 1827606950 -345444758 -223037015 782833486 -2092432876 -2078692711 -802440613 -1010131830 281229003 2121412491 1817161221 2120508086 -1705870689 1687446885 -434964058 -1117668791 -1085931686 -2116175237 -757367448 -1227359212 -2036063607 -1710221138 -113023764 32267581 891230204 -1502221336 2124852657 -679811720
REM
CELL 1.54180   50.00000   50.00000   50.00000   90.00000   90.00000   90.00000
LATT -1
SFAC C  
C      1  0.5073460000000  0.6123060000000  0.5830270000000 1.0
C      1  0.5077370000000  0.3884690000000  0.4162420000000 1.0
C      1  0.4926520000000  0.6123040000000  0.4169710000000 1.0
C      1  0.4922650000000  0.3884720000000  0.5837610000000 1.0
C      1  0.5506360000000  0.5401150000000  0.5333930000000 1.0
C      1  0.5507810000000  0.4594620000000  0.4670170000000 1.0
C      1  0.4493640000000  0.5401140000000  0.4666060000000 1.0
C      1  0.4492190000000  0.4594620000000  0.5329840000000 1.0
C      1  0.5076050000000  0.5335420000000  0.5116630000000 1.0
C      1  0.5076860000000  0.4661160000000  0.4884110000000 1.0
C      1  0.4923950000000  0.5335420000000  0.4883360000000 1.0
C      1  0.4923150000000  0.4661160000000  0.5115900000000 1.0
C      1  0.5410780000000  0.3713960000000  0.4465740000000 1.0
C      1  0.5402200000000  0.6293810000000  0.5521930000000 1.0
C      1  0.4589250000000  0.3713960000000  0.5534300000000 1.0
C      1  0.4597780000000  0.6293790000000  0.4478040000000 1.0
C      1  0.4584130000000  0.6138150000000  0.5695100000000 1.0
C      1  0.4588990000000  0.3863770000000  0.4298400000000 1.0
C      1  0.5415850000000  0.6138140000000  0.4304870000000 1.0
C      1  0.5411030000000  0.3863800000000  0.5701630000000 1.0
C      1  0.4979980000000  0.4286740000000  0.5366140000000 1.0
C      1  0.4982780000000  0.5711610000000  0.4635440000000 1.0
C      1  0.5020030000000  0.4286730000000  0.4633880000000 1.0
C      1  0.5017200000000  0.5711620000000  0.5364540000000 1.0
C      1  0.4890780000000  0.4912310000000  0.5228760000000 1.0
C      1  0.4892010000000  0.5084260000000  0.4770060000000 1.0
C      1  0.5109220000000  0.4912310000000  0.4771240000000 1.0
C      1  0.5107990000000  0.5084270000000  0.5229930000000 1.0
C      1  0.4827610000000  0.3871080000000  0.4792640000000 1.0
C      1  0.4821510000000  0.6125280000000  0.5201960000000 1.0
C      1  0.5172410000000  0.3871090000000  0.5207390000000 1.0
C      1  0.5178470000000  0.6125280000000  0.4798010000000 1.0
C      1  0.5152090000000  0.5602500000000  0.3904630000000 1.0
C      1  0.5153720000000  0.4410950000000  0.6097700000000 1.0
C      1  0.4847900000000  0.5602530000000  0.6095350000000 1.0
C      1  0.4846290000000  0.4410910000000  0.3902310000000 1.0
C      1  0.5630240000000  0.5941010000000  0.4301770000000 1.0
C      1  0.5627580000000  0.4058210000000  0.5701910000000 1.0
C      1  0.4369740000000  0.5941020000000  0.5698200000000 1.0
C      1  0.4372440000000  0.4058180000000  0.4298120000000 1.0
C      1  0.4864200000000  0.5583480000000  0.3930500000000 1.0
C      1  0.4866210000000  0.4428570000000  0.6080680000000 1.0
C      1  0.5135790000000  0.5583510000000  0.6069480000000 1.0
C      1  0.5133800000000  0.4428540000000  0.3919330000000 1.0
C      1  0.4979630000000  0.3995920000000  0.5375260000000 1.0
C      1  0.4984480000000  0.6002770000000  0.4629780000000 1.0
C      1  0.5020380000000  0.3995910000000  0.4624770000000 1.0
C      1  0.5015500000000  0.6002780000000  0.5370200000000 1.0
C      1  0.6257570000000  0.4849010000000  0.4699810000000 1.0
C      1  0.6257870000000  0.5146200000000  0.5301280000000 1.0
C      1  0.3742430000000  0.4849000000000  0.5300200000000 1.0
C      1  0.3742130000000  0.5146170000000  0.4698710000000 1.0
C      1  0.5475380000000  0.4893180000000  0.5395100000000 1.0
C      1  0.5477000000000  0.5102790000000  0.4607940000000 1.0
C      1  0.4524620000000  0.4893170000000  0.4604900000000 1.0
C      1  0.4523000000000  0.5102790000000  0.5392060000000 1.0
C      1  0.4711730000000  0.6070740000000  0.3985170000000 1.0
C      1  0.4711320000000  0.3939750000000  0.6025030000000 1.0
C      1  0.5288260000000  0.6070770000000  0.6014800000000 1.0
C      1  0.5288700000000  0.3939730000000  0.3975000000000 1.0
C      1  0.4654530000000  0.4006800000000  0.4951640000000 1.0
C      1  0.4648780000000  0.5987900000000  0.5044290000000 1.0
C      1  0.5345490000000  0.4006810000000  0.5048380000000 1.0
C      1  0.5351200000000  0.5987900000000  0.4955680000000 1.0
C      1  0.5460990000000  0.5406370000000  0.4587850000000 1.0
C      1  0.5460190000000  0.4590020000000  0.5414090000000 1.0
C      1  0.4539000000000  0.5406380000000  0.5412140000000 1.0
C      1  0.4539820000000  0.4590000000000  0.4585920000000 1.0
C      1  0.4747290000000  0.4411300000000  0.4700630000000 1.0
C      1  0.4745640000000  0.5585410000000  0.5296960000000 1.0
C      1  0.5252720000000  0.4411310000000  0.5299390000000 1.0
C      1  0.5254350000000  0.5585410000000  0.4703020000000 1.0
C      1  0.4718280000000  0.4196090000000  0.6135480000000 1.0
C      1  0.4710570000000  0.5811970000000  0.3880010000000 1.0
C      1  0.5281730000000  0.4196060000000  0.3864550000000 1.0
C      1  0.5289410000000  0.5812000000000  0.6119970000000 1.0
C      1  0.5824750000000  0.4682460000000  0.6003000000000 1.0
C      1  0.5813710000000  0.5308710000000  0.3999630000000 1.0
C      1  0.4175250000000  0.4682420000000  0.3997010000000 1.0
C      1  0.4186280000000  0.5308730000000  0.6000360000000 1.0
C      1  0.4423680000000  0.6331840000000  0.4272040000000 1.0
C      1  0.4416230000000  0.3681620000000  0.5742140000000 1.0
C      1  0.5576300000000  0.6331870000000  0.5727920000000 1.0
C      1  0.5583790000000  0.3681610000000  0.4257890000000 1.0
C      1  0.5524460000000  0.3786520000000  0.4013510000000 1.0
C      1  0.5520700000000  0.6228490000000  0.5973870000000 1.0
C      1  0.4475560000000  0.3786530000000  0.5986520000000 1.0
C      1  0.4479270000000  0.6228450000000  0.4026090000000 1.0
C      1  0.4425450000000  0.5805570000000  0.5946280000000 1.0
C      1  0.4427500000000  0.4198730000000  0.4052820000000 1.0
C      1  0.5574540000000  0.5805550000000  0.4053700000000 1.0
C      1  0.5572510000000  0.4198770000000  0.5947200000000 1.0
C      1  0.5932840000000  0.5381110000000  0.4678200000000 1.0
C      1  0.5933240000000  0.4613840000000  0.5323330000000 1.0
C      1  0.4067150000000  0.5381100000000  0.5321790000000 1.0
C      1  0.4066770000000  0.4613810000000  0.4676680000000 1.0
C      1  0.5155950000000  0.5139330000000  0.3783280000000 1.0
C      1  0.5185700000000  0.4869140000000  0.6237910000000 1.0
C      1  0.4844050000000  0.5139360000000  0.6216710000000 1.0
C      1  0.4814300000000  0.4869100000000  0.3762100000000 1.0
C      1  0.5164250000000  0.3849890000000  0.4434440000000 1.0
C      1  0.5158270000000  0.6154100000000  0.5557090000000 1.0
C      1  0.4835770000000  0.3849900000000  0.5565590000000 1.0
C      1  0.4841710000000  0.6154090000000  0.4442880000000 1.0
C      1  0.4751280000000  0.4440260000000  0.5221190000000 1.0
C      1  0.4752450000000  0.5556180000000  0.4776500000000 1.0
C      1  0.5248730000000  0.4440250000000  0.4778820000000 1.0
C      1  0.5247540000000  0.5556190000000  0.5223490000000 1.0
C      1  0.5989850000000  0.5294270000000  0.4198860000000 1.0
C      1  0.5999020000000  0.4695360000000  0.5802260000000 1.0
C      1  0.4010150000000  0.5294270000000  0.5801130000000 1.0
C      1  0.4000990000000  0.4695320000000  0.4197750000000 1.0
C      1  0.6116680000000  0.5127770000000  0.5060210000000 1.0
C      1  0.6116930000000  0.4867460000000  0.4941210000000 1.0
C      1  0.3883320000000  0.5127740000000  0.4939790000000 1.0
C      1  0.3883080000000  0.4867440000000  0.5058800000000 1.0
C      1  0.3922560000000  0.5251290000000  0.5536580000000 1.0
C      1  0.3918580000000  0.4741270000000  0.4463160000000 1.0
C      1  0.6077440000000  0.5251300000000  0.4463410000000 1.0
C      1  0.6081430000000  0.4741300000000  0.5536850000000 1.0
C      1  0.5405810000000  0.4752350000000  0.4209330000000 1.0
C      1  0.5403900000000  0.5240400000000  0.5796490000000 1.0
C      1  0.4594190000000  0.4752360000000  0.5790680000000 1.0
C      1  0.4596090000000  0.5240370000000  0.4203510000000 1.0
C      1  0.4867010000000  0.5130920000000  0.3813330000000 1.0
C      1  0.4781020000000  0.4872980000000  0.6216090000000 1.0
C      1  0.5132990000000  0.5130960000000  0.6186670000000 1.0
C      1  0.5218980000000  0.4872950000000  0.3783910000000 1.0
C      1  0.5193270000000  0.3942670000000  0.5880290000000 1.0
C      1  0.5197050000000  0.6065590000000  0.4124290000000 1.0
C      1  0.4806750000000  0.3942650000000  0.4119740000000 1.0
C      1  0.4802930000000  0.6065610000000  0.5875680000000 1.0
C      1  0.4065760000000  0.5323180000000  0.5035740000000 1.0
C      1  0.4064730000000  0.4671630000000  0.4962310000000 1.0
C      1  0.5934230000000  0.5323200000000  0.4964250000000 1.0
C      1  0.5935270000000  0.4671650000000  0.5037700000000 1.0
C      1  0.4703850000000  0.5832420000000  0.6022770000000 1.0
C      1  0.4706790000000  0.4177860000000  0.3976650000000 1.0
C      1  0.5296130000000  0.5832400000000  0.3977210000000 1.0
C      1  0.5293230000000  0.4177890000000  0.6023370000000 1.0
C      1  0.5329760000000  0.4290140000000  0.5035510000000 1.0
C      1  0.5332020000000  0.5704910000000  0.4967240000000 1.0
C      1  0.4670250000000  0.4290140000000  0.4964500000000 1.0
C      1  0.4667970000000  0.5704900000000  0.5032740000000 1.0
C      1  0.4635720000000  0.4978690000000  0.4857900000000 1.0
C      1  0.4635260000000  0.5018190000000  0.5139260000000 1.0
C      1  0.5364280000000  0.4978700000000  0.5142100000000 1.0
C      1  0.5364740000000  0.5018190000000  0.4860740000000 1.0
C      1  0.5591020000000  0.4651580000000  0.6126570000000 1.0
C      1  0.5580620000000  0.5343020000000  0.3875370000000 1.0
C      1  0.4408990000000  0.4651540000000  0.3873440000000 1.0
C      1  0.4419370000000  0.5343040000000  0.6124630000000 1.0
C      1  0.4059680000000  0.5962770000000  0.5333290000000 1.0
C      1  0.4064160000000  0.4031300000000  0.4664600000000 1.0
C      1  0.5940310000000  0.5962780000000  0.4666690000000 1.0
C      1  0.5935860000000  0.4031320000000  0.5335430000000 1.0
C      1  0.4752100000000  0.5324760000000  0.3980880000000 1.0
C      1  0.4734000000000  0.4676120000000  0.6026570000000 1.0
C      1  0.5247900000000  0.5324790000000  0.6019110000000 1.0
C      1  0.5266010000000  0.4676100000000  0.3973440000000 1.0
C      1  0.4262400000000  0.5411070000000  0.4844430000000 1.0
C      1  0.4261270000000  0.4582990000000  0.5152590000000 1.0
C      1  0.5737590000000  0.5411090000000  0.5155560000000 1.0
C      1  0.5738740000000  0.4583000000000  0.4847420000000 1.0
C      1  0.4239420000000  0.4179220000000  0.4514210000000 1.0
C      1  0.4237060000000  0.5817060000000  0.5483500000000 1.0
C      1  0.5760600000000  0.4179250000000  0.5485810000000 1.0
C      1  0.5762930000000  0.5817060000000  0.4516480000000 1.0
C      1  0.4509710000000  0.5168540000000  0.4466970000000 1.0
C      1  0.4507780000000  0.4826540000000  0.5528550000000 1.0
C      1  0.5490280000000  0.5168560000000  0.5533030000000 1.0
C      1  0.5492220000000  0.4826530000000  0.4471450000000 1.0
C      1  0.5716460000000  0.4454920000000  0.5420290000000 1.0
C      1  0.5717170000000  0.5541570000000  0.4581540000000 1.0
C      1  0.4283550000000  0.4454900000000  0.4579720000000 1.0
C      1  0.4282820000000  0.5541570000000  0.5418450000000 1.0
C      1  0.6256360000000  0.4955140000000  0.5489470000000 1.0
C      1  0.6254020000000  0.5038780000000  0.4510330000000 1.0
C      1  0.3743650000000  0.4955100000000  0.4510530000000 1.0
C      1  0.3745980000000  0.5038770000000  0.5489660000000 1.0
C      1  0.5303270000000  0.5367640000000  0.3840190000000 1.0
C      1  0.5313010000000  0.4637890000000  0.6165270000000 1.0
C      1  0.4696720000000  0.5367670000000  0.6159810000000 1.0
C      1  0.4687000000000  0.4637850000000  0.3834730000000 1.0
END
