TITL C-3201378-2706-2074 144026.876338808 125000 -1040.44208709992 0 0 184 (C3) n - 1
REM
REM in /home/nfs/bkarasulu/CARBON/AIRSS/Generating-Clusters/LCBOP/Higher-Symm/SD-CG/FIRE-CG
REM
REM
REM
REM
REM
REM ./C.cell (b20cbc046b6831c77cfcea5457e17084)
REM AIRSS Version 0.9.1 bugfix July 2018 build 013d7b7c2542+ Fri, 06 Jul 2018 19:26:36 +0100
REM compiler GCC version 9.2.1 20190827 (Red Hat 9.2.1-1)
REM options -cpp -mtune=generic -march=x86-64 -g -O0 -fpre-include=/usr/include/finclude/math-vector-fortran.h
REM seed 1312843455 -37673808 -855771076 -1079471565 1607995221 272569169 167946260 -1023463473 202568983 -1537720071 962621107 -1397516098 -800610035 595471183 1929725220 -407791490 -352300869 859398191 742426000 -1795799174 1634325069 1019491565 -372377445 1734597919 -1730600028 -355827494 1502304208 -442040941 1490218479 47059990 -194081118 -742416882 -2145680742
REM
CELL 1.54180   50.00000   50.00000   50.00000   90.00000   90.00000   90.00000
LATT -1
SFAC C  
C      1  0.5514990000000  0.4777760000000  0.4416430000000 1.0
C      1  0.4778970000000  0.4417680000000  0.5512810000000 1.0
C      1  0.4419520000000  0.5513210000000  0.4775780000000 1.0
C      1  0.4479950000000  0.5218590000000  0.4415650000000 1.0
C      1  0.5516590000000  0.5218840000000  0.5575970000000 1.0
C      1  0.4480770000000  0.4773930000000  0.5576250000000 1.0
C      1  0.5220430000000  0.5577320000000  0.5513670000000 1.0
C      1  0.4775300000000  0.5576840000000  0.4477520000000 1.0
C      1  0.5219480000000  0.4418140000000  0.4477440000000 1.0
C      1  0.5578110000000  0.4479360000000  0.4772120000000 1.0
C      1  0.4418510000000  0.4477730000000  0.5219390000000 1.0
C      1  0.5578840000000  0.5515000000000  0.5217550000000 1.0
C      1  0.4122940000000  0.4477520000000  0.5216920000000 1.0
C      1  0.4479490000000  0.5216740000000  0.4120050000000 1.0
C      1  0.5218100000000  0.4122580000000  0.4476290000000 1.0
C      1  0.5874410000000  0.5515030000000  0.5215310000000 1.0
C      1  0.4124050000000  0.5515360000000  0.4777290000000 1.0
C      1  0.5873730000000  0.4477230000000  0.4774690000000 1.0
C      1  0.5517980000000  0.4779340000000  0.4120940000000 1.0
C      1  0.4478620000000  0.4776790000000  0.5871780000000 1.0
C      1  0.5516640000000  0.5216570000000  0.5871520000000 1.0
C      1  0.4777890000000  0.5872430000000  0.4475650000000 1.0
C      1  0.5218160000000  0.5872900000000  0.5513670000000 1.0
C      1  0.4780480000000  0.4122140000000  0.5514760000000 1.0
C      1  0.4801110000000  0.6048900000000  0.5382980000000 1.0
C      1  0.6050520000000  0.5384490000000  0.4798290000000 1.0
C      1  0.5385900000000  0.4799620000000  0.6047730000000 1.0
C      1  0.5198150000000  0.3949690000000  0.5385220000000 1.0
C      1  0.4800280000000  0.3949730000000  0.4606100000000 1.0
C      1  0.5195890000000  0.6045920000000  0.4605480000000 1.0
C      1  0.3948930000000  0.4608020000000  0.4799050000000 1.0
C      1  0.6047220000000  0.4606790000000  0.5192760000000 1.0
C      1  0.3951590000000  0.5386640000000  0.5195100000000 1.0
C      1  0.4608540000000  0.5194770000000  0.6044780000000 1.0
C      1  0.5388800000000  0.5197020000000  0.3948340000000 1.0
C      1  0.4610640000000  0.4799800000000  0.3943960000000 1.0
C      1  0.4757740000000  0.4995830000000  0.4731470000000 1.0
C      1  0.4994180000000  0.4734860000000  0.4754070000000 1.0
C      1  0.4736060000000  0.4754970000000  0.4996360000000 1.0
C      1  0.5241540000000  0.5003350000000  0.4738180000000 1.0
C      1  0.4756680000000  0.4991640000000  0.5252990000000 1.0
C      1  0.5239440000000  0.4997540000000  0.5259340000000 1.0
C      1  0.4992940000000  0.5254450000000  0.4753600000000 1.0
C      1  0.4999770000000  0.5260180000000  0.5236580000000 1.0
C      1  0.5005970000000  0.4738720000000  0.5239220000000 1.0
C      1  0.5261680000000  0.5238220000000  0.4996220000000 1.0
C      1  0.4740660000000  0.5239700000000  0.5002200000000 1.0
C      1  0.5255340000000  0.4755590000000  0.4989090000000 1.0
C      1  0.5234670000000  0.5927470000000  0.5197070000000 1.0
C      1  0.5928940000000  0.5198420000000  0.5231760000000 1.0
C      1  0.5200040000000  0.5233210000000  0.5926090000000 1.0
C      1  0.4763410000000  0.4066480000000  0.5198660000000 1.0
C      1  0.5234710000000  0.4066810000000  0.4792510000000 1.0
C      1  0.4762190000000  0.5928380000000  0.4791860000000 1.0
C      1  0.4067860000000  0.4793990000000  0.5232770000000 1.0
C      1  0.5929980000000  0.4793390000000  0.4759170000000 1.0
C      1  0.4068720000000  0.5199140000000  0.4760670000000 1.0
C      1  0.4794830000000  0.4760840000000  0.5927650000000 1.0
C      1  0.5202000000000  0.4762330000000  0.4064780000000 1.0
C      1  0.4795840000000  0.5233670000000  0.4064580000000 1.0
C      1  0.4132420000000  0.4883690000000  0.4353360000000 1.0
C      1  0.4887620000000  0.4354410000000  0.4126330000000 1.0
C      1  0.4355220000000  0.4128970000000  0.4883980000000 1.0
C      1  0.5868260000000  0.5108690000000  0.4352770000000 1.0
C      1  0.4130360000000  0.5109430000000  0.5639360000000 1.0
C      1  0.5863530000000  0.4882820000000  0.5638120000000 1.0
C      1  0.5110580000000  0.5640690000000  0.4127190000000 1.0
C      1  0.4884660000000  0.5639750000000  0.5860790000000 1.0
C      1  0.5109810000000  0.4353780000000  0.5865310000000 1.0
C      1  0.5641190000000  0.5862210000000  0.4881640000000 1.0
C      1  0.4355530000000  0.5866350000000  0.5106880000000 1.0
C      1  0.5641820000000  0.4128720000000  0.5107420000000 1.0
C      1  0.5918210000000  0.5633310000000  0.4936510000000 1.0
C      1  0.5634740000000  0.4937690000000  0.5915300000000 1.0
C      1  0.4939320000000  0.5916690000000  0.5631870000000 1.0
C      1  0.4079280000000  0.4358750000000  0.4938320000000 1.0
C      1  0.5917280000000  0.4358230000000  0.5053080000000 1.0
C      1  0.4080460000000  0.5634920000000  0.5055020000000 1.0
C      1  0.4359840000000  0.5055220000000  0.5914990000000 1.0
C      1  0.5637140000000  0.5057210000000  0.4077510000000 1.0
C      1  0.4361460000000  0.4937850000000  0.4076180000000 1.0
C      1  0.5058370000000  0.4078640000000  0.5633950000000 1.0
C      1  0.4939870000000  0.4078860000000  0.4357350000000 1.0
C      1  0.5056320000000  0.5916040000000  0.4356780000000 1.0
C      1  0.5861720000000  0.4672650000000  0.5413850000000 1.0
C      1  0.4674380000000  0.5415820000000  0.5859230000000 1.0
C      1  0.5417210000000  0.5860640000000  0.4671310000000 1.0
C      1  0.4132380000000  0.5321720000000  0.5419880000000 1.0
C      1  0.5868640000000  0.5318370000000  0.4574270000000 1.0
C      1  0.4133430000000  0.4672970000000  0.4576500000000 1.0
C      1  0.5319600000000  0.4575520000000  0.5865970000000 1.0
C      1  0.4677150000000  0.4575730000000  0.4125760000000 1.0
C      1  0.5323220000000  0.5421520000000  0.4129220000000 1.0
C      1  0.4575390000000  0.4130380000000  0.4671400000000 1.0
C      1  0.5422930000000  0.4130540000000  0.5320160000000 1.0
C      1  0.4577110000000  0.5867040000000  0.5316720000000 1.0
C      1  0.6076540000000  0.5384530000000  0.5635970000000 1.0
C      1  0.5386410000000  0.5637300000000  0.6073650000000 1.0
C      1  0.5638840000000  0.6075040000000  0.5383330000000 1.0
C      1  0.3919480000000  0.4608050000000  0.5636720000000 1.0
C      1  0.6077180000000  0.4606600000000  0.4354770000000 1.0
C      1  0.3921270000000  0.5385860000000  0.4356640000000 1.0
C      1  0.4607710000000  0.4356420000000  0.6074590000000 1.0
C      1  0.5390100000000  0.4358520000000  0.3917860000000 1.0
C      1  0.4608720000000  0.5637280000000  0.3917020000000 1.0
C      1  0.4359690000000  0.3919160000000  0.5386030000000 1.0
C      1  0.5638330000000  0.3918920000000  0.4605640000000 1.0
C      1  0.4357790000000  0.6075550000000  0.4604940000000 1.0
C      1  0.5002660000000  0.3865200000000  0.4840910000000 1.0
C      1  0.3866040000000  0.4842710000000  0.5000980000000 1.0
C      1  0.4845110000000  0.5002410000000  0.3862210000000 1.0
C      1  0.4994580000000  0.6129980000000  0.4839820000000 1.0
C      1  0.5003300000000  0.6130240000000  0.5148330000000 1.0
C      1  0.4995690000000  0.3865130000000  0.5150100000000 1.0
C      1  0.6131780000000  0.5149720000000  0.5000420000000 1.0
C      1  0.3867090000000  0.5151440000000  0.4993120000000 1.0
C      1  0.6131510000000  0.4841180000000  0.4991600000000 1.0
C      1  0.5154000000000  0.4994880000000  0.3863350000000 1.0
C      1  0.4842870000000  0.4993370000000  0.6129010000000 1.0
C      1  0.5151360000000  0.5001970000000  0.6129050000000 1.0
C      1  0.4586180000000  0.5459610000000  0.5008250000000 1.0
C      1  0.5461200000000  0.5010010000000  0.4583270000000 1.0
C      1  0.5011370000000  0.4584420000000  0.5459090000000 1.0
C      1  0.5411150000000  0.4536470000000  0.5003320000000 1.0
C      1  0.4584340000000  0.4533690000000  0.4987320000000 1.0
C      1  0.5413810000000  0.5459120000000  0.4984340000000 1.0
C      1  0.4536160000000  0.4985600000000  0.4580500000000 1.0
C      1  0.5460650000000  0.4985630000000  0.5410990000000 1.0
C      1  0.4537610000000  0.5004990000000  0.5408900000000 1.0
C      1  0.4987300000000  0.5412260000000  0.5457580000000 1.0
C      1  0.5006740000000  0.5410160000000  0.4534430000000 1.0
C      1  0.4986800000000  0.4583680000000  0.4532310000000 1.0
C      1  0.4302460000000  0.5033950000000  0.4863230000000 1.0
C      1  0.5036580000000  0.4864940000000  0.4298540000000 1.0
C      1  0.4865680000000  0.4300090000000  0.5033330000000 1.0
C      1  0.5696710000000  0.4958710000000  0.4862240000000 1.0
C      1  0.4301040000000  0.4959400000000  0.5130310000000 1.0
C      1  0.5695350000000  0.5033390000000  0.5129030000000 1.0
C      1  0.4961660000000  0.5131580000000  0.4297560000000 1.0
C      1  0.5034830000000  0.5130520000000  0.5692660000000 1.0
C      1  0.4959980000000  0.4863780000000  0.5694090000000 1.0
C      1  0.5132030000000  0.5693980000000  0.5031950000000 1.0
C      1  0.4865270000000  0.5694970000000  0.4957120000000 1.0
C      1  0.5132520000000  0.4299620000000  0.4958450000000 1.0
C      1  0.5318010000000  0.4394940000000  0.5415460000000 1.0
C      1  0.4396920000000  0.5416440000000  0.5314690000000 1.0
C      1  0.5417920000000  0.5316230000000  0.4393890000000 1.0
C      1  0.4686970000000  0.5604470000000  0.5407540000000 1.0
C      1  0.5305220000000  0.5598800000000  0.4579840000000 1.0
C      1  0.4679980000000  0.4394950000000  0.4576300000000 1.0
C      1  0.5599750000000  0.4581420000000  0.5301580000000 1.0
C      1  0.4394730000000  0.4579830000000  0.4687190000000 1.0
C      1  0.5606130000000  0.5409120000000  0.4684150000000 1.0
C      1  0.4585540000000  0.4684930000000  0.4388330000000 1.0
C      1  0.5410400000000  0.4685250000000  0.5603410000000 1.0
C      1  0.4583000000000  0.5303550000000  0.5597450000000 1.0
C      1  0.5534690000000  0.5989670000000  0.5125780000000 1.0
C      1  0.5991140000000  0.5127000000000  0.5531750000000 1.0
C      1  0.5128820000000  0.5533250000000  0.5988250000000 1.0
C      1  0.4463370000000  0.4003480000000  0.5127930000000 1.0
C      1  0.5534360000000  0.4003470000000  0.4863510000000 1.0
C      1  0.4462140000000  0.5991110000000  0.4862470000000 1.0
C      1  0.4004710000000  0.4865520000000  0.5532360000000 1.0
C      1  0.5992860000000  0.4864150000000  0.4459210000000 1.0
C      1  0.4005950000000  0.5128000000000  0.4460640000000 1.0
C      1  0.4865360000000  0.4460620000000  0.5990180000000 1.0
C      1  0.5131990000000  0.4462080000000  0.4001810000000 1.0
C      1  0.4866640000000  0.5533460000000  0.4001640000000 1.0
C      1  0.5599210000000  0.5467370000000  0.6016410000000 1.0
C      1  0.5468990000000  0.6017770000000  0.5596180000000 1.0
C      1  0.6019280000000  0.5597440000000  0.5466190000000 1.0
C      1  0.4395300000000  0.4526270000000  0.6016450000000 1.0
C      1  0.5602030000000  0.4528820000000  0.3976620000000 1.0
C      1  0.4396220000000  0.5467380000000  0.3975320000000 1.0
C      1  0.4529780000000  0.3977690000000  0.5598300000000 1.0
C      1  0.5468720000000  0.3977770000000  0.4393070000000 1.0
C      1  0.4527400000000  0.6017170000000  0.4392430000000 1.0
C      1  0.3977680000000  0.4395060000000  0.5467450000000 1.0
C      1  0.6018520000000  0.4394030000000  0.4524220000000 1.0
C      1  0.3979500000000  0.5598410000000  0.4526490000000 1.0
C      1  0.4530730000000  0.5463430000000  0.4529540000000 1.0
C      1  0.5464640000000  0.4531640000000  0.4527630000000 1.0
C      1  0.4532510000000  0.4528850000000  0.5463920000000 1.0
C      1  0.5465540000000  0.5463960000000  0.5462670000000 1.0
END
