TITL C-3201372-1405-472 167988.823465541 125000 -718.784507980049 0 0 123 (C1) n - 1
REM
REM in /home/nfs/bkarasulu/CARBON/AIRSS/Generating-Clusters/LCBOP/Higher-Symm/SD-CG/FIRE-CG
REM
REM
REM
REM
REM
REM ./C.cell (b20cbc046b6831c77cfcea5457e17084)
REM AIRSS Version 0.9.1 bugfix July 2018 build 013d7b7c2542+ Fri, 06 Jul 2018 19:26:36 +0100
REM compiler GCC version 9.2.1 20190827 (Red Hat 9.2.1-1)
REM options -cpp -mtune=generic -march=x86-64 -g -O0 -fpre-include=/usr/include/finclude/math-vector-fortran.h
REM seed 1683684466 -346556411 -1551851023 1842768074 1743037270 -543059945 -1178911542 1026870046 746695837 -501677058 -2028421484 -1579506310 1502954300 -1542720759 1905956506 -710336291 -1337341926 216370721 -70323283 -112568431 -1606703728 499664026 601249024 736233410 1658440682 829805863 -1694015379 -1453630683 -360751392 499862406 1985629142 -1706507805 -1749016418
REM
CELL 1.54180   50.00000   50.00000   50.00000   90.00000   90.00000   90.00000
LATT -1
SFAC C  
C      1  0.4382580000000  0.4765860000000  0.4283680000000 1.0
C      1  0.4265540000000  0.5284600000000  0.4276560000000 1.0
C      1  0.5448340000000  0.4072840000000  0.4669570000000 1.0
C      1  0.5445490000000  0.5920150000000  0.4677900000000 1.0
C      1  0.4026750000000  0.5260810000000  0.4956330000000 1.0
C      1  0.4032570000000  0.4742620000000  0.4930250000000 1.0
C      1  0.5144010000000  0.5703610000000  0.4325630000000 1.0
C      1  0.5164140000000  0.4300410000000  0.4303880000000 1.0
C      1  0.4191470000000  0.4738450000000  0.5584690000000 1.0
C      1  0.4225060000000  0.5225660000000  0.5585070000000 1.0
C      1  0.5961660000000  0.5198780000000  0.4726250000000 1.0
C      1  0.5986930000000  0.4728370000000  0.4678230000000 1.0
C      1  0.4915830000000  0.5656400000000  0.5781270000000 1.0
C      1  0.4940970000000  0.4389100000000  0.5785280000000 1.0
C      1  0.4622570000000  0.4781710000000  0.5993840000000 1.0
C      1  0.4580480000000  0.5322350000000  0.6012100000000 1.0
C      1  0.5193820000000  0.5879410000000  0.4545370000000 1.0
C      1  0.5204310000000  0.4139470000000  0.4534580000000 1.0
C      1  0.5602510000000  0.4382200000000  0.5489980000000 1.0
C      1  0.5541010000000  0.5566550000000  0.5473430000000 1.0
C      1  0.5147180000000  0.5385370000000  0.5464510000000 1.0
C      1  0.5253160000000  0.4658860000000  0.5584380000000 1.0
C      1  0.4320540000000  0.4423010000000  0.4708680000000 1.0
C      1  0.4312850000000  0.5591610000000  0.4726670000000 1.0
C      1  0.5338690000000  0.4592710000000  0.5090290000000 1.0
C      1  0.5154200000000  0.5577110000000  0.4995770000000 1.0
C      1  0.5439130000000  0.5277630000000  0.4693210000000 1.0
C      1  0.5468000000000  0.4613910000000  0.4636990000000 1.0
C      1  0.6008680000000  0.4457160000000  0.5117830000000 1.0
C      1  0.5918970000000  0.5292320000000  0.5241800000000 1.0
C      1  0.5034110000000  0.4055520000000  0.4982650000000 1.0
C      1  0.5043350000000  0.6030890000000  0.4988190000000 1.0
C      1  0.5679120000000  0.4675800000000  0.5683870000000 1.0
C      1  0.5615420000000  0.5348260000000  0.5699580000000 1.0
C      1  0.4286740000000  0.4399900000000  0.5228140000000 1.0
C      1  0.4317870000000  0.5593720000000  0.5248430000000 1.0
C      1  0.4470710000000  0.5957260000000  0.5000840000000 1.0
C      1  0.4490390000000  0.4062400000000  0.4985060000000 1.0
C      1  0.4186700000000  0.5416090000000  0.4517910000000 1.0
C      1  0.4230570000000  0.4620100000000  0.4493420000000 1.0
C      1  0.4728540000000  0.4180640000000  0.5396780000000 1.0
C      1  0.4729370000000  0.5882070000000  0.5404620000000 1.0
C      1  0.5758770000000  0.4447810000000  0.5251350000000 1.0
C      1  0.5647440000000  0.5416250000000  0.5234220000000 1.0
C      1  0.5341760000000  0.4489910000000  0.6048150000000 1.0
C      1  0.5010170000000  0.5201940000000  0.5877040000000 1.0
C      1  0.4971000000000  0.4089300000000  0.4700980000000 1.0
C      1  0.4965740000000  0.5964860000000  0.4711000000000 1.0
C      1  0.4683140000000  0.5565380000000  0.5929400000000 1.0
C      1  0.4726960000000  0.4545860000000  0.5899870000000 1.0
C      1  0.5298210000000  0.5833370000000  0.5419840000000 1.0
C      1  0.5303020000000  0.4181140000000  0.5414000000000 1.0
C      1  0.4713030000000  0.5232120000000  0.4984030000000 1.0
C      1  0.4756780000000  0.4654630000000  0.5000000000000 1.0
C      1  0.5291690000000  0.5971350000000  0.5149350000000 1.0
C      1  0.5283920000000  0.4073740000000  0.5139050000000 1.0
C      1  0.5183840000000  0.4585110000000  0.5320440000000 1.0
C      1  0.5057330000000  0.5523180000000  0.5238690000000 1.0
C      1  0.4672230000000  0.4017770000000  0.4318340000000 1.0
C      1  0.4654860000000  0.6013760000000  0.4335990000000 1.0
C      1  0.5091980000000  0.5461470000000  0.4757820000000 1.0
C      1  0.5251210000000  0.4574020000000  0.4825400000000 1.0
C      1  0.4500360000000  0.5817970000000  0.5244060000000 1.0
C      1  0.4497190000000  0.4203070000000  0.5229370000000 1.0
C      1  0.5602900000000  0.4663770000000  0.5141170000000 1.0
C      1  0.5477330000000  0.5157250000000  0.5172030000000 1.0
C      1  0.4832010000000  0.5360790000000  0.4772550000000 1.0
C      1  0.4967420000000  0.4632280000000  0.4805800000000 1.0
C      1  0.4891660000000  0.4737260000000  0.4131860000000 1.0
C      1  0.4953880000000  0.5251770000000  0.4103610000000 1.0
C      1  0.4702490000000  0.5929220000000  0.4592770000000 1.0
C      1  0.4713280000000  0.4106760000000  0.4573890000000 1.0
C      1  0.4484590000000  0.5828030000000  0.4747470000000 1.0
C      1  0.4493860000000  0.4191790000000  0.4730860000000 1.0
C      1  0.4005130000000  0.4770310000000  0.4618460000000 1.0
C      1  0.3981630000000  0.5260310000000  0.4651380000000 1.0
C      1  0.5696840000000  0.5211590000000  0.4586900000000 1.0
C      1  0.5719620000000  0.4729770000000  0.4556620000000 1.0
C      1  0.5082710000000  0.5433870000000  0.5738170000000 1.0
C      1  0.5197130000000  0.4509430000000  0.5819120000000 1.0
C      1  0.5491570000000  0.4045980000000  0.4939790000000 1.0
C      1  0.5498290000000  0.5956730000000  0.4945410000000 1.0
C      1  0.5039340000000  0.4494860000000  0.4164190000000 1.0
C      1  0.5034740000000  0.5494290000000  0.4193260000000 1.0
C      1  0.4216400000000  0.5484070000000  0.4997670000000 1.0
C      1  0.4200860000000  0.4509520000000  0.4973190000000 1.0
C      1  0.4969120000000  0.4220500000000  0.5547230000000 1.0
C      1  0.4966060000000  0.5838710000000  0.5562770000000 1.0
C      1  0.6051070000000  0.5188700000000  0.5006950000000 1.0
C      1  0.6086590000000  0.4673590000000  0.4947570000000 1.0
C      1  0.4236270000000  0.5472180000000  0.5485610000000 1.0
C      1  0.4179620000000  0.4500320000000  0.5465210000000 1.0
C      1  0.5020660000000  0.4980390000000  0.4040910000000 1.0
C      1  0.6126780000000  0.4981690000000  0.4601040000000 1.0
C      1  0.4327370000000  0.4974110000000  0.5522360000000 1.0
C      1  0.3663790000000  0.4994830000000  0.4835670000000 1.0
C      1  0.3892500000000  0.4991360000000  0.5032250000000 1.0
C      1  0.6180900000000  0.4926220000000  0.5060450000000 1.0
C      1  0.4828500000000  0.4973430000000  0.5447820000000 1.0
C      1  0.4570270000000  0.5048350000000  0.6033870000000 1.0
C      1  0.6371280000000  0.5006920000000  0.4484810000000 1.0
C      1  0.5742790000000  0.5025340000000  0.5659110000000 1.0
C      1  0.4276560000000  0.5022710000000  0.4194080000000 1.0
C      1  0.5480540000000  0.4966010000000  0.4181210000000 1.0
C      1  0.5264870000000  0.5124780000000  0.5382070000000 1.0
C      1  0.4560560000000  0.4958700000000  0.5365280000000 1.0
C      1  0.4388370000000  0.4956100000000  0.4862090000000 1.0
C      1  0.3832250000000  0.5013680000000  0.4586740000000 1.0
C      1  0.5666450000000  0.4923150000000  0.5212660000000 1.0
C      1  0.4960900000000  0.4904160000000  0.4703390000000 1.0
C      1  0.4580370000000  0.4966440000000  0.5072800000000 1.0
C      1  0.5020640000000  0.5015730000000  0.5218410000000 1.0
C      1  0.4672930000000  0.4778540000000  0.4302860000000 1.0
C      1  0.5354790000000  0.5137540000000  0.4907040000000 1.0
C      1  0.5700290000000  0.4981060000000  0.4372990000000 1.0
C      1  0.4740240000000  0.4943140000000  0.4528450000000 1.0
C      1  0.5246950000000  0.4934330000000  0.5612840000000 1.0
C      1  0.4495930000000  0.5040560000000  0.4630950000000 1.0
C      1  0.5939860000000  0.5010920000000  0.4183190000000 1.0
C      1  0.4970270000000  0.4987350000000  0.5701560000000 1.0
C      1  0.5854780000000  0.5042810000000  0.5399360000000 1.0
C      1  0.5294600000000  0.4948380000000  0.3993780000000 1.0
C      1  0.5091380000000  0.5035850000000  0.4930540000000 1.0
END
