TITL C-3201373-1215-1549 -1.90372892334478e-07 125000 -496.58427278253 0 0 80 (C3) n - 1
REM
REM in /home/nfs/bkarasulu/CARBON/AIRSS/Generating-Clusters/LCBOP/Higher-Symm/SD-CG/FIRE-CG
REM
REM
REM
REM
REM
REM ./C.cell (b20cbc046b6831c77cfcea5457e17084)
REM AIRSS Version 0.9.1 bugfix July 2018 build 013d7b7c2542+ Fri, 06 Jul 2018 19:26:36 +0100
REM compiler GCC version 9.2.1 20190827 (Red Hat 9.2.1-1)
REM options -cpp -mtune=generic -march=x86-64 -g -O0 -fpre-include=/usr/include/finclude/math-vector-fortran.h
REM seed 1216733251 1079106237 1112285134 -1186020010 1575267879 -498094761 1035952831 -698158279 -1624756366 -320947472 1876798747 1820113493 1826444285 709928516 397857618 -1496136282 781119502 2111209132 -15429741 626937347 1127484565 -1364391175 -728984756 948720022 -378222629 1672639492 -1224590877 -726882035 -1499972412 871824543 2113145587 548615656 -1496449756
REM
CELL 1.54180   50.00000   50.00000   50.00000   90.00000   90.00000   90.00000
LATT -1
SFAC C  
C      1  0.5297900000000  0.4533180000000  0.4474730000000 1.0
C      1  0.4430050000000  0.4969590000000  0.4474890000000 1.0
C      1  0.5241920000000  0.5502960000000  0.4474740000000 1.0
C      1  0.5271260000000  0.5021320000000  0.4346190000000 1.0
C      1  0.4866080000000  0.4748570000000  0.4346260000000 1.0
C      1  0.4832460000000  0.5235840000000  0.4346270000000 1.0
C      1  0.5662450000000  0.5744970000000  0.5567850000000 1.0
C      1  0.5297520000000  0.4048170000000  0.5567920000000 1.0
C      1  0.4010510000000  0.5212600000000  0.5568160000000 1.0
C      1  0.5253230000000  0.3917860000000  0.5334070000000 1.0
C      1  0.3919750000000  0.5316070000000  0.5334310000000 1.0
C      1  0.5797370000000  0.5771800000000  0.5333960000000 1.0
C      1  0.5577100000000  0.5182230000000  0.4669790000000 1.0
C      1  0.4852600000000  0.4403300000000  0.4669930000000 1.0
C      1  0.4540280000000  0.5420200000000  0.4669980000000 1.0
C      1  0.4848640000000  0.5265950000000  0.5418500000000 1.0
C      1  0.5289550000000  0.4992430000000  0.5418420000000 1.0
C      1  0.4832210000000  0.4747350000000  0.5418510000000 1.0
C      1  0.3933790000000  0.5240640000000  0.5058580000000 1.0
C      1  0.5724950000000  0.5797310000000  0.5058240000000 1.0
C      1  0.5311460000000  0.3967780000000  0.5058330000000 1.0
C      1  0.5469790000000  0.4330360000000  0.4571430000000 1.0
C      1  0.4168490000000  0.4922150000000  0.4571670000000 1.0
C      1  0.5331640000000  0.5753210000000  0.4571450000000 1.0
C      1  0.5396970000000  0.5774310000000  0.5622570000000 1.0
C      1  0.5455690000000  0.4263420000000  0.5622560000000 1.0
C      1  0.4117860000000  0.4968010000000  0.5622810000000 1.0
C      1  0.5397880000000  0.5265800000000  0.4452150000000 1.0
C      1  0.5014520000000  0.4516680000000  0.4452230000000 1.0
C      1  0.4557450000000  0.5223240000000  0.4452310000000 1.0
C      1  0.5676710000000  0.4624590000000  0.5318970000000 1.0
C      1  0.4320040000000  0.4595960000000  0.5319220000000 1.0
C      1  0.4973580000000  0.5785190000000  0.5319090000000 1.0
C      1  0.4514180000000  0.5028070000000  0.4978490000000 1.0
C      1  0.5250640000000  0.5400950000000  0.4978350000000 1.0
C      1  0.5205330000000  0.4576720000000  0.4978370000000 1.0
C      1  0.4443050000000  0.5186480000000  0.5184070000000 1.0
C      1  0.5423450000000  0.5383380000000  0.5183880000000 1.0
C      1  0.5103770000000  0.4435880000000  0.5183950000000 1.0
C      1  0.4912670000000  0.4149310000000  0.4768750000000 1.0
C      1  0.4290300000000  0.5495190000000  0.4768860000000 1.0
C      1  0.5767050000000  0.5361230000000  0.4768590000000 1.0
C      1  0.5218970000000  0.5886030000000  0.5433120000000 1.0
C      1  0.5641380000000  0.4361680000000  0.5433050000000 1.0
C      1  0.4110050000000  0.4758030000000  0.5433330000000 1.0
C      1  0.4033790000000  0.4806470000000  0.4791660000000 1.0
C      1  0.5298870000000  0.5927750000000  0.4791420000000 1.0
C      1  0.5637380000000  0.4271510000000  0.4791360000000 1.0
C      1  0.4217410000000  0.4439590000000  0.5096900000000 1.0
C      1  0.4889420000000  0.5952220000000  0.5096770000000 1.0
C      1  0.5863390000000  0.4613930000000  0.5096590000000 1.0
C      1  0.3891920000000  0.4799000000000  0.5247570000000 1.0
C      1  0.5363470000000  0.6054420000000  0.5247290000000 1.0
C      1  0.5714920000000  0.4152310000000  0.5247230000000 1.0
C      1  0.4059240000000  0.5416850000000  0.4879010000000 1.0
C      1  0.5814780000000  0.5600520000000  0.4878680000000 1.0
C      1  0.5096070000000  0.3988350000000  0.4878820000000 1.0
C      1  0.4616710000000  0.4757870000000  0.4496530000000 1.0
C      1  0.4965240000000  0.5447180000000  0.4496470000000 1.0
C      1  0.5387930000000  0.4800680000000  0.4496390000000 1.0
C      1  0.4921740000000  0.5504800000000  0.5268250000000 1.0
C      1  0.5459800000000  0.4809670000000  0.5268160000000 1.0
C      1  0.4588770000000  0.4691260000000  0.5268320000000 1.0
C      1  0.4992230000000  0.4513190000000  0.5416420000000 1.0
C      1  0.4565840000000  0.5244460000000  0.5416490000000 1.0
C      1  0.5412330000000  0.5248090000000  0.5416330000000 1.0
C      1  0.5566590000000  0.4094170000000  0.5007950000000 1.0
C      1  0.3915660000000  0.4956490000000  0.5008250000000 1.0
C      1  0.5487920000000  0.5955070000000  0.5007960000000 1.0
C      1  0.4970940000000  0.5449460000000  0.4984980000000 1.0
C      1  0.5387200000000  0.4794690000000  0.4984900000000 1.0
C      1  0.4612020000000  0.4761580000000  0.4985050000000 1.0
C      1  0.4816350000000  0.5483090000000  0.4748610000000 1.0
C      1  0.5493550000000  0.4911710000000  0.4748490000000 1.0
C      1  0.4660120000000  0.4610930000000  0.4748650000000 1.0
C      1  0.5835890000000  0.4465410000000  0.4868620000000 1.0
C      1  0.4102470000000  0.4537620000000  0.4868940000000 1.0
C      1  0.5031720000000  0.6002700000000  0.4868760000000 1.0
C      1  0.4989920000000  0.5001910000000  0.4293570000000 1.0
C      1  0.4990140000000  0.5001910000000  0.5435540000000 1.0
END
