TITL C-3201376-6384-717 2.22711336268684e-07 125000 -929.822100276012 0 0 149 (C1) n - 1
REM
REM in /home/nfs/bkarasulu/CARBON/AIRSS/Generating-Clusters/LCBOP/Higher-Symm/SD-CG/FIRE-CG
REM
REM
REM
REM
REM
REM ./C.cell (b20cbc046b6831c77cfcea5457e17084)
REM AIRSS Version 0.9.1 bugfix July 2018 build 013d7b7c2542+ Fri, 06 Jul 2018 19:26:36 +0100
REM compiler GCC version 9.2.1 20190827 (Red Hat 9.2.1-1)
REM options -cpp -mtune=generic -march=x86-64 -g -O0 -fpre-include=/usr/include/finclude/math-vector-fortran.h
REM seed 1847550237 1711899737 -1708074662 -208368167 1768125851 -555566088 -1872359087 -1544636979 -1192990939 317408726 -493282979 98933033 818696281 -2006840479 296834511 2046544663 714225453 -215738704 -1404420161 529728682 1269342331 757805712 1018590804 -1961791793 -2109302769 552091336 -768135370 -276795565 1643955807 973143002 -1981957981 879966878 -2045319724
REM
CELL 1.54180   50.00000   50.00000   50.00000   90.00000   90.00000   90.00000
LATT -1
SFAC C  
C      1  0.4573950000000  0.4486760000000  0.4706990000000 1.0
C      1  0.4355300000000  0.5422060000000  0.4682680000000 1.0
C      1  0.4296620000000  0.5236980000000  0.4076770000000 1.0
C      1  0.3890040000000  0.4626430000000  0.4081940000000 1.0
C      1  0.5576810000000  0.6032520000000  0.4912990000000 1.0
C      1  0.5574460000000  0.4043020000000  0.4956300000000 1.0
C      1  0.4287810000000  0.5100110000000  0.5070040000000 1.0
C      1  0.4285190000000  0.4822580000000  0.5048160000000 1.0
C      1  0.5022960000000  0.5241240000000  0.4560700000000 1.0
C      1  0.4943980000000  0.4708140000000  0.4503960000000 1.0
C      1  0.4655400000000  0.5815690000000  0.4500510000000 1.0
C      1  0.4673830000000  0.4077970000000  0.4462710000000 1.0
C      1  0.5059120000000  0.5632700000000  0.5559240000000 1.0
C      1  0.4988530000000  0.4316150000000  0.5640610000000 1.0
C      1  0.5418000000000  0.4754260000000  0.5689140000000 1.0
C      1  0.5450640000000  0.5292440000000  0.5753460000000 1.0
C      1  0.5019320000000  0.4756370000000  0.6303360000000 1.0
C      1  0.5028030000000  0.5270460000000  0.6319120000000 1.0
C      1  0.4341860000000  0.4487080000000  0.4143230000000 1.0
C      1  0.4801530000000  0.5619850000000  0.4363740000000 1.0
C      1  0.5156760000000  0.4271220000000  0.4298230000000 1.0
C      1  0.5223470000000  0.5819630000000  0.4291390000000 1.0
C      1  0.4496560000000  0.4695770000000  0.4892660000000 1.0
C      1  0.4458720000000  0.5241200000000  0.4888000000000 1.0
C      1  0.5103580000000  0.5660360000000  0.4759030000000 1.0
C      1  0.5084250000000  0.4381680000000  0.4831170000000 1.0
C      1  0.5874970000000  0.4832820000000  0.6054760000000 1.0
C      1  0.5891670000000  0.5112570000000  0.6074420000000 1.0
C      1  0.4727370000000  0.4836170000000  0.4996630000000 1.0
C      1  0.4728000000000  0.5128670000000  0.4902600000000 1.0
C      1  0.5287240000000  0.4712830000000  0.4065200000000 1.0
C      1  0.5254320000000  0.5307270000000  0.4128370000000 1.0
C      1  0.5721860000000  0.4745420000000  0.5102890000000 1.0
C      1  0.5761070000000  0.5322670000000  0.5126200000000 1.0
C      1  0.5127670000000  0.4287360000000  0.5392910000000 1.0
C      1  0.5182480000000  0.5700710000000  0.5308440000000 1.0
C      1  0.5421350000000  0.5308400000000  0.6034040000000 1.0
C      1  0.5364470000000  0.4732210000000  0.5965080000000 1.0
C      1  0.4785170000000  0.5561900000000  0.4091580000000 1.0
C      1  0.4579830000000  0.4511180000000  0.4008060000000 1.0
C      1  0.4989370000000  0.5354320000000  0.5561700000000 1.0
C      1  0.4769570000000  0.4517230000000  0.5671730000000 1.0
C      1  0.4765020000000  0.4874410000000  0.6259930000000 1.0
C      1  0.4767470000000  0.5164490000000  0.6280390000000 1.0
C      1  0.5201480000000  0.4788430000000  0.4602920000000 1.0
C      1  0.5268890000000  0.5080610000000  0.4587880000000 1.0
C      1  0.4577870000000  0.4742470000000  0.6087160000000 1.0
C      1  0.4557270000000  0.5320370000000  0.6164210000000 1.0
C      1  0.5338240000000  0.5141750000000  0.4881900000000 1.0
C      1  0.5287470000000  0.4609420000000  0.4808370000000 1.0
C      1  0.5539360000000  0.5310520000000  0.4959560000000 1.0
C      1  0.5477840000000  0.4658000000000  0.5001520000000 1.0
C      1  0.6135020000000  0.5176560000000  0.4881430000000 1.0
C      1  0.6107570000000  0.4904910000000  0.4867290000000 1.0
C      1  0.5989710000000  0.5405020000000  0.4976380000000 1.0
C      1  0.5944060000000  0.4680210000000  0.4934880000000 1.0
C      1  0.5149160000000  0.5087900000000  0.5091200000000 1.0
C      1  0.5111420000000  0.4869590000000  0.5281730000000 1.0
C      1  0.4745360000000  0.4900420000000  0.4441470000000 1.0
C      1  0.4791180000000  0.5107800000000  0.4617280000000 1.0
C      1  0.4973910000000  0.4375380000000  0.5130200000000 1.0
C      1  0.5008800000000  0.5601680000000  0.5053990000000 1.0
C      1  0.4121630000000  0.5294050000000  0.5190730000000 1.0
C      1  0.4093480000000  0.4644150000000  0.5150760000000 1.0
C      1  0.4669150000000  0.4517830000000  0.5945860000000 1.0
C      1  0.4607980000000  0.5585660000000  0.6089910000000 1.0
C      1  0.4122450000000  0.5286170000000  0.4273550000000 1.0
C      1  0.4090120000000  0.4562870000000  0.4261330000000 1.0
C      1  0.4492600000000  0.4383270000000  0.5296540000000 1.0
C      1  0.4570760000000  0.5534320000000  0.5304840000000 1.0
C      1  0.4785700000000  0.5306030000000  0.3975440000000 1.0
C      1  0.4771330000000  0.4725150000000  0.4006540000000 1.0
C      1  0.5732440000000  0.4884880000000  0.5346390000000 1.0
C      1  0.5744300000000  0.5175570000000  0.5366420000000 1.0
C      1  0.4340180000000  0.5166960000000  0.6065800000000 1.0
C      1  0.4350070000000  0.4898530000000  0.6026200000000 1.0
C      1  0.5482090000000  0.4898810000000  0.4165710000000 1.0
C      1  0.5374780000000  0.5114980000000  0.4306470000000 1.0
C      1  0.5729630000000  0.5831400000000  0.4772760000000 1.0
C      1  0.5709030000000  0.4220130000000  0.4772740000000 1.0
C      1  0.4377290000000  0.5864940000000  0.4898860000000 1.0
C      1  0.4374460000000  0.4082710000000  0.4839340000000 1.0
C      1  0.5388660000000  0.4189090000000  0.5387310000000 1.0
C      1  0.5412720000000  0.5854310000000  0.5324160000000 1.0
C      1  0.5042030000000  0.4848310000000  0.3966490000000 1.0
C      1  0.5042040000000  0.5164100000000  0.3974020000000 1.0
C      1  0.4618690000000  0.4001830000000  0.4992080000000 1.0
C      1  0.4631080000000  0.5960200000000  0.5012690000000 1.0
C      1  0.4643900000000  0.4917550000000  0.4183950000000 1.0
C      1  0.4560150000000  0.5149950000000  0.4051400000000 1.0
C      1  0.5690090000000  0.4744240000000  0.5595560000000 1.0
C      1  0.5715110000000  0.5282570000000  0.5634780000000 1.0
C      1  0.4918120000000  0.5282960000000  0.5088260000000 1.0
C      1  0.4878310000000  0.4683580000000  0.5214010000000 1.0
C      1  0.4989060000000  0.5507180000000  0.4545340000000 1.0
C      1  0.4852980000000  0.4495990000000  0.4659710000000 1.0
C      1  0.4176370000000  0.5748360000000  0.5069850000000 1.0
C      1  0.4155060000000  0.4233590000000  0.4946610000000 1.0
C      1  0.4122340000000  0.5306540000000  0.4551890000000 1.0
C      1  0.4020970000000  0.4580790000000  0.4535670000000 1.0
C      1  0.4792880000000  0.4281580000000  0.6062200000000 1.0
C      1  0.4761290000000  0.5757250000000  0.5953880000000 1.0
C      1  0.3910350000000  0.5347920000000  0.4982790000000 1.0
C      1  0.3882880000000  0.4632380000000  0.4954530000000 1.0
C      1  0.5588140000000  0.4407660000000  0.4314450000000 1.0
C      1  0.5607450000000  0.5568640000000  0.4335860000000 1.0
C      1  0.4981700000000  0.4172980000000  0.5890940000000 1.0
C      1  0.4945260000000  0.5788370000000  0.5761530000000 1.0
C      1  0.5086500000000  0.6210450000000  0.4933000000000 1.0
C      1  0.5105200000000  0.3799040000000  0.4966430000000 1.0
C      1  0.5549490000000  0.4256650000000  0.4546880000000 1.0
C      1  0.5584160000000  0.5736680000000  0.4558150000000 1.0
C      1  0.5759410000000  0.4861540000000  0.4209560000000 1.0
C      1  0.5888180000000  0.5112220000000  0.4254490000000 1.0
C      1  0.4826290000000  0.6110110000000  0.4858660000000 1.0
C      1  0.4843350000000  0.3866810000000  0.4864300000000 1.0
C      1  0.5943040000000  0.5220870000000  0.5805180000000 1.0
C      1  0.5917600000000  0.4757530000000  0.5773440000000 1.0
C      1  0.3985830000000  0.4409030000000  0.4770340000000 1.0
C      1  0.3923860000000  0.5640790000000  0.4967520000000 1.0
C      1  0.4433910000000  0.5708280000000  0.4659870000000 1.0
C      1  0.4483690000000  0.4227720000000  0.4615090000000 1.0
C      1  0.5804980000000  0.4588090000000  0.4267150000000 1.0
C      1  0.5808250000000  0.5370460000000  0.4292230000000 1.0
C      1  0.3902060000000  0.4886350000000  0.4711220000000 1.0
C      1  0.3937330000000  0.5174110000000  0.4737380000000 1.0
C      1  0.5333830000000  0.4449440000000  0.4173500000000 1.0
C      1  0.5353950000000  0.5573350000000  0.4186150000000 1.0
C      1  0.4733380000000  0.5729770000000  0.5146840000000 1.0
C      1  0.4697130000000  0.4216980000000  0.5162880000000 1.0
C      1  0.5916190000000  0.4412630000000  0.4830760000000 1.0
C      1  0.5949040000000  0.5668750000000  0.4866150000000 1.0
C      1  0.5264320000000  0.5156030000000  0.6209740000000 1.0
C      1  0.5251870000000  0.4867140000000  0.6184310000000 1.0
C      1  0.4282450000000  0.5537900000000  0.5258210000000 1.0
C      1  0.4221990000000  0.4384610000000  0.5196830000000 1.0
C      1  0.5213040000000  0.5186790000000  0.5622220000000 1.0
C      1  0.5230500000000  0.4913370000000  0.5535950000000 1.0
C      1  0.5578760000000  0.6016410000000  0.5192570000000 1.0
C      1  0.5581360000000  0.4086940000000  0.5232740000000 1.0
C      1  0.4772800000000  0.5317630000000  0.5367020000000 1.0
C      1  0.4658710000000  0.4594020000000  0.5424250000000 1.0
C      1  0.5314990000000  0.6094560000000  0.4796790000000 1.0
C      1  0.5328540000000  0.3939530000000  0.4856340000000 1.0
C      1  0.4901980000000  0.3978740000000  0.4598960000000 1.0
C      1  0.4844860000000  0.6010910000000  0.4595510000000 1.0
C      1  0.5189550000000  0.4149930000000  0.4618790000000 1.0
C      1  0.5222030000000  0.5891090000000  0.4597810000000 1.0
C      1  0.6095370000000  0.4987230000000  0.5688520000000 1.0
END
