TITL C-3201376-6384-1359 3.3902598040712e-06 125000 -728.566109660972 0 0 123 (C1) n - 1
REM
REM in /home/nfs/bkarasulu/CARBON/AIRSS/Generating-Clusters/LCBOP/Higher-Symm/SD-CG/FIRE-CG
REM
REM
REM
REM
REM
REM ./C.cell (b20cbc046b6831c77cfcea5457e17084)
REM AIRSS Version 0.9.1 bugfix July 2018 build 013d7b7c2542+ Fri, 06 Jul 2018 19:26:36 +0100
REM compiler GCC version 9.2.1 20190827 (Red Hat 9.2.1-1)
REM options -cpp -mtune=generic -march=x86-64 -g -O0 -fpre-include=/usr/include/finclude/math-vector-fortran.h
REM seed -1497300533 396344733 1110944459 -1754550721 -1677129686 500265234 1277100892 -668144803 695573749 1218250733 845691775 261898171 1870814396 -607026535 -577544758 378453104 155614639 -1853955596 1757246315 43406333 -1512651890 496672688 -446719057 -2145483060 -1444422101 -92460315 2072757849 -954407785 1536469504 1265869067 -764133537 1167206559 -599253357
REM
CELL 1.54180   50.00000   50.00000   50.00000   90.00000   90.00000   90.00000
LATT -1
SFAC C  
C      1  0.4437550000000  0.4887320000000  0.4193410000000 1.0
C      1  0.5660540000000  0.5094170000000  0.5824830000000 1.0
C      1  0.4204520000000  0.4616660000000  0.5675230000000 1.0
C      1  0.5718320000000  0.5413310000000  0.4273470000000 1.0
C      1  0.5233920000000  0.5838970000000  0.4952700000000 1.0
C      1  0.4928080000000  0.4087800000000  0.5251120000000 1.0
C      1  0.4587290000000  0.5715640000000  0.5104320000000 1.0
C      1  0.5355300000000  0.4280410000000  0.4883820000000 1.0
C      1  0.5348520000000  0.5783520000000  0.5220360000000 1.0
C      1  0.4581900000000  0.4172470000000  0.4667860000000 1.0
C      1  0.5773600000000  0.4445980000000  0.5438300000000 1.0
C      1  0.4198740000000  0.5520430000000  0.4535930000000 1.0
C      1  0.5571170000000  0.4711210000000  0.4278330000000 1.0
C      1  0.4452660000000  0.5290560000000  0.5688590000000 1.0
C      1  0.5356870000000  0.4662000000000  0.5273710000000 1.0
C      1  0.4622320000000  0.5363090000000  0.4690050000000 1.0
C      1  0.4916200000000  0.6075270000000  0.4570550000000 1.0
C      1  0.5206300000000  0.4108130000000  0.5612070000000 1.0
C      1  0.4868690000000  0.4622670000000  0.3710190000000 1.0
C      1  0.5220590000000  0.5342280000000  0.5690540000000 1.0
C      1  0.5164180000000  0.5194020000000  0.5924850000000 1.0
C      1  0.4877480000000  0.4810430000000  0.3911480000000 1.0
C      1  0.5440640000000  0.4797650000000  0.6121800000000 1.0
C      1  0.4538960000000  0.5184750000000  0.3845610000000 1.0
C      1  0.5025560000000  0.5605650000000  0.4911950000000 1.0
C      1  0.4935900000000  0.4349240000000  0.5096250000000 1.0
C      1  0.5823790000000  0.4725920000000  0.5498800000000 1.0
C      1  0.4162680000000  0.5235580000000  0.4479900000000 1.0
C      1  0.5210580000000  0.4035280000000  0.5325290000000 1.0
C      1  0.4694840000000  0.6023940000000  0.4716700000000 1.0
C      1  0.4873030000000  0.5155490000000  0.5961220000000 1.0
C      1  0.5135920000000  0.4866720000000  0.4029770000000 1.0
C      1  0.4618310000000  0.5841590000000  0.5931460000000 1.0
C      1  0.5428930000000  0.4285990000000  0.4387750000000 1.0
C      1  0.5020720000000  0.5765650000000  0.5673870000000 1.0
C      1  0.4951490000000  0.4244580000000  0.4317890000000 1.0
C      1  0.4888880000000  0.5073840000000  0.4446860000000 1.0
C      1  0.5066130000000  0.4859230000000  0.5582870000000 1.0
C      1  0.4640740000000  0.4678730000000  0.5852340000000 1.0
C      1  0.5226960000000  0.5350500000000  0.4249820000000 1.0
C      1  0.4138900000000  0.4861770000000  0.5544280000000 1.0
C      1  0.5858410000000  0.5181580000000  0.4366260000000 1.0
C      1  0.4113570000000  0.4669990000000  0.5034460000000 1.0
C      1  0.5822500000000  0.5282920000000  0.4916450000000 1.0
C      1  0.5402720000000  0.5553680000000  0.4639450000000 1.0
C      1  0.4578890000000  0.4402920000000  0.5414930000000 1.0
C      1  0.5412190000000  0.5061980000000  0.6002030000000 1.0
C      1  0.4632560000000  0.4942400000000  0.3979130000000 1.0
C      1  0.4871640000000  0.4198020000000  0.4598790000000 1.0
C      1  0.5095600000000  0.5755960000000  0.5389870000000 1.0
C      1  0.5974020000000  0.4730790000000  0.5044570000000 1.0
C      1  0.4021400000000  0.5236690000000  0.4939810000000 1.0
C      1  0.4624760000000  0.5138480000000  0.4519380000000 1.0
C      1  0.5336250000000  0.4858050000000  0.5479430000000 1.0
C      1  0.5418850000000  0.4147730000000  0.5152640000000 1.0
C      1  0.4515180000000  0.5845320000000  0.4848080000000 1.0
C      1  0.4538450000000  0.5375210000000  0.5428730000000 1.0
C      1  0.5577830000000  0.4506740000000  0.4503440000000 1.0
C      1  0.4763630000000  0.4181190000000  0.5486950000000 1.0
C      1  0.5342320000000  0.5846140000000  0.4682940000000 1.0
C      1  0.4895360000000  0.5056720000000  0.5454070000000 1.0
C      1  0.5035430000000  0.4855070000000  0.4554850000000 1.0
C      1  0.5241040000000  0.5393150000000  0.4862540000000 1.0
C      1  0.4661410000000  0.4489110000000  0.5122010000000 1.0
C      1  0.5194400000000  0.5911210000000  0.5834930000000 1.0
C      1  0.4792510000000  0.4144100000000  0.4117320000000 1.0
C      1  0.4235510000000  0.5102360000000  0.5678250000000 1.0
C      1  0.5770900000000  0.4922060000000  0.4239250000000 1.0
C      1  0.5767240000000  0.5565520000000  0.4976660000000 1.0
C      1  0.4156120000000  0.4382760000000  0.4961180000000 1.0
C      1  0.5784810000000  0.5156560000000  0.5189920000000 1.0
C      1  0.4184360000000  0.4810290000000  0.4780610000000 1.0
C      1  0.5043850000000  0.4355880000000  0.4808220000000 1.0
C      1  0.4889050000000  0.5618180000000  0.5198330000000 1.0
C      1  0.5604370000000  0.5625300000000  0.5216370000000 1.0
C      1  0.4347770000000  0.4336240000000  0.4738880000000 1.0
C      1  0.5224220000000  0.5137920000000  0.4059760000000 1.0
C      1  0.4757560000000  0.4892370000000  0.5971830000000 1.0
C      1  0.5300860000000  0.4699490000000  0.6332480000000 1.0
C      1  0.4645760000000  0.5298990000000  0.3623860000000 1.0
C      1  0.5761130000000  0.4821750000000  0.5760280000000 1.0
C      1  0.4256490000000  0.5123670000000  0.4232120000000 1.0
C      1  0.4209050000000  0.4815540000000  0.5264640000000 1.0
C      1  0.5796240000000  0.5152660000000  0.4655080000000 1.0
C      1  0.4312300000000  0.5281180000000  0.3994420000000 1.0
C      1  0.5647030000000  0.4661130000000  0.5973820000000 1.0
C      1  0.5564460000000  0.4992860000000  0.4624390000000 1.0
C      1  0.4484420000000  0.4877960000000  0.5242150000000 1.0
C      1  0.5112710000000  0.4513080000000  0.5291050000000 1.0
C      1  0.4862520000000  0.5526010000000  0.4640140000000 1.0
C      1  0.5633330000000  0.5360190000000  0.5384550000000 1.0
C      1  0.4415830000000  0.4634570000000  0.4672310000000 1.0
C      1  0.4661070000000  0.4651470000000  0.4856840000000 1.0
C      1  0.5345600000000  0.5321940000000  0.5455400000000 1.0
C      1  0.4100670000000  0.5076830000000  0.4716740000000 1.0
C      1  0.5880760000000  0.4890650000000  0.5262240000000 1.0
C      1  0.4152140000000  0.5402580000000  0.5108070000000 1.0
C      1  0.5850340000000  0.4543640000000  0.4894230000000 1.0
C      1  0.4926220000000  0.4647340000000  0.4722510000000 1.0
C      1  0.4822710000000  0.5344430000000  0.5403420000000 1.0
C      1  0.4982540000000  0.4288900000000  0.5671040000000 1.0
C      1  0.5176120000000  0.6010460000000  0.4521340000000 1.0
C      1  0.5013980000000  0.4564370000000  0.5571390000000 1.0
C      1  0.5003530000000  0.5348350000000  0.4425690000000 1.0
C      1  0.4692260000000  0.5368710000000  0.5859510000000 1.0
C      1  0.5293330000000  0.4655500000000  0.4151500000000 1.0
C      1  0.4605020000000  0.5282110000000  0.4954610000000 1.0
C      1  0.5427000000000  0.4729020000000  0.5019000000000 1.0
C      1  0.4785740000000  0.5650240000000  0.5816750000000 1.0
C      1  0.5194410000000  0.4383910000000  0.4248180000000 1.0
C      1  0.5649390000000  0.4249350000000  0.5297560000000 1.0
C      1  0.4309150000000  0.5723580000000  0.4681690000000 1.0
C      1  0.4828410000000  0.5116800000000  0.5022990000000 1.0
C      1  0.5261170000000  0.4928630000000  0.4926150000000 1.0
C      1  0.4753000000000  0.4942120000000  0.5232940000000 1.0
C      1  0.5297290000000  0.4922940000000  0.4640030000000 1.0
C      1  0.4478380000000  0.4541700000000  0.5657020000000 1.0
C      1  0.5456190000000  0.5467680000000  0.4369560000000 1.0
C      1  0.4452880000000  0.4683810000000  0.4384070000000 1.0
C      1  0.5752830000000  0.5309370000000  0.5660050000000 1.0
C      1  0.5557970000000  0.4514490000000  0.4814940000000 1.0
C      1  0.4437880000000  0.5445760000000  0.5154790000000 1.0
C      1  0.5112830000000  0.5156920000000  0.4973120000000 1.0
END
