TITL C-3201378-2706-1714 388943.337452675 125000 -543.608240096446 0 0 92 (C1) n - 1
REM
REM in /home/nfs/bkarasulu/CARBON/AIRSS/Generating-Clusters/LCBOP/Higher-Symm/SD-CG/FIRE-CG
REM
REM
REM
REM
REM
REM ./C.cell (b20cbc046b6831c77cfcea5457e17084)
REM AIRSS Version 0.9.1 bugfix July 2018 build 013d7b7c2542+ Fri, 06 Jul 2018 19:26:36 +0100
REM compiler GCC version 9.2.1 20190827 (Red Hat 9.2.1-1)
REM options -cpp -mtune=generic -march=x86-64 -g -O0 -fpre-include=/usr/include/finclude/math-vector-fortran.h
REM seed 655102619 1511649130 -436276177 -300872821 550951961 90445183 1580168862 1169694445 -816952867 -923697660 -1563325982 -1545716390 1991287581 -59187794 -1599065482 545517076 689092126 -1963592839 611604055 -60492850 -1015212097 -296508182 -1350479363 1759334997 1580431167 207587231 1054697090 -1442882645 -1114468476 15652640 82049625 1153295475 1810188141
REM
CELL 1.54180   50.00000   50.00000   50.00000   90.00000   90.00000   90.00000
LATT -1
SFAC C  
C      1  0.5229790000000  0.4804090000000  0.5517430000000 1.0
C      1  0.4842640000000  0.5326410000000  0.5216920000000 1.0
C      1  0.5473010000000  0.5151020000000  0.4897900000000 1.0
C      1  0.4884010000000  0.5102780000000  0.5433770000000 1.0
C      1  0.5154970000000  0.5109160000000  0.4529200000000 1.0
C      1  0.4767810000000  0.4854230000000  0.4690500000000 1.0
C      1  0.5163800000000  0.4519090000000  0.5121400000000 1.0
C      1  0.4862010000000  0.4568000000000  0.4769310000000 1.0
C      1  0.5107090000000  0.5482490000000  0.4844860000000 1.0
C      1  0.4506660000000  0.4905640000000  0.4865180000000 1.0
C      1  0.5338790000000  0.4757010000000  0.5167380000000 1.0
C      1  0.4492370000000  0.5268280000000  0.5144550000000 1.0
C      1  0.5245800000000  0.4851360000000  0.4608770000000 1.0
C      1  0.4850870000000  0.5398610000000  0.4753960000000 1.0
C      1  0.5383640000000  0.5242100000000  0.5152240000000 1.0
C      1  0.4867680000000  0.5133940000000  0.4599310000000 1.0
C      1  0.5145000000000  0.5055860000000  0.5563300000000 1.0
C      1  0.4795200000000  0.4837700000000  0.5279370000000 1.0
C      1  0.5112500000000  0.4462150000000  0.4841460000000 1.0
C      1  0.4889950000000  0.4570440000000  0.5228430000000 1.0
C      1  0.5128560000000  0.5408740000000  0.5129370000000 1.0
C      1  0.4534380000000  0.4838640000000  0.5158490000000 1.0
C      1  0.5409350000000  0.4861910000000  0.4870730000000 1.0
C      1  0.4418070000000  0.5184170000000  0.4890860000000 1.0
C      1  0.4433310000000  0.5684670000000  0.5210050000000 1.0
C      1  0.5731930000000  0.5326780000000  0.4537090000000 1.0
C      1  0.5366290000000  0.4395460000000  0.5683210000000 1.0
C      1  0.5576550000000  0.4354430000000  0.5235260000000 1.0
C      1  0.4446050000000  0.4331810000000  0.4708390000000 1.0
C      1  0.5477590000000  0.5728400000000  0.4677240000000 1.0
C      1  0.4358540000000  0.4751530000000  0.4459700000000 1.0
C      1  0.5670390000000  0.4774270000000  0.5565500000000 1.0
C      1  0.4317680000000  0.5327690000000  0.5584880000000 1.0
C      1  0.4768380000000  0.5529260000000  0.5623320000000 1.0
C      1  0.5337040000000  0.5472870000000  0.4276220000000 1.0
C      1  0.4779470000000  0.4442590000000  0.4351580000000 1.0
C      1  0.4475260000000  0.5724180000000  0.4687700000000 1.0
C      1  0.5699380000000  0.5290290000000  0.5544430000000 1.0
C      1  0.5299700000000  0.4468580000000  0.4294300000000 1.0
C      1  0.5522430000000  0.4289920000000  0.4679390000000 1.0
C      1  0.4429180000000  0.4431560000000  0.5228780000000 1.0
C      1  0.5485490000000  0.5671900000000  0.5266840000000 1.0
C      1  0.4421430000000  0.4827130000000  0.5617410000000 1.0
C      1  0.5681590000000  0.4742810000000  0.4510810000000 1.0
C      1  0.4292550000000  0.5339690000000  0.4466570000000 1.0
C      1  0.4753050000000  0.5493710000000  0.4319900000000 1.0
C      1  0.5303170000000  0.5493580000000  0.5705550000000 1.0
C      1  0.4830130000000  0.4399650000000  0.5645660000000 1.0
C      1  0.4885260000000  0.4698730000000  0.4343690000000 1.0
C      1  0.4690320000000  0.4347130000000  0.4852940000000 1.0
C      1  0.4281350000000  0.4742850000000  0.4755140000000 1.0
C      1  0.5348720000000  0.5185780000000  0.4330040000000 1.0
C      1  0.4742860000000  0.5226790000000  0.5675900000000 1.0
C      1  0.5215750000000  0.4633600000000  0.5744530000000 1.0
C      1  0.5189910000000  0.5679920000000  0.4655720000000 1.0
C      1  0.4688520000000  0.5657010000000  0.5109880000000 1.0
C      1  0.5277570000000  0.4281010000000  0.5257320000000 1.0
C      1  0.5674700000000  0.5341490000000  0.4823790000000 1.0
C      1  0.4287580000000  0.5193220000000  0.5332740000000 1.0
C      1  0.5632090000000  0.4879110000000  0.5309200000000 1.0
C      1  0.4952340000000  0.4569070000000  0.5829000000000 1.0
C      1  0.4686690000000  0.4377970000000  0.5135500000000 1.0
C      1  0.4325520000000  0.4908390000000  0.5345180000000 1.0
C      1  0.5309810000000  0.5198750000000  0.5749100000000 1.0
C      1  0.4708530000000  0.5192450000000  0.4345400000000 1.0
C      1  0.5163140000000  0.4705520000000  0.4370980000000 1.0
C      1  0.5184890000000  0.5655900000000  0.5296760000000 1.0
C      1  0.4701180000000  0.5633800000000  0.4833160000000 1.0
C      1  0.5224160000000  0.4256300000000  0.4679370000000 1.0
C      1  0.5614490000000  0.5158530000000  0.5307220000000 1.0
C      1  0.4233650000000  0.5354630000000  0.4759050000000 1.0
C      1  0.5666220000000  0.4704900000000  0.4811030000000 1.0
C      1  0.5597600000000  0.5618330000000  0.4932180000000 1.0
C      1  0.5592600000000  0.5092150000000  0.5741810000000 1.0
C      1  0.5064450000000  0.5614070000000  0.5569960000000 1.0
C      1  0.4271730000000  0.4486760000000  0.4894350000000 1.0
C      1  0.5644960000000  0.4425000000000  0.4924540000000 1.0
C      1  0.4262880000000  0.5629320000000  0.4875230000000 1.0
C      1  0.4480750000000  0.5115270000000  0.5729760000000 1.0
C      1  0.5624970000000  0.5076340000000  0.4407870000000 1.0
C      1  0.5157180000000  0.4250170000000  0.5519470000000 1.0
C      1  0.5105450000000  0.4269470000000  0.4408320000000 1.0
C      1  0.5085500000000  0.5601110000000  0.4378530000000 1.0
C      1  0.4430900000000  0.5085200000000  0.4368190000000 1.0
C      1  0.5566170000000  0.4470120000000  0.4424420000000 1.0
C      1  0.4470110000000  0.5586120000000  0.5514190000000 1.0
C      1  0.4516200000000  0.4527410000000  0.5553800000000 1.0
C      1  0.4480170000000  0.5588620000000  0.4423850000000 1.0
C      1  0.5579070000000  0.5570840000000  0.4435840000000 1.0
C      1  0.5613940000000  0.4478800000000  0.5530040000000 1.0
C      1  0.5563090000000  0.5552520000000  0.5540350000000 1.0
C      1  0.4495840000000  0.4462300000000  0.4438850000000 1.0
END
