TITL C-3201372-1405-319 -3045355.95057474 125000 -1087.23160487053 0 0 182 (C1) n - 1
REM
REM in /home/nfs/bkarasulu/CARBON/AIRSS/Generating-Clusters/LCBOP/Higher-Symm/SD-CG/FIRE-CG
REM
REM
REM
REM
REM
REM ./C.cell (b20cbc046b6831c77cfcea5457e17084)
REM AIRSS Version 0.9.1 bugfix July 2018 build 013d7b7c2542+ Fri, 06 Jul 2018 19:26:36 +0100
REM compiler GCC version 9.2.1 20190827 (Red Hat 9.2.1-1)
REM options -cpp -mtune=generic -march=x86-64 -g -O0 -fpre-include=/usr/include/finclude/math-vector-fortran.h
REM seed 1666488254 1593931780 -1796400648 -543180198 -680374140 2031948937 734337233 -1974213275 -1106787399 559374472 -2082805118 -727659712 -2083548197 -280244421 628983105 781322686 3565082 484805995 469747598 -259010523 -1068288057 1823259551 -816475667 -796603316 1242080718 1285988921 -1323395665 189773578 1430049156 712312073 -1236758753 1666635628 -375770804
REM
CELL 1.54180   50.00000   50.00000   50.00000   90.00000   90.00000   90.00000
LATT -1
SFAC C  
C      1  0.4733970000000  0.5332900000000  0.3934970000000 1.0
C      1  0.5296190000000  0.5352580000000  0.3906570000000 1.0
C      1  0.4505300000000  0.5929040000000  0.5733920000000 1.0
C      1  0.5842520000000  0.5977750000000  0.5749940000000 1.0
C      1  0.5774100000000  0.4823120000000  0.5092920000000 1.0
C      1  0.4265580000000  0.4866160000000  0.5067990000000 1.0
C      1  0.4046660000000  0.5833640000000  0.5167110000000 1.0
C      1  0.5999850000000  0.5960220000000  0.5085390000000 1.0
C      1  0.5550820000000  0.6138150000000  0.5222910000000 1.0
C      1  0.4487720000000  0.6034000000000  0.5097800000000 1.0
C      1  0.4269430000000  0.5641890000000  0.4467240000000 1.0
C      1  0.5711760000000  0.5685040000000  0.4507020000000 1.0
C      1  0.4449620000000  0.4419070000000  0.4613000000000 1.0
C      1  0.5531630000000  0.4492160000000  0.4461400000000 1.0
C      1  0.5221110000000  0.3516730000000  0.4723070000000 1.0
C      1  0.4691580000000  0.3466170000000  0.4787210000000 1.0
C      1  0.4728860000000  0.5558320000000  0.4513140000000 1.0
C      1  0.5275600000000  0.5526730000000  0.4509950000000 1.0
C      1  0.4721680000000  0.4930000000000  0.6115780000000 1.0
C      1  0.5273340000000  0.4952470000000  0.6109760000000 1.0
C      1  0.5930360000000  0.4561010000000  0.5119830000000 1.0
C      1  0.4079480000000  0.4618340000000  0.5097620000000 1.0
C      1  0.5661070000000  0.5199160000000  0.5868160000000 1.0
C      1  0.4323710000000  0.5159940000000  0.5888220000000 1.0
C      1  0.3913150000000  0.5489380000000  0.4809730000000 1.0
C      1  0.6157390000000  0.5651610000000  0.4702110000000 1.0
C      1  0.5549810000000  0.4965670000000  0.6015940000000 1.0
C      1  0.4441550000000  0.4930980000000  0.6032140000000 1.0
C      1  0.5456250000000  0.5210570000000  0.4918860000000 1.0
C      1  0.4575620000000  0.5227840000000  0.4922470000000 1.0
C      1  0.5609810000000  0.4725430000000  0.4065970000000 1.0
C      1  0.4682080000000  0.4596830000000  0.4205560000000 1.0
C      1  0.5480240000000  0.5620260000000  0.4309520000000 1.0
C      1  0.4521810000000  0.5613110000000  0.4298760000000 1.0
C      1  0.4510100000000  0.5415150000000  0.4080860000000 1.0
C      1  0.5502090000000  0.5421200000000  0.4085980000000 1.0
C      1  0.5920230000000  0.4848800000000  0.5734880000000 1.0
C      1  0.4096000000000  0.4806850000000  0.5723390000000 1.0
C      1  0.4578380000000  0.4880540000000  0.5446260000000 1.0
C      1  0.5432130000000  0.4860200000000  0.5465660000000 1.0
C      1  0.4640050000000  0.5165820000000  0.5488240000000 1.0
C      1  0.5385310000000  0.5152000000000  0.5471610000000 1.0
C      1  0.5778050000000  0.4951940000000  0.4138200000000 1.0
C      1  0.4149020000000  0.5022110000000  0.4144310000000 1.0
C      1  0.5604580000000  0.5760790000000  0.4774480000000 1.0
C      1  0.4283330000000  0.5875080000000  0.4631200000000 1.0
C      1  0.4372970000000  0.4076940000000  0.5316850000000 1.0
C      1  0.5542530000000  0.4157940000000  0.5261790000000 1.0
C      1  0.4347240000000  0.4157090000000  0.5024400000000 1.0
C      1  0.5578840000000  0.4209560000000  0.4949210000000 1.0
C      1  0.5289330000000  0.5614310000000  0.5210950000000 1.0
C      1  0.4786250000000  0.5598500000000  0.5253500000000 1.0
C      1  0.4746300000000  0.6127520000000  0.5182230000000 1.0
C      1  0.5282150000000  0.6171800000000  0.5206070000000 1.0
C      1  0.5787710000000  0.5984770000000  0.5269310000000 1.0
C      1  0.4297070000000  0.5908960000000  0.5276170000000 1.0
C      1  0.4259520000000  0.4705880000000  0.5946960000000 1.0
C      1  0.5738330000000  0.4740880000000  0.5937120000000 1.0
C      1  0.4277500000000  0.4902840000000  0.4766590000000 1.0
C      1  0.5749680000000  0.4821780000000  0.4792280000000 1.0
C      1  0.5194760000000  0.4918980000000  0.3705260000000 1.0
C      1  0.4732040000000  0.4934620000000  0.3672470000000 1.0
C      1  0.4321850000000  0.5176000000000  0.5146930000000 1.0
C      1  0.5719620000000  0.5160470000000  0.5144300000000 1.0
C      1  0.4748970000000  0.5218380000000  0.3669720000000 1.0
C      1  0.5227240000000  0.5202970000000  0.3666150000000 1.0
C      1  0.4321180000000  0.4089970000000  0.5578690000000 1.0
C      1  0.5634350000000  0.4161110000000  0.5513450000000 1.0
C      1  0.5377910000000  0.4458860000000  0.4809660000000 1.0
C      1  0.4532240000000  0.4370300000000  0.4892880000000 1.0
C      1  0.4619400000000  0.5808090000000  0.5968280000000 1.0
C      1  0.5729270000000  0.5915950000000  0.5987620000000 1.0
C      1  0.4224540000000  0.5271030000000  0.5417910000000 1.0
C      1  0.5807640000000  0.5284330000000  0.5403910000000 1.0
C      1  0.5639700000000  0.5227470000000  0.4483440000000 1.0
C      1  0.4468490000000  0.5195210000000  0.4455840000000 1.0
C      1  0.4073860000000  0.5371830000000  0.4610510000000 1.0
C      1  0.5968260000000  0.5525820000000  0.4533900000000 1.0
C      1  0.4169600000000  0.5072200000000  0.5642760000000 1.0
C      1  0.5841650000000  0.5106020000000  0.5641170000000 1.0
C      1  0.4092360000000  0.5068730000000  0.4610120000000 1.0
C      1  0.5930440000000  0.5235030000000  0.4504800000000 1.0
C      1  0.5276820000000  0.5421710000000  0.5442150000000 1.0
C      1  0.4789600000000  0.5410270000000  0.5474030000000 1.0
C      1  0.5480560000000  0.5688440000000  0.5008300000000 1.0
C      1  0.4413490000000  0.6011510000000  0.4823860000000 1.0
C      1  0.5484340000000  0.4730040000000  0.5218580000000 1.0
C      1  0.4528010000000  0.4756530000000  0.5190770000000 1.0
C      1  0.4297120000000  0.4295100000000  0.4177910000000 1.0
C      1  0.5887660000000  0.4381940000000  0.4195270000000 1.0
C      1  0.4466090000000  0.3906070000000  0.4868100000000 1.0
C      1  0.5428530000000  0.3960690000000  0.4845470000000 1.0
C      1  0.5669120000000  0.4434830000000  0.4008690000000 1.0
C      1  0.4520150000000  0.4406790000000  0.4066670000000 1.0
C      1  0.4743580000000  0.3973320000000  0.4802330000000 1.0
C      1  0.5160370000000  0.4009300000000  0.4920250000000 1.0
C      1  0.4274980000000  0.4426690000000  0.5970270000000 1.0
C      1  0.5720550000000  0.4460070000000  0.5931960000000 1.0
C      1  0.4567320000000  0.5363360000000  0.4668630000000 1.0
C      1  0.5450910000000  0.5336390000000  0.4661050000000 1.0
C      1  0.5617230000000  0.5189510000000  0.4197170000000 1.0
C      1  0.4367380000000  0.5193450000000  0.4190030000000 1.0
C      1  0.4597750000000  0.4636910000000  0.4485020000000 1.0
C      1  0.5398080000000  0.4693240000000  0.4270120000000 1.0
C      1  0.5915900000000  0.4743830000000  0.4567420000000 1.0
C      1  0.4031440000000  0.4618210000000  0.4417640000000 1.0
C      1  0.4093440000000  0.4346740000000  0.5048350000000 1.0
C      1  0.5855600000000  0.4337550000000  0.4968490000000 1.0
C      1  0.4284630000000  0.4206640000000  0.5816800000000 1.0
C      1  0.5707780000000  0.4260030000000  0.5751840000000 1.0
C      1  0.4344770000000  0.5440310000000  0.5865710000000 1.0
C      1  0.5640090000000  0.5481690000000  0.5823290000000 1.0
C      1  0.4740850000000  0.4985190000000  0.4835540000000 1.0
C      1  0.5284410000000  0.4979740000000  0.4861990000000 1.0
C      1  0.4030040000000  0.4902880000000  0.4374970000000 1.0
C      1  0.5977900000000  0.4961220000000  0.4379810000000 1.0
C      1  0.5470320000000  0.4789040000000  0.4775710000000 1.0
C      1  0.4546830000000  0.4845000000000  0.4670890000000 1.0
C      1  0.4292500000000  0.5521700000000  0.5584230000000 1.0
C      1  0.5749150000000  0.5549970000000  0.5547360000000 1.0
C      1  0.4361220000000  0.5795440000000  0.5526510000000 1.0
C      1  0.5807150000000  0.5830830000000  0.5508520000000 1.0
C      1  0.4213850000000  0.4394210000000  0.4433810000000 1.0
C      1  0.5822540000000  0.4496160000000  0.4450230000000 1.0
C      1  0.4389010000000  0.5577860000000  0.6334190000000 1.0
C      1  0.5348710000000  0.5676290000000  0.6184000000000 1.0
C      1  0.5348470000000  0.4666630000000  0.5652920000000 1.0
C      1  0.4601980000000  0.4677460000000  0.5638810000000 1.0
C      1  0.5189440000000  0.4435540000000  0.5668400000000 1.0
C      1  0.4725420000000  0.4441110000000  0.5611850000000 1.0
C      1  0.4469340000000  0.3619550000000  0.4840650000000 1.0
C      1  0.5430590000000  0.3692790000000  0.4744920000000 1.0
C      1  0.5252380000000  0.4555820000000  0.5099010000000 1.0
C      1  0.4693790000000  0.4536480000000  0.5078570000000 1.0
C      1  0.5576620000000  0.5679680000000  0.6019590000000 1.0
C      1  0.4448740000000  0.5605620000000  0.6070200000000 1.0
C      1  0.3909720000000  0.5667090000000  0.5009340000000 1.0
C      1  0.6146770000000  0.5826060000000  0.4906310000000 1.0
C      1  0.4996200000000  0.4947680000000  0.6016070000000 1.0
C      1  0.5018090000000  0.5402020000000  0.4040830000000 1.0
C      1  0.5002420000000  0.6472520000000  0.4642380000000 1.0
C      1  0.5076760000000  0.4227190000000  0.4463670000000 1.0
C      1  0.5027040000000  0.5748280000000  0.5187950000000 1.0
C      1  0.4989730000000  0.5353210000000  0.3558190000000 1.0
C      1  0.5084110000000  0.5727720000000  0.6193870000000 1.0
C      1  0.5010440000000  0.5261970000000  0.5063860000000 1.0
C      1  0.5036180000000  0.5992360000000  0.5578570000000 1.0
C      1  0.4914870000000  0.4714530000000  0.4080660000000 1.0
C      1  0.5127280000000  0.4079020000000  0.6065510000000 1.0
C      1  0.4977690000000  0.4489390000000  0.5198480000000 1.0
C      1  0.5007200000000  0.4939850000000  0.5470820000000 1.0
C      1  0.4901260000000  0.5772830000000  0.5985360000000 1.0
C      1  0.4949100000000  0.4800930000000  0.3806030000000 1.0
C      1  0.5114120000000  0.4828460000000  0.4285450000000 1.0
C      1  0.4829190000000  0.3640270000000  0.5471370000000 1.0
C      1  0.5004240000000  0.5547070000000  0.4601910000000 1.0
C      1  0.5002140000000  0.5940980000000  0.4059820000000 1.0
C      1  0.4973350000000  0.4411410000000  0.5482630000000 1.0
C      1  0.5004060000000  0.5702860000000  0.3922900000000 1.0
C      1  0.4996480000000  0.5639390000000  0.3630550000000 1.0
C      1  0.5125380000000  0.4460910000000  0.4626830000000 1.0
C      1  0.5007880000000  0.5055650000000  0.5231880000000 1.0
C      1  0.4993820000000  0.4958810000000  0.5735140000000 1.0
C      1  0.5018290000000  0.3839480000000  0.6105650000000 1.0
C      1  0.5022340000000  0.6039380000000  0.5279680000000 1.0
C      1  0.5189070000000  0.4275380000000  0.5897900000000 1.0
C      1  0.4831380000000  0.3568630000000  0.5727300000000 1.0
C      1  0.5036920000000  0.4727840000000  0.4561760000000 1.0
C      1  0.5001220000000  0.6307170000000  0.4440860000000 1.0
C      1  0.4959650000000  0.3444720000000  0.4744380000000 1.0
C      1  0.5052200000000  0.5144350000000  0.4249800000000 1.0
C      1  0.5014450000000  0.4921390000000  0.4771810000000 1.0
C      1  0.5001250000000  0.6138340000000  0.4236540000000 1.0
C      1  0.5023050000000  0.5752020000000  0.5729530000000 1.0
C      1  0.5041100000000  0.5490800000000  0.5607320000000 1.0
C      1  0.4901230000000  0.3638790000000  0.5974700000000 1.0
C      1  0.4922500000000  0.3936470000000  0.5030070000000 1.0
C      1  0.5433850000000  0.4260790000000  0.4043490000000 1.0
C      1  0.4872540000000  0.3801220000000  0.5265190000000 1.0
C      1  0.5003600000000  0.5439380000000  0.4865810000000 1.0
C      1  0.5229680000000  0.4195890000000  0.4218240000000 1.0
C      1  0.4916980000000  0.4043300000000  0.4597570000000 1.0
END
