TITL C-3201376-6384-1878 0.000533882840537959 125000 -632.359055779701 0 0 103 (C1) n - 1
REM
REM in /home/nfs/bkarasulu/CARBON/AIRSS/Generating-Clusters/LCBOP/Higher-Symm/SD-CG/FIRE-CG
REM
REM
REM
REM
REM
REM ./C.cell (b20cbc046b6831c77cfcea5457e17084)
REM AIRSS Version 0.9.1 bugfix July 2018 build 013d7b7c2542+ Fri, 06 Jul 2018 19:26:36 +0100
REM compiler GCC version 9.2.1 20190827 (Red Hat 9.2.1-1)
REM options -cpp -mtune=generic -march=x86-64 -g -O0 -fpre-include=/usr/include/finclude/math-vector-fortran.h
REM seed -666815880 -601832890 -1090721945 1224310412 189009383 1864920693 -1204453088 -2139732698 2121475512 214398163 -904946377 -1277191057 1751794532 -1217024909 287118781 -970581059 -1489418081 2119623222 541799605 1606618059 -769753446 -1706003070 -830879881 624737164 1027066918 -501408758 1420669045 -405249135 -155358612 -1969264560 -1704402540 -1165640169 -143706318
REM
CELL 1.54180   50.00000   50.00000   50.00000   90.00000   90.00000   90.00000
LATT -1
SFAC C  
C      1  0.5371020000000  0.5189450000000  0.5856440000000 1.0
C      1  0.4672520000000  0.4807170000000  0.5904570000000 1.0
C      1  0.5401480000000  0.5176810000000  0.4099340000000 1.0
C      1  0.4693180000000  0.4804700000000  0.4131680000000 1.0
C      1  0.5279290000000  0.4730600000000  0.4177550000000 1.0
C      1  0.4760840000000  0.5265160000000  0.4183800000000 1.0
C      1  0.5254000000000  0.4738900000000  0.5799350000000 1.0
C      1  0.4732550000000  0.5269730000000  0.5842080000000 1.0
C      1  0.4884700000000  0.5020050000000  0.4101900000000 1.0
C      1  0.5184700000000  0.4988370000000  0.4090890000000 1.0
C      1  0.4863200000000  0.5023970000000  0.5912160000000 1.0
C      1  0.5162170000000  0.4995610000000  0.5890940000000 1.0
C      1  0.4949430000000  0.4715290000000  0.5448740000000 1.0
C      1  0.4999740000000  0.5434210000000  0.5492890000000 1.0
C      1  0.4999210000000  0.4721980000000  0.4545660000000 1.0
C      1  0.5057610000000  0.5442390000000  0.4499200000000 1.0
C      1  0.6031960000000  0.4645620000000  0.4854440000000 1.0
C      1  0.3993870000000  0.5205450000000  0.4878230000000 1.0
C      1  0.6017620000000  0.4650290000000  0.5125470000000 1.0
C      1  0.3975270000000  0.5206410000000  0.5149330000000 1.0
C      1  0.4814870000000  0.5733440000000  0.4173730000000 1.0
C      1  0.5084030000000  0.4308290000000  0.4228720000000 1.0
C      1  0.4798920000000  0.5737320000000  0.5833440000000 1.0
C      1  0.5063710000000  0.4312680000000  0.5763910000000 1.0
C      1  0.5545660000000  0.4662620000000  0.4264080000000 1.0
C      1  0.4498390000000  0.5271130000000  0.4305710000000 1.0
C      1  0.5516290000000  0.4675280000000  0.5700460000000 1.0
C      1  0.4458760000000  0.5280140000000  0.5743340000000 1.0
C      1  0.5042310000000  0.4581360000000  0.5684640000000 1.0
C      1  0.4897940000000  0.5486120000000  0.5753890000000 1.0
C      1  0.5070190000000  0.4578010000000  0.4305680000000 1.0
C      1  0.4926280000000  0.5487140000000  0.4251340000000 1.0
C      1  0.5640390000000  0.4303310000000  0.5387930000000 1.0
C      1  0.4265430000000  0.5611350000000  0.5421790000000 1.0
C      1  0.5670730000000  0.4296010000000  0.4582470000000 1.0
C      1  0.4297820000000  0.5609400000000  0.4612920000000 1.0
C      1  0.4467020000000  0.4712600000000  0.5753320000000 1.0
C      1  0.5583130000000  0.5232970000000  0.5690500000000 1.0
C      1  0.4503140000000  0.4714550000000  0.4304680000000 1.0
C      1  0.5627580000000  0.5217780000000  0.4247670000000 1.0
C      1  0.5736430000000  0.4232530000000  0.5124600000000 1.0
C      1  0.4186430000000  0.5650190000000  0.5148170000000 1.0
C      1  0.5751220000000  0.4233280000000  0.4853620000000 1.0
C      1  0.4201070000000  0.5655650000000  0.4879090000000 1.0
C      1  0.5712450000000  0.4566240000000  0.4478170000000 1.0
C      1  0.4320720000000  0.5333600000000  0.4521410000000 1.0
C      1  0.5678320000000  0.4577240000000  0.5484750000000 1.0
C      1  0.4275620000000  0.5338500000000  0.5527830000000 1.0
C      1  0.4428860000000  0.5831910000000  0.4481860000000 1.0
C      1  0.5460340000000  0.4127720000000  0.4476470000000 1.0
C      1  0.4401090000000  0.5837040000000  0.5542610000000 1.0
C      1  0.5428850000000  0.4137230000000  0.5496720000000 1.0
C      1  0.5719370000000  0.5246240000000  0.5439280000000 1.0
C      1  0.4335760000000  0.4663450000000  0.5504280000000 1.0
C      1  0.5769720000000  0.5235190000000  0.4496470000000 1.0
C      1  0.4385820000000  0.4668210000000  0.4561010000000 1.0
C      1  0.4380020000000  0.4406830000000  0.4670340000000 1.0
C      1  0.5838400000000  0.5489530000000  0.4602060000000 1.0
C      1  0.4331740000000  0.4401630000000  0.5395740000000 1.0
C      1  0.5788720000000  0.5498280000000  0.5328890000000 1.0
C      1  0.4523330000000  0.6033440000000  0.4655430000000 1.0
C      1  0.5290220000000  0.4031480000000  0.4679640000000 1.0
C      1  0.4491050000000  0.6031400000000  0.5357900000000 1.0
C      1  0.5250200000000  0.4042250000000  0.5300140000000 1.0
C      1  0.4870800000000  0.5420080000000  0.4716410000000 1.0
C      1  0.5249140000000  0.4764670000000  0.4688310000000 1.0
C      1  0.4784480000000  0.5414580000000  0.5304350000000 1.0
C      1  0.5169040000000  0.4769900000000  0.5276300000000 1.0
C      1  0.4673750000000  0.6012770000000  0.4878710000000 1.0
C      1  0.5156780000000  0.4191850000000  0.4852440000000 1.0
C      1  0.4649990000000  0.5999250000000  0.5140800000000 1.0
C      1  0.5126200000000  0.4196240000000  0.5113590000000 1.0
C      1  0.4874010000000  0.5149810000000  0.4819770000000 1.0
C      1  0.5299520000000  0.5047250000000  0.4729950000000 1.0
C      1  0.4687450000000  0.5147620000000  0.5292740000000 1.0
C      1  0.5201860000000  0.5047730000000  0.5216670000000 1.0
C      1  0.5282080000000  0.5270630000000  0.4548210000000 1.0
C      1  0.4813740000000  0.4916180000000  0.4657150000000 1.0
C      1  0.5205840000000  0.5262030000000  0.5403280000000 1.0
C      1  0.4742900000000  0.4898890000000  0.5385560000000 1.0
C      1  0.5793110000000  0.5021460000000  0.4690510000000 1.0
C      1  0.4308010000000  0.4874150000000  0.4748600000000 1.0
C      1  0.5757320000000  0.5026580000000  0.5255030000000 1.0
C      1  0.4265870000000  0.4869390000000  0.5313050000000 1.0
C      1  0.4195470000000  0.5131680000000  0.4687960000000 1.0
C      1  0.5866280000000  0.4747360000000  0.4644290000000 1.0
C      1  0.4153010000000  0.5130860000000  0.5361600000000 1.0
C      1  0.5832380000000  0.4755670000000  0.5316690000000 1.0
C      1  0.4368190000000  0.4267320000000  0.4898820000000 1.0
C      1  0.5855480000000  0.5625890000000  0.4832410000000 1.0
C      1  0.4349230000000  0.4264930000000  0.5165830000000 1.0
C      1  0.5835700000000  0.5628720000000  0.5099440000000 1.0
C      1  0.4551380000000  0.5832020000000  0.5780680000000 1.0
C      1  0.5293370000000  0.4167870000000  0.5742700000000 1.0
C      1  0.4567760000000  0.5822170000000  0.4237180000000 1.0
C      1  0.5313490000000  0.4161610000000  0.4237520000000 1.0
C      1  0.5304630000000  0.4557810000000  0.4862720000000 1.0
C      1  0.4788370000000  0.5633980000000  0.4869440000000 1.0
C      1  0.5259150000000  0.4560680000000  0.5123800000000 1.0
C      1  0.4749720000000  0.5625120000000  0.5132290000000 1.0
C      1  0.4317260000000  0.4817330000000  0.5031950000000 1.0
C      1  0.5753070000000  0.5082330000000  0.4971180000000 1.0
C      1  0.5129640000000  0.5111620000000  0.4955990000000 1.0
END
