TITL C-3201375-1262-208 -7.7187211160606e-07 125000 -767.291451939286 0 0 125 (C1) n - 1
REM
REM in /home/nfs/bkarasulu/CARBON/AIRSS/Generating-Clusters/LCBOP/Higher-Symm/SD-CG/FIRE-CG
REM
REM
REM
REM
REM
REM ./C.cell (b20cbc046b6831c77cfcea5457e17084)
REM AIRSS Version 0.9.1 bugfix July 2018 build 013d7b7c2542+ Fri, 06 Jul 2018 19:26:36 +0100
REM compiler GCC version 9.2.1 20190827 (Red Hat 9.2.1-1)
REM options -cpp -mtune=generic -march=x86-64 -g -O0 -fpre-include=/usr/include/finclude/math-vector-fortran.h
REM seed 593881263 -1359980806 1095786820 1698738264 1813618468 -1575475763 1787819160 -147978201 -291222702 1115211206 -885505535 1731239226 -1910790312 329876081 -1384936353 -1056568411 44679054 -942041327 -1326813273 -1750697927 1091330421 176689894 -1195119780 -648445567 -1331421382 -1414272749 549162004 -808514959 -1383956911 -857320178 63416097 -1389241277 -1841440749
REM
CELL 1.54180   50.00000   50.00000   50.00000   90.00000   90.00000   90.00000
LATT -1
SFAC C  
C      1  0.4804540000000  0.6116600000000  0.4601630000000 1.0
C      1  0.4079730000000  0.4537870000000  0.5202170000000 1.0
C      1  0.4429210000000  0.5898910000000  0.4824160000000 1.0
C      1  0.4924540000000  0.4917780000000  0.5623310000000 1.0
C      1  0.4530840000000  0.4570560000000  0.5069970000000 1.0
C      1  0.5496320000000  0.4681120000000  0.5083460000000 1.0
C      1  0.4538600000000  0.5121910000000  0.5156430000000 1.0
C      1  0.4871690000000  0.5754260000000  0.5208040000000 1.0
C      1  0.5119130000000  0.4659140000000  0.4055480000000 1.0
C      1  0.4718160000000  0.4751290000000  0.4486430000000 1.0
C      1  0.4849630000000  0.5686750000000  0.5887020000000 1.0
C      1  0.5245930000000  0.4742070000000  0.5966240000000 1.0
C      1  0.5312730000000  0.4478450000000  0.5860260000000 1.0
C      1  0.4488280000000  0.5531010000000  0.5448030000000 1.0
C      1  0.5772810000000  0.5023330000000  0.5736180000000 1.0
C      1  0.4951180000000  0.5337630000000  0.4052070000000 1.0
C      1  0.5578320000000  0.5197220000000  0.5805210000000 1.0
C      1  0.5307850000000  0.5938350000000  0.5340940000000 1.0
C      1  0.5194750000000  0.5949790000000  0.5601450000000 1.0
C      1  0.4254500000000  0.4722160000000  0.5019730000000 1.0
C      1  0.4897200000000  0.4111640000000  0.4379980000000 1.0
C      1  0.5478860000000  0.5137160000000  0.4751220000000 1.0
C      1  0.5360730000000  0.5307120000000  0.5655840000000 1.0
C      1  0.5019660000000  0.4508090000000  0.4747260000000 1.0
C      1  0.5422670000000  0.5350880000000  0.4136770000000 1.0
C      1  0.5559240000000  0.4200540000000  0.4848930000000 1.0
C      1  0.5293710000000  0.4428850000000  0.4058060000000 1.0
C      1  0.4366150000000  0.5368740000000  0.5656260000000 1.0
C      1  0.5190630000000  0.5498090000000  0.4916180000000 1.0
C      1  0.5192180000000  0.4107130000000  0.4437660000000 1.0
C      1  0.5564750000000  0.4177140000000  0.5147380000000 1.0
C      1  0.4222910000000  0.4968230000000  0.5444280000000 1.0
C      1  0.4539200000000  0.4084060000000  0.5043140000000 1.0
C      1  0.4192390000000  0.5189270000000  0.4565680000000 1.0
C      1  0.5042050000000  0.4168380000000  0.5120140000000 1.0
C      1  0.5020760000000  0.5508390000000  0.4694840000000 1.0
C      1  0.5842310000000  0.4808960000000  0.5566550000000 1.0
C      1  0.5511760000000  0.5729490000000  0.5320890000000 1.0
C      1  0.4776900000000  0.5380740000000  0.4744970000000 1.0
C      1  0.4910070000000  0.5822500000000  0.4232730000000 1.0
C      1  0.5973130000000  0.4836950000000  0.5319100000000 1.0
C      1  0.5106020000000  0.4273600000000  0.4869390000000 1.0
C      1  0.4835970000000  0.4576250000000  0.4091290000000 1.0
C      1  0.6186740000000  0.4810510000000  0.4885070000000 1.0
C      1  0.5848750000000  0.5528980000000  0.4533140000000 1.0
C      1  0.5476560000000  0.4415140000000  0.5623200000000 1.0
C      1  0.4263540000000  0.4998590000000  0.5145200000000 1.0
C      1  0.5461800000000  0.5461590000000  0.5417850000000 1.0
C      1  0.5154140000000  0.5102380000000  0.5559240000000 1.0
C      1  0.5151500000000  0.4125270000000  0.5375760000000 1.0
C      1  0.4187930000000  0.4740500000000  0.4731130000000 1.0
C      1  0.4420210000000  0.4797870000000  0.5556170000000 1.0
C      1  0.4826790000000  0.4293300000000  0.4160280000000 1.0
C      1  0.5094730000000  0.5803750000000  0.5806120000000 1.0
C      1  0.4794250000000  0.5410550000000  0.5962570000000 1.0
C      1  0.4630040000000  0.5838240000000  0.5785620000000 1.0
C      1  0.4992250000000  0.5214320000000  0.6053910000000 1.0
C      1  0.5681250000000  0.5745490000000  0.4600000000000 1.0
C      1  0.4621040000000  0.4733350000000  0.4222290000000 1.0
C      1  0.4521420000000  0.5794660000000  0.5541320000000 1.0
C      1  0.4329720000000  0.4752990000000  0.4262200000000 1.0
C      1  0.5738640000000  0.4630580000000  0.4950210000000 1.0
C      1  0.5675320000000  0.4685400000000  0.4326360000000 1.0
C      1  0.4168810000000  0.5375850000000  0.4793480000000 1.0
C      1  0.4524730000000  0.5006960000000  0.5942120000000 1.0
C      1  0.4247460000000  0.4246970000000  0.4270670000000 1.0
C      1  0.5443850000000  0.5254560000000  0.5211500000000 1.0
C      1  0.3999250000000  0.5348050000000  0.5312530000000 1.0
C      1  0.5717130000000  0.4561680000000  0.5611480000000 1.0
C      1  0.5009690000000  0.4659760000000  0.5233470000000 1.0
C      1  0.4142010000000  0.5227540000000  0.5543830000000 1.0
C      1  0.4628020000000  0.3992120000000  0.4805200000000 1.0
C      1  0.5790410000000  0.4475890000000  0.4480070000000 1.0
C      1  0.4297100000000  0.4558240000000  0.5916170000000 1.0
C      1  0.5418120000000  0.4230230000000  0.5398490000000 1.0
C      1  0.4736940000000  0.4988210000000  0.5016160000000 1.0
C      1  0.4324900000000  0.4532210000000  0.5628170000000 1.0
C      1  0.5046830000000  0.5555410000000  0.5156770000000 1.0
C      1  0.5349320000000  0.6005660000000  0.4833110000000 1.0
C      1  0.5614960000000  0.5868310000000  0.4852600000000 1.0
C      1  0.5137470000000  0.4766300000000  0.4667690000000 1.0
C      1  0.4910950000000  0.4930320000000  0.4584290000000 1.0
C      1  0.4227910000000  0.4907040000000  0.4499530000000 1.0
C      1  0.5409660000000  0.5325520000000  0.4943120000000 1.0
C      1  0.4771990000000  0.4718490000000  0.5087680000000 1.0
C      1  0.5262380000000  0.5964010000000  0.4550520000000 1.0
C      1  0.5693170000000  0.5779470000000  0.5108480000000 1.0
C      1  0.4893370000000  0.5995330000000  0.5057780000000 1.0
C      1  0.4868790000000  0.5586580000000  0.4112250000000 1.0
C      1  0.4999350000000  0.5989640000000  0.4442980000000 1.0
C      1  0.4414040000000  0.4068650000000  0.4382810000000 1.0
C      1  0.4256790000000  0.4384170000000  0.5388480000000 1.0
C      1  0.5716360000000  0.4425570000000  0.4751360000000 1.0
C      1  0.5229440000000  0.4263840000000  0.6013530000000 1.0
C      1  0.5424120000000  0.5624080000000  0.4200670000000 1.0
C      1  0.5834410000000  0.5303190000000  0.4384430000000 1.0
C      1  0.5461740000000  0.5800800000000  0.4415350000000 1.0
C      1  0.5636870000000  0.5177500000000  0.4227470000000 1.0
C      1  0.4691820000000  0.6033460000000  0.4847980000000 1.0
C      1  0.4198570000000  0.4504880000000  0.4209670000000 1.0
C      1  0.5541520000000  0.4902520000000  0.4205190000000 1.0
C      1  0.5129810000000  0.4975330000000  0.6055430000000 1.0
C      1  0.4968610000000  0.4655270000000  0.5511150000000 1.0
C      1  0.4658860000000  0.4024960000000  0.4524940000000 1.0
C      1  0.4647290000000  0.4911820000000  0.5694540000000 1.0
C      1  0.4090770000000  0.5245240000000  0.5050140000000 1.0
C      1  0.5982860000000  0.4318010000000  0.4364620000000 1.0
C      1  0.4755690000000  0.4513420000000  0.4635380000000 1.0
C      1  0.5378070000000  0.4902160000000  0.4675620000000 1.0
C      1  0.5189590000000  0.6040710000000  0.5076260000000 1.0
C      1  0.5259670000000  0.4786540000000  0.5180540000000 1.0
C      1  0.5025300000000  0.3979210000000  0.5567510000000 1.0
C      1  0.4589990000000  0.5496520000000  0.4926550000000 1.0
C      1  0.4557960000000  0.5402790000000  0.5198850000000 1.0
C      1  0.5258890000000  0.4906900000000  0.4096830000000 1.0
C      1  0.5339140000000  0.4214360000000  0.4217110000000 1.0
C      1  0.5973070000000  0.4759330000000  0.5047120000000 1.0
C      1  0.4809810000000  0.5104760000000  0.4772060000000 1.0
C      1  0.5304080000000  0.4142370000000  0.4708100000000 1.0
C      1  0.5279840000000  0.5038500000000  0.5301070000000 1.0
C      1  0.4528510000000  0.5293260000000  0.5894640000000 1.0
C      1  0.4371070000000  0.4790160000000  0.6052800000000 1.0
C      1  0.4351700000000  0.5616740000000  0.4818880000000 1.0
C      1  0.4475400000000  0.4310480000000  0.5198160000000 1.0
C      1  0.5189100000000  0.5190330000000  0.4070260000000 1.0
END
