TITL C-3201372-1405-566 -2.16692136786711e-07 125000 -1129.11223659847 0 0 187 (C1) n - 1
REM
REM in /home/nfs/bkarasulu/CARBON/AIRSS/Generating-Clusters/LCBOP/Higher-Symm/SD-CG/FIRE-CG
REM
REM
REM
REM
REM
REM ./C.cell (b20cbc046b6831c77cfcea5457e17084)
REM AIRSS Version 0.9.1 bugfix July 2018 build 013d7b7c2542+ Fri, 06 Jul 2018 19:26:36 +0100
REM compiler GCC version 9.2.1 20190827 (Red Hat 9.2.1-1)
REM options -cpp -mtune=generic -march=x86-64 -g -O0 -fpre-include=/usr/include/finclude/math-vector-fortran.h
REM seed 359687949 -977890745 -784325409 -401074152 1804221207 1573314985 980929958 -999971103 -350106985 -341643331 1478255309 1216012884 -1420598713 -309704775 1702774515 -677378208 227574399 1579387804 730333613 -98286887 -1535750237 -1559614954 1930809787 149804333 148885456 589754091 -113604838 952719430 141686189 1978291320 -1887292749 -1054426790 175586188
REM
CELL 1.54180   50.00000   50.00000   50.00000   90.00000   90.00000   90.00000
LATT -1
SFAC C  
C      1  0.4365780000000  0.4442080000000  0.5015390000000 1.0
C      1  0.4358090000000  0.4778050000000  0.4482810000000 1.0
C      1  0.4439890000000  0.5392210000000  0.4653830000000 1.0
C      1  0.4354210000000  0.5493660000000  0.5285770000000 1.0
C      1  0.4455460000000  0.4897680000000  0.5487660000000 1.0
C      1  0.3795910000000  0.5027730000000  0.5719220000000 1.0
C      1  0.3808920000000  0.4283520000000  0.5235330000000 1.0
C      1  0.3782580000000  0.4594180000000  0.4410450000000 1.0
C      1  0.3764460000000  0.5446060000000  0.4395110000000 1.0
C      1  0.3821390000000  0.5686820000000  0.5258230000000 1.0
C      1  0.5408750000000  0.4136080000000  0.5553340000000 1.0
C      1  0.5429770000000  0.4241000000000  0.4360630000000 1.0
C      1  0.5429680000000  0.5389920000000  0.4065740000000 1.0
C      1  0.5415930000000  0.5990170000000  0.5067820000000 1.0
C      1  0.5495000000000  0.5242790000000  0.5987210000000 1.0
C      1  0.4961250000000  0.4011400000000  0.4569300000000 1.0
C      1  0.4968030000000  0.5105920000000  0.3926530000000 1.0
C      1  0.4950750000000  0.6041530000000  0.4760840000000 1.0
C      1  0.4990440000000  0.5536320000000  0.5935250000000 1.0
C      1  0.4934920000000  0.4293550000000  0.5802000000000 1.0
C      1  0.5205040000000  0.3992090000000  0.5405800000000 1.0
C      1  0.5215430000000  0.4312810000000  0.4171320000000 1.0
C      1  0.5211750000000  0.5593690000000  0.4075510000000 1.0
C      1  0.5208860000000  0.6054500000000  0.5266070000000 1.0
C      1  0.5326760000000  0.5000470000000  0.6017380000000 1.0
C      1  0.4200020000000  0.4945590000000  0.4711390000000 1.0
C      1  0.4241150000000  0.5241110000000  0.4835430000000 1.0
C      1  0.4230720000000  0.5187080000000  0.5154850000000 1.0
C      1  0.4244500000000  0.4875300000000  0.5238450000000 1.0
C      1  0.4202020000000  0.4719470000000  0.4952320000000 1.0
C      1  0.5810610000000  0.5906500000000  0.4699040000000 1.0
C      1  0.5846790000000  0.5612840000000  0.5764780000000 1.0
C      1  0.5781580000000  0.4489060000000  0.5791990000000 1.0
C      1  0.5829330000000  0.4093550000000  0.4723300000000 1.0
C      1  0.5827380000000  0.5000110000000  0.4059380000000 1.0
C      1  0.5538830000000  0.3965210000000  0.5078760000000 1.0
C      1  0.5538410000000  0.4622880000000  0.4051380000000 1.0
C      1  0.5527240000000  0.5791850000000  0.4342740000000 1.0
C      1  0.5535220000000  0.5877180000000  0.5540380000000 1.0
C      1  0.5741450000000  0.4869870000000  0.6126210000000 1.0
C      1  0.6156660000000  0.4902740000000  0.4753350000000 1.0
C      1  0.6152190000000  0.5223820000000  0.4827350000000 1.0
C      1  0.6153660000000  0.5249200000000  0.5153260000000 1.0
C      1  0.6151810000000  0.4950920000000  0.5278490000000 1.0
C      1  0.6142280000000  0.4738350000000  0.5035170000000 1.0
C      1  0.6071490000000  0.4890500000000  0.5573830000000 1.0
C      1  0.6048380000000  0.4443180000000  0.5049080000000 1.0
C      1  0.6062530000000  0.4792900000000  0.4474610000000 1.0
C      1  0.6028580000000  0.5444930000000  0.4638090000000 1.0
C      1  0.6039440000000  0.5500610000000  0.5299620000000 1.0
C      1  0.5116340000000  0.5237460000000  0.4399020000000 1.0
C      1  0.5026560000000  0.5602870000000  0.5060160000000 1.0
C      1  0.5103100000000  0.5156680000000  0.5615500000000 1.0
C      1  0.5080390000000  0.4464430000000  0.5329400000000 1.0
C      1  0.5025190000000  0.4534560000000  0.4603690000000 1.0
C      1  0.5309390000000  0.4769280000000  0.5035880000000 1.0
C      1  0.5314630000000  0.4891660000000  0.4789660000000 1.0
C      1  0.5322240000000  0.5165890000000  0.4826700000000 1.0
C      1  0.5306790000000  0.5212210000000  0.5096360000000 1.0
C      1  0.5272750000000  0.4969670000000  0.5218470000000 1.0
C      1  0.3933160000000  0.5225690000000  0.5241760000000 1.0
C      1  0.3987130000000  0.4758190000000  0.5387840000000 1.0
C      1  0.3901830000000  0.4631170000000  0.4924930000000 1.0
C      1  0.3899360000000  0.4985730000000  0.4629200000000 1.0
C      1  0.3980690000000  0.5433800000000  0.4811870000000 1.0
C      1  0.5501520000000  0.4502840000000  0.5896180000000 1.0
C      1  0.5554030000000  0.4012120000000  0.4790650000000 1.0
C      1  0.5554780000000  0.4909610000000  0.4006980000000 1.0
C      1  0.5538090000000  0.5918600000000  0.4599850000000 1.0
C      1  0.5563130000000  0.5684540000000  0.5756780000000 1.0
C      1  0.4751370000000  0.4632940000000  0.4682540000000 1.0
C      1  0.4781660000000  0.5072790000000  0.4665610000000 1.0
C      1  0.4766800000000  0.5473980000000  0.5137520000000 1.0
C      1  0.4719150000000  0.5215790000000  0.5246930000000 1.0
C      1  0.4763620000000  0.4656070000000  0.5127430000000 1.0
C      1  0.4561330000000  0.4482480000000  0.5220670000000 1.0
C      1  0.4512540000000  0.4548590000000  0.4562330000000 1.0
C      1  0.4606590000000  0.5222670000000  0.4501570000000 1.0
C      1  0.4523950000000  0.5616750000000  0.5112930000000 1.0
C      1  0.4612900000000  0.5139270000000  0.5506150000000 1.0
C      1  0.4408630000000  0.5585140000000  0.5600710000000 1.0
C      1  0.4407690000000  0.4650690000000  0.5674420000000 1.0
C      1  0.4381520000000  0.4165290000000  0.4851560000000 1.0
C      1  0.4398370000000  0.4872720000000  0.4184290000000 1.0
C      1  0.4391470000000  0.5704420000000  0.4645590000000 1.0
C      1  0.5186120000000  0.4788580000000  0.4583520000000 1.0
C      1  0.5195090000000  0.5327430000000  0.4659900000000 1.0
C      1  0.5213600000000  0.5427350000000  0.5217230000000 1.0
C      1  0.5108480000000  0.4942730000000  0.5425900000000 1.0
C      1  0.5199960000000  0.4530920000000  0.5077070000000 1.0
C      1  0.5026340000000  0.4477830000000  0.4300650000000 1.0
C      1  0.5040610000000  0.5497220000000  0.4282340000000 1.0
C      1  0.5030270000000  0.5836050000000  0.5267590000000 1.0
C      1  0.5098080000000  0.4995930000000  0.5860650000000 1.0
C      1  0.5031240000000  0.4177730000000  0.5281790000000 1.0
C      1  0.5655430000000  0.4142690000000  0.5302260000000 1.0
C      1  0.5644530000000  0.4462860000000  0.4292500000000 1.0
C      1  0.5630010000000  0.5512380000000  0.4276570000000 1.0
C      1  0.5624340000000  0.5842710000000  0.5248610000000 1.0
C      1  0.5780970000000  0.5121610000000  0.5976330000000 1.0
C      1  0.4879090000000  0.5739520000000  0.5747580000000 1.0
C      1  0.4834070000000  0.4546630000000  0.5914170000000 1.0
C      1  0.4850240000000  0.3975690000000  0.4842120000000 1.0
C      1  0.4861020000000  0.4833210000000  0.3969540000000 1.0
C      1  0.4833020000000  0.5910020000000  0.4521410000000 1.0
C      1  0.4705200000000  0.4205260000000  0.5618780000000 1.0
C      1  0.4709460000000  0.4121370000000  0.4415950000000 1.0
C      1  0.4725730000000  0.5274210000000  0.4018100000000 1.0
C      1  0.4709890000000  0.6035260000000  0.4954200000000 1.0
C      1  0.4750510000000  0.5343640000000  0.5948540000000 1.0
C      1  0.4576400000000  0.5343700000000  0.5706340000000 1.0
C      1  0.4539890000000  0.4424670000000  0.5504650000000 1.0
C      1  0.4495960000000  0.4259130000000  0.4579910000000 1.0
C      1  0.4559070000000  0.5140750000000  0.4226320000000 1.0
C      1  0.4516750000000  0.5812570000000  0.4906930000000 1.0
C      1  0.5702500000000  0.5446390000000  0.4985710000000 1.0
C      1  0.5635940000000  0.5243370000000  0.5483270000000 1.0
C      1  0.5555840000000  0.4594090000000  0.5416560000000 1.0
C      1  0.5605940000000  0.4489670000000  0.4813900000000 1.0
C      1  0.5704080000000  0.5118750000000  0.4540770000000 1.0
C      1  0.3933250000000  0.4825680000000  0.5851190000000 1.0
C      1  0.3908890000000  0.4088680000000  0.5076030000000 1.0
C      1  0.3907680000000  0.4677570000000  0.4182520000000 1.0
C      1  0.3906180000000  0.5683270000000  0.4415710000000 1.0
C      1  0.3921570000000  0.5739610000000  0.5504840000000 1.0
C      1  0.5701720000000  0.5072440000000  0.5282460000000 1.0
C      1  0.5683300000000  0.4802480000000  0.5334540000000 1.0
C      1  0.5716390000000  0.4723510000000  0.4815060000000 1.0
C      1  0.5733200000000  0.4998390000000  0.4791640000000 1.0
C      1  0.5728920000000  0.5166920000000  0.5017100000000 1.0
C      1  0.5327920000000  0.4062040000000  0.4577270000000 1.0
C      1  0.5332820000000  0.5124230000000  0.3973470000000 1.0
C      1  0.5314700000000  0.5997670000000  0.4791670000000 1.0
C      1  0.5356210000000  0.5504020000000  0.5912410000000 1.0
C      1  0.5297420000000  0.4300960000000  0.5775810000000 1.0
C      1  0.5105080000000  0.4379110000000  0.4856780000000 1.0
C      1  0.5119570000000  0.4949310000000  0.4360150000000 1.0
C      1  0.5074150000000  0.5566190000000  0.4755180000000 1.0
C      1  0.5139300000000  0.5419810000000  0.5492860000000 1.0
C      1  0.5053240000000  0.4679690000000  0.5516270000000 1.0
C      1  0.4098480000000  0.4663610000000  0.5672520000000 1.0
C      1  0.4103170000000  0.4056790000000  0.4891070000000 1.0
C      1  0.4115340000000  0.4824860000000  0.4084900000000 1.0
C      1  0.4083420000000  0.5691190000000  0.4645740000000 1.0
C      1  0.4128650000000  0.5675330000000  0.5668620000000 1.0
C      1  0.5482870000000  0.4752110000000  0.6057020000000 1.0
C      1  0.5329420000000  0.3819730000000  0.5213940000000 1.0
C      1  0.5336520000000  0.4444000000000  0.3945600000000 1.0
C      1  0.5329690000000  0.5846500000000  0.4139580000000 1.0
C      1  0.5338100000000  0.6089060000000  0.5520970000000 1.0
C      1  0.4586730000000  0.3961820000000  0.4960320000000 1.0
C      1  0.4597980000000  0.4709930000000  0.4004970000000 1.0
C      1  0.4563760000000  0.5838980000000  0.4426460000000 1.0
C      1  0.4613710000000  0.5820820000000  0.5645490000000 1.0
C      1  0.4568590000000  0.4663550000000  0.5935740000000 1.0
C      1  0.5890710000000  0.4556440000000  0.4415100000000 1.0
C      1  0.5806330000000  0.5366310000000  0.4456400000000 1.0
C      1  0.5807490000000  0.5632730000000  0.5168980000000 1.0
C      1  0.5982390000000  0.5092580000000  0.5769150000000 1.0
C      1  0.5886760000000  0.4307920000000  0.5256520000000 1.0
C      1  0.5006230000000  0.4148110000000  0.4995760000000 1.0
C      1  0.5017620000000  0.4745880000000  0.4184390000000 1.0
C      1  0.4985740000000  0.5675670000000  0.4502160000000 1.0
C      1  0.5035440000000  0.5687960000000  0.5520230000000 1.0
C      1  0.5006630000000  0.4733080000000  0.5795750000000 1.0
C      1  0.6026230000000  0.4261560000000  0.4818810000000 1.0
C      1  0.6034590000000  0.4957770000000  0.4234360000000 1.0
C      1  0.6016040000000  0.5726120000000  0.4696180000000 1.0
C      1  0.6041620000000  0.5555590000000  0.5581140000000 1.0
C      1  0.5988020000000  0.4625990000000  0.5670840000000 1.0
C      1  0.4669510000000  0.6142720000000  0.5218130000000 1.0
C      1  0.4672160000000  0.5138450000000  0.6128880000000 1.0
C      1  0.4646140000000  0.3958040000000  0.5487970000000 1.0
C      1  0.4671880000000  0.4196660000000  0.4140170000000 1.0
C      1  0.4647760000000  0.5548000000000  0.3991140000000 1.0
C      1  0.3843560000000  0.4561920000000  0.5202340000000 1.0
C      1  0.3794580000000  0.4716080000000  0.4667200000000 1.0
C      1  0.3818320000000  0.5259570000000  0.4610000000000 1.0
C      1  0.3857180000000  0.5462010000000  0.5090320000000 1.0
C      1  0.3840150000000  0.5030350000000  0.5432360000000 1.0
C      1  0.4592970000000  0.4421840000000  0.4007620000000 1.0
C      1  0.4552660000000  0.5742660000000  0.4156150000000 1.0
C      1  0.4605260000000  0.6047220000000  0.5465960000000 1.0
C      1  0.4557540000000  0.4893760000000  0.6104210000000 1.0
C      1  0.4574150000000  0.3883830000000  0.5236360000000 1.0
C      1  0.4597440000000  0.5059820000000  0.5062770000000 1.0
C      1  0.4733140000000  0.4858300000000  0.4886930000000 1.0
END
