TITL C-3201376-6384-1192 0.00328769071597339 125000 -841.032824836502 0 0 140 (C1) n - 1
REM
REM in /home/nfs/bkarasulu/CARBON/AIRSS/Generating-Clusters/LCBOP/Higher-Symm/SD-CG/FIRE-CG
REM
REM
REM
REM
REM
REM ./C.cell (b20cbc046b6831c77cfcea5457e17084)
REM AIRSS Version 0.9.1 bugfix July 2018 build 013d7b7c2542+ Fri, 06 Jul 2018 19:26:36 +0100
REM compiler GCC version 9.2.1 20190827 (Red Hat 9.2.1-1)
REM options -cpp -mtune=generic -march=x86-64 -g -O0 -fpre-include=/usr/include/finclude/math-vector-fortran.h
REM seed 173153686 896290621 -1409064465 -340719368 -1247491433 -1995368285 1828061392 1970350114 -872064197 -1666072928 -224637787 787942505 1560073344 1791491163 -1947105122 227059832 189044080 -1113480237 -1502858273 -2068165905 1632923226 1584893810 -1048997286 -492678955 239142537 1447423294 -655130008 391707651 -934997962 -998654048 -1753146439 1085612221 1008386658
REM
CELL 1.54180   50.00000   50.00000   50.00000   90.00000   90.00000   90.00000
LATT -1
SFAC C  
C      1  0.6048020000000  0.3800210000000  0.6568890000000 1.0
C      1  0.5843810000000  0.3971630000000  0.3250900000000 1.0
C      1  0.2960890000000  0.4192390000000  0.5264490000000 1.0
C      1  0.5375600000000  0.4874620000000  0.5973630000000 1.0
C      1  0.5722180000000  0.4935930000000  0.4217930000000 1.0
C      1  0.4059870000000  0.5006940000000  0.4944580000000 1.0
C      1  0.4580170000000  0.4985280000000  0.4616480000000 1.0
C      1  0.4827200000000  0.4893780000000  0.5065570000000 1.0
C      1  0.5264350000000  0.5086430000000  0.4976220000000 1.0
C      1  0.4713270000000  0.5606530000000  0.5782490000000 1.0
C      1  0.5795490000000  0.5658590000000  0.4863200000000 1.0
C      1  0.4455920000000  0.5659820000000  0.4328080000000 1.0
C      1  0.5361400000000  0.4894660000000  0.5478040000000 1.0
C      1  0.5262900000000  0.4889880000000  0.4264840000000 1.0
C      1  0.4530920000000  0.4838970000000  0.5060770000000 1.0
C      1  0.4789280000000  0.5841030000000  0.4730620000000 1.0
C      1  0.4895950000000  0.5775340000000  0.5310390000000 1.0
C      1  0.5286860000000  0.5876020000000  0.4890580000000 1.0
C      1  0.5520940000000  0.5432490000000  0.5183740000000 1.0
C      1  0.4798420000000  0.5337140000000  0.4372150000000 1.0
C      1  0.4636840000000  0.5255480000000  0.5450390000000 1.0
C      1  0.4886700000000  0.5271920000000  0.5305820000000 1.0
C      1  0.5247900000000  0.5503500000000  0.5150760000000 1.0
C      1  0.4679290000000  0.5243540000000  0.4614670000000 1.0
C      1  0.5279850000000  0.5003370000000  0.6211290000000 1.0
C      1  0.5975480000000  0.5064330000000  0.4228120000000 1.0
C      1  0.3944170000000  0.5180570000000  0.4747970000000 1.0
C      1  0.5479610000000  0.5064770000000  0.4289880000000 1.0
C      1  0.4321880000000  0.5074080000000  0.5055980000000 1.0
C      1  0.5361980000000  0.5023370000000  0.5731220000000 1.0
C      1  0.5645460000000  0.4239020000000  0.6048840000000 1.0
C      1  0.5610440000000  0.4325200000000  0.3918410000000 1.0
C      1  0.3700050000000  0.4430270000000  0.5115740000000 1.0
C      1  0.5766850000000  0.4088180000000  0.3471030000000 1.0
C      1  0.3204630000000  0.4270790000000  0.5215370000000 1.0
C      1  0.5915190000000  0.3944870000000  0.6397440000000 1.0
C      1  0.5299730000000  0.5297730000000  0.5741670000000 1.0
C      1  0.5429890000000  0.5294340000000  0.4452960000000 1.0
C      1  0.4446850000000  0.5328140000000  0.5010420000000 1.0
C      1  0.4624300000000  0.4849570000000  0.6039890000000 1.0
C      1  0.6091960000000  0.4873630000000  0.4880560000000 1.0
C      1  0.4288060000000  0.4913090000000  0.4186430000000 1.0
C      1  0.4086790000000  0.4668200000000  0.4599470000000 1.0
C      1  0.5049580000000  0.4540410000000  0.6073570000000 1.0
C      1  0.5945330000000  0.4582760000000  0.4457160000000 1.0
C      1  0.4001600000000  0.4728180000000  0.4877210000000 1.0
C      1  0.5319070000000  0.4589350000000  0.5970670000000 1.0
C      1  0.5728380000000  0.4642470000000  0.4267210000000 1.0
C      1  0.4910950000000  0.5828080000000  0.4461500000000 1.0
C      1  0.4608470000000  0.5740730000000  0.5300860000000 1.0
C      1  0.5437100000000  0.5908540000000  0.5145380000000 1.0
C      1  0.5672280000000  0.5810200000000  0.4643040000000 1.0
C      1  0.4359060000000  0.5809310000000  0.4558330000000 1.0
C      1  0.4991940000000  0.5739280000000  0.5745730000000 1.0
C      1  0.4348760000000  0.4574200000000  0.4630160000000 1.0
C      1  0.5155830000000  0.4715220000000  0.5377280000000 1.0
C      1  0.5535440000000  0.4766430000000  0.4678940000000 1.0
C      1  0.4382460000000  0.4242430000000  0.5051630000000 1.0
C      1  0.5334290000000  0.4245540000000  0.5424350000000 1.0
C      1  0.5227150000000  0.4200290000000  0.4479270000000 1.0
C      1  0.6164760000000  0.4993890000000  0.4411610000000 1.0
C      1  0.3936010000000  0.5104750000000  0.4484860000000 1.0
C      1  0.5027300000000  0.4949940000000  0.6301850000000 1.0
C      1  0.4749650000000  0.5618130000000  0.4324580000000 1.0
C      1  0.4571910000000  0.5538800000000  0.5524290000000 1.0
C      1  0.5648820000000  0.5685450000000  0.5117190000000 1.0
C      1  0.5526250000000  0.4454660000000  0.4156000000000 1.0
C      1  0.3961730000000  0.4516330000000  0.5065770000000 1.0
C      1  0.5504490000000  0.4396830000000  0.5864440000000 1.0
C      1  0.5446080000000  0.6220150000000  0.5532460000000 1.0
C      1  0.5252850000000  0.6024960000000  0.4165290000000 1.0
C      1  0.4199220000000  0.5974230000000  0.5163490000000 1.0
C      1  0.5625910000000  0.4523470000000  0.4757370000000 1.0
C      1  0.4505480000000  0.4409480000000  0.4475110000000 1.0
C      1  0.5046900000000  0.4590120000000  0.5606150000000 1.0
C      1  0.4423680000000  0.4681170000000  0.5915760000000 1.0
C      1  0.6113120000000  0.4695870000000  0.5114520000000 1.0
C      1  0.4506850000000  0.4728940000000  0.4096440000000 1.0
C      1  0.4999290000000  0.4860280000000  0.4359300000000 1.0
C      1  0.4520370000000  0.4732590000000  0.5343890000000 1.0
C      1  0.5567170000000  0.4938180000000  0.5293610000000 1.0
C      1  0.3728710000000  0.6160300000000  0.5305810000000 1.0
C      1  0.5712210000000  0.6589190000000  0.5795610000000 1.0
C      1  0.5380220000000  0.6202260000000  0.3687150000000 1.0
C      1  0.5558690000000  0.4348810000000  0.5581220000000 1.0
C      1  0.5251110000000  0.4374270000000  0.4244630000000 1.0
C      1  0.4178480000000  0.4383700000000  0.5206590000000 1.0
C      1  0.5042420000000  0.5931730000000  0.5509260000000 1.0
C      1  0.5395640000000  0.5912450000000  0.4623880000000 1.0
C      1  0.4512340000000  0.5881770000000  0.4794970000000 1.0
C      1  0.4605870000000  0.5138530000000  0.6027690000000 1.0
C      1  0.6035900000000  0.5160740000000  0.4904180000000 1.0
C      1  0.4307030000000  0.5193320000000  0.4116800000000 1.0
C      1  0.5149450000000  0.5508710000000  0.5643880000000 1.0
C      1  0.5297970000000  0.5430300000000  0.4647240000000 1.0
C      1  0.4670980000000  0.5396470000000  0.4848310000000 1.0
C      1  0.5780150000000  0.4091950000000  0.6223120000000 1.0
C      1  0.5688600000000  0.4206670000000  0.3694840000000 1.0
C      1  0.3452430000000  0.4350500000000  0.5165430000000 1.0
C      1  0.4664900000000  0.5399650000000  0.5979420000000 1.0
C      1  0.5955760000000  0.5416760000000  0.4848380000000 1.0
C      1  0.4316040000000  0.5455370000000  0.4185930000000 1.0
C      1  0.4806250000000  0.4483020000000  0.5641030000000 1.0
C      1  0.5662210000000  0.4488470000000  0.5019370000000 1.0
C      1  0.4773040000000  0.4411850000000  0.4555110000000 1.0
C      1  0.4533600000000  0.4988780000000  0.5497710000000 1.0
C      1  0.5507560000000  0.5155920000000  0.5127130000000 1.0
C      1  0.4872130000000  0.5095450000000  0.4246770000000 1.0
C      1  0.5207020000000  0.4084450000000  0.4985320000000 1.0
C      1  0.4825420000000  0.4210750000000  0.4747900000000 1.0
C      1  0.4820660000000  0.4284610000000  0.5227880000000 1.0
C      1  0.5304920000000  0.4873560000000  0.4789790000000 1.0
C      1  0.4503010000000  0.4764010000000  0.4773060000000 1.0
C      1  0.5025390000000  0.4686280000000  0.5096780000000 1.0
C      1  0.5099080000000  0.4125510000000  0.4728290000000 1.0
C      1  0.4666270000000  0.4211990000000  0.4994210000000 1.0
C      1  0.5115590000000  0.4197660000000  0.5236410000000 1.0
C      1  0.5306710000000  0.6018150000000  0.5394390000000 1.0
C      1  0.5186530000000  0.5921990000000  0.4417150000000 1.0
C      1  0.4445660000000  0.5862780000000  0.5085240000000 1.0
C      1  0.6030490000000  0.4532900000000  0.5325470000000 1.0
C      1  0.4744750000000  0.4583000000000  0.4060570000000 1.0
C      1  0.4274750000000  0.4540490000000  0.5733360000000 1.0
C      1  0.5580100000000  0.6406310000000  0.5664980000000 1.0
C      1  0.5316990000000  0.6114530000000  0.3924370000000 1.0
C      1  0.3962380000000  0.6068610000000  0.5235450000000 1.0
C      1  0.5167390000000  0.5589350000000  0.4879250000000 1.0
C      1  0.4872710000000  0.5598790000000  0.4857060000000 1.0
C      1  0.5047230000000  0.5506680000000  0.5354920000000 1.0
C      1  0.5657590000000  0.4700860000000  0.5183920000000 1.0
C      1  0.4946730000000  0.4647700000000  0.4565880000000 1.0
C      1  0.4666280000000  0.4477980000000  0.5397550000000 1.0
C      1  0.5829570000000  0.4411550000000  0.5476980000000 1.0
C      1  0.4995720000000  0.4461000000000  0.4103320000000 1.0
C      1  0.4194760000000  0.4428030000000  0.5495750000000 1.0
C      1  0.6102510000000  0.4784700000000  0.4600430000000 1.0
C      1  0.4072010000000  0.4869090000000  0.4389230000000 1.0
C      1  0.4870830000000  0.4752420000000  0.6161350000000 1.0
C      1  0.4988620000000  0.5120490000000  0.5093230000000 1.0
C      1  0.5104800000000  0.4670950000000  0.4812400000000 1.0
END
