TITL C-3201379-3821-352 85.9534913035142 125000 -414.426760356504 0 0 71 (C1) n - 1
REM
REM in /home/nfs/bkarasulu/CARBON/AIRSS/Generating-Clusters/LCBOP/Higher-Symm/SD-CG/FIRE-CG
REM
REM
REM
REM
REM
REM ./C.cell (b20cbc046b6831c77cfcea5457e17084)
REM AIRSS Version 0.9.1 bugfix July 2018 build 013d7b7c2542+ Fri, 06 Jul 2018 19:26:36 +0100
REM compiler GCC version 9.2.1 20190827 (Red Hat 9.2.1-1)
REM options -cpp -mtune=generic -march=x86-64 -g -O0 -fpre-include=/usr/include/finclude/math-vector-fortran.h
REM seed -2053344406 -1946478255 -1068838425 -841182914 -804615260 1588064139 -1524265641 989272867 2017122774 -1160209081 -1588904407 -254589815 218909263 -1011487587 1136236322 -1259754147 -1085670979 424041462 1638158515 -702339191 987114256 -678527710 2032734620 -1793560197 -1575668464 -798838919 978790809 1770235037 1687207318 -105452505 -399273521 1834901091 -1843189691
REM
CELL 1.54180   50.00000   50.00000   50.00000   90.00000   90.00000   90.00000
LATT -1
SFAC C  
C      1  0.5150030000000  0.5294220000000  0.5458930000000 1.0
C      1  0.4899810000000  0.5355540000000  0.5326530000000 1.0
C      1  0.4680840000000  0.5202040000000  0.5432820000000 1.0
C      1  0.4697180000000  0.4918940000000  0.5384210000000 1.0
C      1  0.4872530000000  0.4776110000000  0.5558770000000 1.0
C      1  0.5141750000000  0.4822670000000  0.5558960000000 1.0
C      1  0.5257660000000  0.5030390000000  0.5402230000000 1.0
C      1  0.4923690000000  0.5332510000000  0.5024950000000 1.0
C      1  0.4757560000000  0.5095920000000  0.4919320000000 1.0
C      1  0.4729770000000  0.4861310000000  0.5106500000000 1.0
C      1  0.4910260000000  0.4665150000000  0.4998420000000 1.0
C      1  0.5196470000000  0.4752030000000  0.4982090000000 1.0
C      1  0.5279740000000  0.4991190000000  0.5116180000000 1.0
C      1  0.5216460000000  0.5233140000000  0.4971830000000 1.0
C      1  0.3652330000000  0.5225100000000  0.5378630000000 1.0
C      1  0.3970190000000  0.4094590000000  0.5400450000000 1.0
C      1  0.5035970000000  0.3653890000000  0.5394770000000 1.0
C      1  0.6090780000000  0.4205120000000  0.5381220000000 1.0
C      1  0.6324790000000  0.5367140000000  0.5387030000000 1.0
C      1  0.5568580000000  0.6217530000000  0.5427210000000 1.0
C      1  0.4366390000000  0.6187880000000  0.5422520000000 1.0
C      1  0.4694430000000  0.5149940000000  0.4423990000000 1.0
C      1  0.4670640000000  0.4850480000000  0.4400970000000 1.0
C      1  0.4909980000000  0.4689020000000  0.4446580000000 1.0
C      1  0.5195700000000  0.4754280000000  0.4450920000000 1.0
C      1  0.5347360000000  0.5000710000000  0.4410870000000 1.0
C      1  0.5204260000000  0.5252200000000  0.4447750000000 1.0
C      1  0.4936720000000  0.5267710000000  0.4431780000000 1.0
C      1  0.4339030000000  0.4980620000000  0.4724030000000 1.0
C      1  0.4554850000000  0.4508050000000  0.4720710000000 1.0
C      1  0.5135530000000  0.4366220000000  0.4720440000000 1.0
C      1  0.5595380000000  0.4739050000000  0.4722660000000 1.0
C      1  0.5608180000000  0.5259130000000  0.4718970000000 1.0
C      1  0.5157030000000  0.5632570000000  0.4744290000000 1.0
C      1  0.4594460000000  0.5508790000000  0.4747390000000 1.0
C      1  0.4683140000000  0.4183910000000  0.5051500000000 1.0
C      1  0.5443500000000  0.4262720000000  0.5067470000000 1.0
C      1  0.5871160000000  0.4891270000000  0.5079980000000 1.0
C      1  0.5640130000000  0.5598380000000  0.5058380000000 1.0
C      1  0.4924640000000  0.5876570000000  0.5081190000000 1.0
C      1  0.4265220000000  0.5466780000000  0.5084810000000 1.0
C      1  0.4162210000000  0.4717650000000  0.5080990000000 1.0
C      1  0.5315080000000  0.4621210000000  0.4712730000000 1.0
C      1  0.5590890000000  0.4998290000000  0.4585260000000 1.0
C      1  0.5325230000000  0.5376380000000  0.4714320000000 1.0
C      1  0.4886370000000  0.5515800000000  0.4761720000000 1.0
C      1  0.4542430000000  0.5207010000000  0.4706740000000 1.0
C      1  0.4455430000000  0.4749170000000  0.4584930000000 1.0
C      1  0.4862160000000  0.4513440000000  0.4713430000000 1.0
C      1  0.5916420000000  0.5171410000000  0.5093360000000 1.0
C      1  0.5445850000000  0.5806900000000  0.5098240000000 1.0
C      1  0.4634910000000  0.5839560000000  0.5106840000000 1.0
C      1  0.4113080000000  0.5223630000000  0.5095190000000 1.0
C      1  0.4244760000000  0.4446190000000  0.5096830000000 1.0
C      1  0.4953490000000  0.4086820000000  0.5081560000000 1.0
C      1  0.5687730000000  0.4414340000000  0.5087080000000 1.0
C      1  0.5737080000000  0.4672080000000  0.4960960000000 1.0
C      1  0.5746340000000  0.5353210000000  0.4951640000000 1.0
C      1  0.5186360000000  0.5805890000000  0.4971310000000 1.0
C      1  0.4474630000000  0.5628540000000  0.4977690000000 1.0
C      1  0.4186580000000  0.4975060000000  0.4964730000000 1.0
C      1  0.4475120000000  0.4357570000000  0.4951970000000 1.0
C      1  0.5185470000000  0.4207210000000  0.4954420000000 1.0
C      1  0.4994230000000  0.3861540000000  0.5242930000000 1.0
C      1  0.5895820000000  0.4303230000000  0.5238800000000 1.0
C      1  0.6129400000000  0.5269910000000  0.5244600000000 1.0
C      1  0.5511730000000  0.6019720000000  0.5267350000000 1.0
C      1  0.4497530000000  0.6022580000000  0.5269570000000 1.0
C      1  0.3873870000000  0.5227340000000  0.5241390000000 1.0
C      1  0.4100080000000  0.4265820000000  0.5253050000000 1.0
C      1  0.4961360000000  0.4998310000000  0.4729900000000 1.0
END
