TITL C-3201377-4638-1408 -4.40966503747062e-06 125000 -196.883184488459 0 0 34 (C2v) n - 1
REM
REM in /home/nfs/bkarasulu/CARBON/AIRSS/Generating-Clusters/LCBOP/Higher-Symm/SD-CG/FIRE-CG
REM
REM
REM
REM
REM
REM ./C.cell (b20cbc046b6831c77cfcea5457e17084)
REM AIRSS Version 0.9.1 bugfix July 2018 build 013d7b7c2542+ Fri, 06 Jul 2018 19:26:36 +0100
REM compiler GCC version 9.2.1 20190827 (Red Hat 9.2.1-1)
REM options -cpp -mtune=generic -march=x86-64 -g -O0 -fpre-include=/usr/include/finclude/math-vector-fortran.h
REM seed 1746673730 267460463 -1748930083 1965368568 398136272 -1115507239 -706830745 -1696873997 -1498156003 -1652427749 -811063550 1663460293 838315238 -1904839927 1594677140 333283041 -1982576434 1906834706 -596870339 -742512652 -632417557 -1482659752 367244452 -335874562 1280415524 -1985888953 89629730 -1647267562 -882894196 -1206984481 533349276 -1970654116 -134213459
REM
CELL 1.54180   50.00000   50.00000   50.00000   90.00000   90.00000   90.00000
LATT -1
SFAC C  
C      1  0.4968680000000  0.4436690000000  0.4861240000000 1.0
C      1  0.4968730000000  0.5563310000000  0.5138760000000 1.0
C      1  0.4968680000000  0.4436680000000  0.5138720000000 1.0
C      1  0.4968730000000  0.5563320000000  0.4861280000000 1.0
C      1  0.5302800000000  0.5145310000000  0.4529170000000 1.0
C      1  0.5302800000000  0.4854670000000  0.5470820000000 1.0
C      1  0.5302810000000  0.5145280000000  0.5470830000000 1.0
C      1  0.5302780000000  0.4854700000000  0.4529160000000 1.0
C      1  0.4856960000000  0.4615140000000  0.5344640000000 1.0
C      1  0.4856980000000  0.5384880000000  0.4655370000000 1.0
C      1  0.4856950000000  0.4615160000000  0.4655340000000 1.0
C      1  0.4856990000000  0.5384860000000  0.5344660000000 1.0
C      1  0.5504330000000  0.4699730000000  0.5359600000000 1.0
C      1  0.5504350000000  0.5300230000000  0.4640380000000 1.0
C      1  0.5504320000000  0.4699750000000  0.4640370000000 1.0
C      1  0.5504350000000  0.5300210000000  0.5359620000000 1.0
C      1  0.4365420000000  0.5140160000000  0.5197650000000 1.0
C      1  0.4365400000000  0.4859900000000  0.4802360000000 1.0
C      1  0.4365420000000  0.5140170000000  0.4802370000000 1.0
C      1  0.4365410000000  0.4859890000000  0.5197640000000 1.0
C      1  0.5617810000000  0.4616180000000  0.4866700000000 1.0
C      1  0.5617850000000  0.5383770000000  0.5133280000000 1.0
C      1  0.5617820000000  0.4616170000000  0.5133260000000 1.0
C      1  0.5617850000000  0.5383780000000  0.4866730000000 1.0
C      1  0.5031010000000  0.4795720000000  0.4518170000000 1.0
C      1  0.5031040000000  0.5204280000000  0.5481830000000 1.0
C      1  0.5031030000000  0.4795690000000  0.5481820000000 1.0
C      1  0.5031030000000  0.5204310000000  0.4518180000000 1.0
C      1  0.4626330000000  0.5256040000000  0.4766340000000 1.0
C      1  0.4626310000000  0.4743990000000  0.5233670000000 1.0
C      1  0.4626330000000  0.5256030000000  0.5233690000000 1.0
C      1  0.4626300000000  0.4744010000000  0.4766320000000 1.0
C      1  0.4755400000000  0.5137520000000  0.5000010000000 1.0
C      1  0.4755390000000  0.4862500000000  0.5000000000000 1.0
END
