TITL C-3201377-4638-101 4012.6672383436 125000 -727.06633289838 0 0 118 (C1) n - 1
REM
REM in /home/nfs/bkarasulu/CARBON/AIRSS/Generating-Clusters/LCBOP/Higher-Symm/SD-CG/FIRE-CG
REM
REM
REM
REM
REM
REM ./C.cell (b20cbc046b6831c77cfcea5457e17084)
REM AIRSS Version 0.9.1 bugfix July 2018 build 013d7b7c2542+ Fri, 06 Jul 2018 19:26:36 +0100
REM compiler GCC version 9.2.1 20190827 (Red Hat 9.2.1-1)
REM options -cpp -mtune=generic -march=x86-64 -g -O0 -fpre-include=/usr/include/finclude/math-vector-fortran.h
REM seed 1046279175 287672796 687739532 483642580 730213449 1533849092 1814283284 -1217070692 821441762 -950676356 388262846 -1438732709 -1975182007 -72119643 1818082379 -775828994 1405543429 -1909905486 -712350091 -58846091 1033157460 -1309511979 -1388713346 704789072 -390698208 -1312926938 1512611526 -111811092 23523590 1781357763 -774472073 1547716734 349058219
REM
CELL 1.54180   50.00000   50.00000   50.00000   90.00000   90.00000   90.00000
LATT -1
SFAC C  
C      1  0.5229090000000  0.4554250000000  0.4856930000000 1.0
C      1  0.5139350000000  0.5478090000000  0.5124350000000 1.0
C      1  0.4947190000000  0.4471150000000  0.4889820000000 1.0
C      1  0.4878470000000  0.5452290000000  0.5196410000000 1.0
C      1  0.5124150000000  0.5475410000000  0.4833580000000 1.0
C      1  0.5184710000000  0.4578490000000  0.5249850000000 1.0
C      1  0.4857000000000  0.5423120000000  0.4793090000000 1.0
C      1  0.4922770000000  0.4547990000000  0.5191810000000 1.0
C      1  0.4984750000000  0.4164470000000  0.4864540000000 1.0
C      1  0.4936470000000  0.5974220000000  0.5274830000000 1.0
C      1  0.5276510000000  0.4032510000000  0.4900340000000 1.0
C      1  0.5165370000000  0.6042710000000  0.5134460000000 1.0
C      1  0.4931740000000  0.5975830000000  0.4718450000000 1.0
C      1  0.4838090000000  0.4089450000000  0.5141000000000 1.0
C      1  0.5171770000000  0.6032390000000  0.4851240000000 1.0
C      1  0.5377860000000  0.3924010000000  0.5137020000000 1.0
C      1  0.4217390000000  0.5301490000000  0.4418680000000 1.0
C      1  0.4193520000000  0.4706390000000  0.5591110000000 1.0
C      1  0.5773070000000  0.5307160000000  0.4385950000000 1.0
C      1  0.5767990000000  0.4689840000000  0.5614030000000 1.0
C      1  0.4187820000000  0.4704760000000  0.4389260000000 1.0
C      1  0.4215660000000  0.5306430000000  0.5577710000000 1.0
C      1  0.5757560000000  0.4708910000000  0.4385390000000 1.0
C      1  0.5775260000000  0.5286780000000  0.5612750000000 1.0
C      1  0.5304400000000  0.5287040000000  0.4758680000000 1.0
C      1  0.5313730000000  0.4801570000000  0.5277970000000 1.0
C      1  0.4755230000000  0.5172460000000  0.4797570000000 1.0
C      1  0.4747850000000  0.4744980000000  0.5221930000000 1.0
C      1  0.5299550000000  0.4806170000000  0.4821410000000 1.0
C      1  0.5304320000000  0.5275150000000  0.5196140000000 1.0
C      1  0.4753120000000  0.4674660000000  0.4783010000000 1.0
C      1  0.4739490000000  0.5236650000000  0.5253720000000 1.0
C      1  0.5220050000000  0.5724350000000  0.4391180000000 1.0
C      1  0.5193610000000  0.4270770000000  0.5576910000000 1.0
C      1  0.4745470000000  0.5708580000000  0.4382470000000 1.0
C      1  0.4720690000000  0.4291280000000  0.5563980000000 1.0
C      1  0.5189950000000  0.4290060000000  0.4396460000000 1.0
C      1  0.5228170000000  0.5708260000000  0.5596250000000 1.0
C      1  0.4716750000000  0.4292770000000  0.4442680000000 1.0
C      1  0.4753420000000  0.5708140000000  0.5614330000000 1.0
C      1  0.4621490000000  0.4710440000000  0.4172100000000 1.0
C      1  0.4642660000000  0.5280130000000  0.5827150000000 1.0
C      1  0.5294570000000  0.4731610000000  0.4203390000000 1.0
C      1  0.5328740000000  0.5275350000000  0.5821300000000 1.0
C      1  0.4642590000000  0.5280760000000  0.4168270000000 1.0
C      1  0.4629990000000  0.4707010000000  0.5816420000000 1.0
C      1  0.5330880000000  0.5296960000000  0.4165230000000 1.0
C      1  0.5310180000000  0.4700140000000  0.5809970000000 1.0
C      1  0.5684330000000  0.5577820000000  0.4467830000000 1.0
C      1  0.5684460000000  0.4414140000000  0.5574050000000 1.0
C      1  0.4307130000000  0.5563030000000  0.4518850000000 1.0
C      1  0.4261630000000  0.4432890000000  0.5516320000000 1.0
C      1  0.5676560000000  0.4433340000000  0.4420660000000 1.0
C      1  0.5693210000000  0.5558840000000  0.5543100000000 1.0
C      1  0.4250950000000  0.4427460000000  0.4442820000000 1.0
C      1  0.4307620000000  0.5571530000000  0.5486410000000 1.0
C      1  0.5514150000000  0.4003870000000  0.5353440000000 1.0
C      1  0.5419870000000  0.5874720000000  0.4819520000000 1.0
C      1  0.4544110000000  0.4171120000000  0.5131030000000 1.0
C      1  0.4669360000000  0.5871320000000  0.4844120000000 1.0
C      1  0.5466850000000  0.5847380000000  0.5185260000000 1.0
C      1  0.5470360000000  0.4077320000000  0.4697810000000 1.0
C      1  0.4669990000000  0.5873820000000  0.5154370000000 1.0
C      1  0.4441470000000  0.4203910000000  0.4860310000000 1.0
C      1  0.5941420000000  0.4848890000000  0.4585510000000 1.0
C      1  0.5953790000000  0.5146050000000  0.5410420000000 1.0
C      1  0.4071650000000  0.4842960000000  0.4620210000000 1.0
C      1  0.4075170000000  0.5152110000000  0.5365240000000 1.0
C      1  0.5954070000000  0.5158300000000  0.4585170000000 1.0
C      1  0.5948540000000  0.4836150000000  0.5411450000000 1.0
C      1  0.4081920000000  0.5138270000000  0.4623880000000 1.0
C      1  0.4068880000000  0.4855850000000  0.5369160000000 1.0
C      1  0.4400340000000  0.5148400000000  0.5747420000000 1.0
C      1  0.4385910000000  0.4858000000000  0.4236440000000 1.0
C      1  0.5568300000000  0.5132800000000  0.5756050000000 1.0
C      1  0.5548100000000  0.4866770000000  0.4252440000000 1.0
C      1  0.4392820000000  0.4855010000000  0.5748960000000 1.0
C      1  0.4399450000000  0.5149830000000  0.4244230000000 1.0
C      1  0.5558930000000  0.4844210000000  0.5754700000000 1.0
C      1  0.5566610000000  0.5154060000000  0.4240590000000 1.0
C      1  0.5811450000000  0.4786950000000  0.4850900000000 1.0
C      1  0.5836320000000  0.5251500000000  0.5146320000000 1.0
C      1  0.4225660000000  0.4725440000000  0.4853310000000 1.0
C      1  0.4246790000000  0.5221380000000  0.5132340000000 1.0
C      1  0.5835390000000  0.5257250000000  0.4845550000000 1.0
C      1  0.5809050000000  0.4781340000000  0.5151140000000 1.0
C      1  0.4253170000000  0.5194600000000  0.4853250000000 1.0
C      1  0.4229700000000  0.4750990000000  0.5138600000000 1.0
C      1  0.5473760000000  0.4224850000000  0.5522540000000 1.0
C      1  0.5461690000000  0.5740750000000  0.4559330000000 1.0
C      1  0.4477140000000  0.4282430000000  0.5403010000000 1.0
C      1  0.4535260000000  0.5721290000000  0.4593640000000 1.0
C      1  0.5476880000000  0.5721520000000  0.5442760000000 1.0
C      1  0.5461250000000  0.4254790000000  0.4480720000000 1.0
C      1  0.4537350000000  0.5727350000000  0.5408530000000 1.0
C      1  0.4460020000000  0.4282450000000  0.4577820000000 1.0
C      1  0.5553910000000  0.5190650000000  0.4774270000000 1.0
C      1  0.5554670000000  0.4898770000000  0.5231770000000 1.0
C      1  0.4503630000000  0.5072060000000  0.4755040000000 1.0
C      1  0.4498090000000  0.4840000000000  0.5230400000000 1.0
C      1  0.5551890000000  0.4902090000000  0.4783260000000 1.0
C      1  0.5554530000000  0.5182390000000  0.5209330000000 1.0
C      1  0.4504920000000  0.4779530000000  0.4757320000000 1.0
C      1  0.4498080000000  0.5124460000000  0.5239490000000 1.0
C      1  0.4804720000000  0.4517360000000  0.4264290000000 1.0
C      1  0.4840140000000  0.5471560000000  0.5763620000000 1.0
C      1  0.5099100000000  0.4529390000000  0.4254560000000 1.0
C      1  0.5137370000000  0.5471020000000  0.5753400000000 1.0
C      1  0.4836630000000  0.5475250000000  0.4231440000000 1.0
C      1  0.4815380000000  0.4506630000000  0.5740320000000 1.0
C      1  0.5133780000000  0.5485530000000  0.4234780000000 1.0
C      1  0.5110440000000  0.4503660000000  0.5745140000000 1.0
C      1  0.4986140000000  0.5856040000000  0.5529550000000 1.0
C      1  0.4959130000000  0.4160830000000  0.4547740000000 1.0
C      1  0.4973830000000  0.5864980000000  0.4459350000000 1.0
C      1  0.4952800000000  0.4155720000000  0.5424540000000 1.0
C      1  0.5158110000000  0.5000710000000  0.4977670000000 1.0
C      1  0.4891100000000  0.4992940000000  0.4974080000000 1.0
END
