TITL C-3201378-2706-1044 0.112308103053362 125000 -755.635181605459 0 0 125 (C1) n - 1
REM
REM in /home/nfs/bkarasulu/CARBON/AIRSS/Generating-Clusters/LCBOP/Higher-Symm/SD-CG/FIRE-CG
REM
REM
REM
REM
REM
REM ./C.cell (b20cbc046b6831c77cfcea5457e17084)
REM AIRSS Version 0.9.1 bugfix July 2018 build 013d7b7c2542+ Fri, 06 Jul 2018 19:26:36 +0100
REM compiler GCC version 9.2.1 20190827 (Red Hat 9.2.1-1)
REM options -cpp -mtune=generic -march=x86-64 -g -O0 -fpre-include=/usr/include/finclude/math-vector-fortran.h
REM seed -1549262211 -238939327 -375549312 1284814817 2065110192 1576772523 1605011392 -1762701794 509974103 -315327226 812051464 784277917 1053956377 -943771099 -1161010412 -1354344118 -315195851 -406480825 -1220678945 -1087894420 -237795465 -574719596 -1920802776 857122798 968421871 1961146132 -1824114948 1512318621 56250803 880774099 1377130763 896729486 -230108561
REM
CELL 1.54180   50.00000   50.00000   50.00000   90.00000   90.00000   90.00000
LATT -1
SFAC C  
C      1  0.4903660000000  0.6240640000000  0.5020320000000 1.0
C      1  0.5201740000000  0.3620630000000  0.4802220000000 1.0
C      1  0.4708040000000  0.4524220000000  0.5633080000000 1.0
C      1  0.5320570000000  0.5708590000000  0.4426660000000 1.0
C      1  0.3842560000000  0.4536460000000  0.4506690000000 1.0
C      1  0.6209310000000  0.5388830000000  0.5319060000000 1.0
C      1  0.4848660000000  0.4286610000000  0.6045560000000 1.0
C      1  0.5125410000000  0.5860100000000  0.4016390000000 1.0
C      1  0.4456480000000  0.5712740000000  0.4324170000000 1.0
C      1  0.5545600000000  0.4395760000000  0.5648030000000 1.0
C      1  0.5464440000000  0.4232850000000  0.4588090000000 1.0
C      1  0.4240250000000  0.5742530000000  0.5302560000000 1.0
C      1  0.4097070000000  0.5676450000000  0.4638220000000 1.0
C      1  0.5725140000000  0.4452070000000  0.5210940000000 1.0
C      1  0.5421420000000  0.5469130000000  0.4289670000000 1.0
C      1  0.4560920000000  0.4724200000000  0.5784210000000 1.0
C      1  0.5473560000000  0.4967600000000  0.4374090000000 1.0
C      1  0.4272790000000  0.5144400000000  0.5731570000000 1.0
C      1  0.5719320000000  0.5683850000000  0.5228600000000 1.0
C      1  0.4394330000000  0.4560380000000  0.4823010000000 1.0
C      1  0.4887490000000  0.4336770000000  0.5764880000000 1.0
C      1  0.5108670000000  0.5856830000000  0.4300430000000 1.0
C      1  0.4454080000000  0.5388300000000  0.5074010000000 1.0
C      1  0.5062460000000  0.4543650000000  0.5115560000000 1.0
C      1  0.4640200000000  0.5465500000000  0.3659190000000 1.0
C      1  0.5471430000000  0.4563770000000  0.6356850000000 1.0
C      1  0.4501860000000  0.5896940000000  0.4787540000000 1.0
C      1  0.5427110000000  0.4084770000000  0.5252850000000 1.0
C      1  0.5641850000000  0.4208440000000  0.5096000000000 1.0
C      1  0.4207610000000  0.5867260000000  0.4822890000000 1.0
C      1  0.5347150000000  0.5287950000000  0.4720900000000 1.0
C      1  0.4656920000000  0.5066420000000  0.5468420000000 1.0
C      1  0.5047770000000  0.4909940000000  0.4754350000000 1.0
C      1  0.5072910000000  0.5311370000000  0.5275810000000 1.0
C      1  0.5421510000000  0.5369440000000  0.5604070000000 1.0
C      1  0.4725690000000  0.4744450000000  0.4421420000000 1.0
C      1  0.5629390000000  0.4319150000000  0.4141640000000 1.0
C      1  0.5452620000000  0.3557660000000  0.6535930000000 1.0
C      1  0.5225040000000  0.4070590000000  0.4594930000000 1.0
C      1  0.4989100000000  0.5943380000000  0.5382820000000 1.0
C      1  0.4104590000000  0.4892540000000  0.4408680000000 1.0
C      1  0.5866870000000  0.5133070000000  0.5467230000000 1.0
C      1  0.4489510000000  0.5643310000000  0.5192550000000 1.0
C      1  0.5065370000000  0.4271960000000  0.5050980000000 1.0
C      1  0.5463950000000  0.4614320000000  0.5820270000000 1.0
C      1  0.4556040000000  0.5478200000000  0.4191080000000 1.0
C      1  0.4354160000000  0.4493480000000  0.4542780000000 1.0
C      1  0.5796830000000  0.5615730000000  0.5498610000000 1.0
C      1  0.3876740000000  0.5003450000000  0.4553410000000 1.0
C      1  0.5932900000000  0.5023750000000  0.5205810000000 1.0
C      1  0.5732680000000  0.4219610000000  0.3919000000000 1.0
C      1  0.5292730000000  0.3727270000000  0.6419170000000 1.0
C      1  0.5091860000000  0.5183440000000  0.4769530000000 1.0
C      1  0.4847130000000  0.5190100000000  0.5335530000000 1.0
C      1  0.5417240000000  0.5486610000000  0.4007200000000 1.0
C      1  0.4535050000000  0.4663560000000  0.6058440000000 1.0
C      1  0.4876650000000  0.5926090000000  0.4441960000000 1.0
C      1  0.5098940000000  0.4207850000000  0.5628120000000 1.0
C      1  0.4601980000000  0.5298900000000  0.4634550000000 1.0
C      1  0.5261830000000  0.4818440000000  0.5440570000000 1.0
C      1  0.4817470000000  0.4770140000000  0.4690910000000 1.0
C      1  0.5333750000000  0.5388510000000  0.5327830000000 1.0
C      1  0.4476460000000  0.4265710000000  0.5307890000000 1.0
C      1  0.5433690000000  0.6014780000000  0.4786020000000 1.0
C      1  0.4614280000000  0.5861740000000  0.4519700000000 1.0
C      1  0.5363240000000  0.4200970000000  0.5524250000000 1.0
C      1  0.5401940000000  0.5759810000000  0.4694650000000 1.0
C      1  0.4644320000000  0.4477270000000  0.5360330000000 1.0
C      1  0.5518450000000  0.4420330000000  0.4378590000000 1.0
C      1  0.4142740000000  0.5605960000000  0.5527250000000 1.0
C      1  0.3706170000000  0.4767940000000  0.4580930000000 1.0
C      1  0.6174250000000  0.5177210000000  0.5140660000000 1.0
C      1  0.5583810000000  0.4684700000000  0.5114430000000 1.0
C      1  0.4115620000000  0.5400230000000  0.4720660000000 1.0
C      1  0.4108230000000  0.5885710000000  0.5092530000000 1.0
C      1  0.5637130000000  0.4198170000000  0.4811970000000 1.0
C      1  0.5131340000000  0.3900780000000  0.6300440000000 1.0
C      1  0.5835980000000  0.4119630000000  0.3696310000000 1.0
C      1  0.4771570000000  0.4264890000000  0.4371080000000 1.0
C      1  0.5396790000000  0.5835520000000  0.5696690000000 1.0
C      1  0.6047300000000  0.6015450000000  0.4954330000000 1.0
C      1  0.3989920000000  0.4650540000000  0.5170490000000 1.0
C      1  0.5937580000000  0.4021290000000  0.3477290000000 1.0
C      1  0.4979710000000  0.4081340000000  0.6179800000000 1.0
C      1  0.3814100000000  0.4742840000000  0.5339350000000 1.0
C      1  0.6220380000000  0.6162890000000  0.4826820000000 1.0
C      1  0.5775080000000  0.4442850000000  0.5488260000000 1.0
C      1  0.4176570000000  0.5724410000000  0.4370710000000 1.0
C      1  0.4379100000000  0.5322460000000  0.4809150000000 1.0
C      1  0.5297990000000  0.4694060000000  0.5191550000000 1.0
C      1  0.5493620000000  0.5531750000000  0.5132300000000 1.0
C      1  0.4651680000000  0.4661350000000  0.4897360000000 1.0
C      1  0.5178720000000  0.5932130000000  0.5571660000000 1.0
C      1  0.4994460000000  0.4134100000000  0.4444450000000 1.0
C      1  0.4604350000000  0.5475930000000  0.3917100000000 1.0
C      1  0.5472620000000  0.4589240000000  0.6097500000000 1.0
C      1  0.5564970000000  0.5609580000000  0.5670850000000 1.0
C      1  0.4599530000000  0.4487700000000  0.4391650000000 1.0
C      1  0.4781040000000  0.4607170000000  0.5144890000000 1.0
C      1  0.5427930000000  0.5525620000000  0.4856670000000 1.0
C      1  0.5273360000000  0.5678190000000  0.3877980000000 1.0
C      1  0.4669570000000  0.4461450000000  0.6176830000000 1.0
C      1  0.3479340000000  0.5362910000000  0.5044220000000 1.0
C      1  0.6016480000000  0.4879710000000  0.4552440000000 1.0
C      1  0.4486910000000  0.4972230000000  0.5668690000000 1.0
C      1  0.5442630000000  0.5237030000000  0.4453590000000 1.0
C      1  0.4117010000000  0.4598070000000  0.4431280000000 1.0
C      1  0.5985010000000  0.5402670000000  0.5506160000000 1.0
C      1  0.5373620000000  0.4856700000000  0.5693890000000 1.0
C      1  0.4595420000000  0.5247170000000  0.4354300000000 1.0
C      1  0.4845940000000  0.6003490000000  0.5146850000000 1.0
C      1  0.5210830000000  0.3891930000000  0.4823710000000 1.0
C      1  0.4159730000000  0.5380920000000  0.5672840000000 1.0
C      1  0.5470210000000  0.4699260000000  0.4391370000000 1.0
C      1  0.5412180000000  0.5130130000000  0.5753890000000 1.0
C      1  0.4664430000000  0.4982250000000  0.4281240000000 1.0
C      1  0.5869690000000  0.5864180000000  0.5079980000000 1.0
C      1  0.4177770000000  0.4577370000000  0.4998400000000 1.0
C      1  0.4639070000000  0.5840100000000  0.5039550000000 1.0
C      1  0.5207990000000  0.4033600000000  0.5071630000000 1.0
C      1  0.3886370000000  0.5233350000000  0.4713990000000 1.0
C      1  0.5768110000000  0.4884010000000  0.5023590000000 1.0
C      1  0.3668410000000  0.5298260000000  0.4876940000000 1.0
C      1  0.5854800000000  0.4883640000000  0.4757330000000 1.0
C      1  0.4859640000000  0.5337590000000  0.4743310000000 1.0
END
