TITL C-3201377-4638-1335 0.0027691386850847 125000 -659.167454131938 0 0 106 (C1) n - 1
REM
REM in /home/nfs/bkarasulu/CARBON/AIRSS/Generating-Clusters/LCBOP/Higher-Symm/SD-CG/FIRE-CG
REM
REM
REM
REM
REM
REM ./C.cell (b20cbc046b6831c77cfcea5457e17084)
REM AIRSS Version 0.9.1 bugfix July 2018 build 013d7b7c2542+ Fri, 06 Jul 2018 19:26:36 +0100
REM compiler GCC version 9.2.1 20190827 (Red Hat 9.2.1-1)
REM options -cpp -mtune=generic -march=x86-64 -g -O0 -fpre-include=/usr/include/finclude/math-vector-fortran.h
REM seed 214606674 1287502959 -321047601 383193810 -434547960 -673209067 1068707208 1447164619 1425775444 538621582 1330600933 -723523631 1711177744 2093113215 -75031586 670117372 -345871221 -1162568571 -287176055 -1410294626 150729972 -989643680 493727760 -1660636412 -1451733352 1280125569 350698428 424757776 -92526859 -1432504527 -912702836 387076018 -110343292
REM
CELL 1.54180   50.00000   50.00000   50.00000   90.00000   90.00000   90.00000
LATT -1
SFAC C  
C      1  0.4637500000000  0.5541550000000  0.5450060000000 1.0
C      1  0.5782290000000  0.6124410000000  0.4538680000000 1.0
C      1  0.5488150000000  0.4318090000000  0.4547020000000 1.0
C      1  0.5176800000000  0.4627530000000  0.4320240000000 1.0
C      1  0.4240350000000  0.5493350000000  0.5191300000000 1.0
C      1  0.5740590000000  0.5034010000000  0.5713860000000 1.0
C      1  0.4775220000000  0.5659810000000  0.5662650000000 1.0
C      1  0.5323830000000  0.4943990000000  0.5257200000000 1.0
C      1  0.5732340000000  0.5215570000000  0.4347560000000 1.0
C      1  0.5197810000000  0.5561520000000  0.5872830000000 1.0
C      1  0.4357130000000  0.5157400000000  0.5546460000000 1.0
C      1  0.5273230000000  0.5027640000000  0.5758850000000 1.0
C      1  0.5209740000000  0.5195130000000  0.5175110000000 1.0
C      1  0.5708940000000  0.4465630000000  0.4435850000000 1.0
C      1  0.4488010000000  0.4332400000000  0.5749340000000 1.0
C      1  0.5523480000000  0.5262280000000  0.4776670000000 1.0
C      1  0.4491670000000  0.4758650000000  0.4296620000000 1.0
C      1  0.4299580000000  0.5746770000000  0.5055530000000 1.0
C      1  0.5657790000000  0.5651590000000  0.5763890000000 1.0
C      1  0.5657400000000  0.5887330000000  0.5634360000000 1.0
C      1  0.4796060000000  0.5202690000000  0.5882040000000 1.0
C      1  0.4312140000000  0.4552480000000  0.4393610000000 1.0
C      1  0.5241160000000  0.4346480000000  0.4372780000000 1.0
C      1  0.5350920000000  0.6066080000000  0.4356570000000 1.0
C      1  0.4934120000000  0.5198500000000  0.5259270000000 1.0
C      1  0.5235020000000  0.4826600000000  0.4530970000000 1.0
C      1  0.5673300000000  0.4141650000000  0.5288960000000 1.0
C      1  0.4767080000000  0.5314340000000  0.4785830000000 1.0
C      1  0.4581720000000  0.4548610000000  0.5152270000000 1.0
C      1  0.5613090000000  0.4991300000000  0.4791420000000 1.0
C      1  0.4065800000000  0.5862610000000  0.4939530000000 1.0
C      1  0.4733160000000  0.4424590000000  0.5809610000000 1.0
C      1  0.5601350000000  0.5668320000000  0.4502560000000 1.0
C      1  0.5282630000000  0.4757590000000  0.5036800000000 1.0
C      1  0.5075550000000  0.4577550000000  0.5100950000000 1.0
C      1  0.3885100000000  0.5428010000000  0.4877690000000 1.0
C      1  0.4352010000000  0.4554800000000  0.5315590000000 1.0
C      1  0.4160140000000  0.4747710000000  0.5221170000000 1.0
C      1  0.4840230000000  0.5051630000000  0.4371620000000 1.0
C      1  0.5392240000000  0.4809100000000  0.4777250000000 1.0
C      1  0.4181010000000  0.4978630000000  0.5393750000000 1.0
C      1  0.4850630000000  0.5475090000000  0.5875540000000 1.0
C      1  0.5570120000000  0.4336280000000  0.5484350000000 1.0
C      1  0.5459200000000  0.5462340000000  0.5829940000000 1.0
C      1  0.4553470000000  0.5748170000000  0.4922800000000 1.0
C      1  0.4128900000000  0.4650860000000  0.4611930000000 1.0
C      1  0.4775320000000  0.5242550000000  0.4177250000000 1.0
C      1  0.5508040000000  0.5181810000000  0.5790470000000 1.0
C      1  0.4075020000000  0.4334590000000  0.4932800000000 1.0
C      1  0.4376830000000  0.5424400000000  0.5433310000000 1.0
C      1  0.4885120000000  0.4624720000000  0.5685880000000 1.0
C      1  0.3864540000000  0.5699610000000  0.4851080000000 1.0
C      1  0.5188730000000  0.5988710000000  0.5537780000000 1.0
C      1  0.5158320000000  0.4596310000000  0.5594720000000 1.0
C      1  0.5792160000000  0.4961260000000  0.4282520000000 1.0
C      1  0.5268640000000  0.4159710000000  0.4986480000000 1.0
C      1  0.4332040000000  0.4258500000000  0.4873290000000 1.0
C      1  0.4327280000000  0.4396730000000  0.5544370000000 1.0
C      1  0.5842050000000  0.4836120000000  0.5537100000000 1.0
C      1  0.5045000000000  0.5254870000000  0.4727970000000 1.0
C      1  0.4820060000000  0.4936030000000  0.5317920000000 1.0
C      1  0.4520980000000  0.4472180000000  0.4888690000000 1.0
C      1  0.4642030000000  0.5897730000000  0.4432860000000 1.0
C      1  0.5078090000000  0.5066200000000  0.4517720000000 1.0
C      1  0.5806470000000  0.5854510000000  0.4573900000000 1.0
C      1  0.5724770000000  0.4286250000000  0.5033850000000 1.0
C      1  0.5180100000000  0.4330980000000  0.5199210000000 1.0
C      1  0.4457920000000  0.4299910000000  0.4326690000000 1.0
C      1  0.4550830000000  0.5121930000000  0.4727840000000 1.0
C      1  0.4696260000000  0.4702980000000  0.4098590000000 1.0
C      1  0.4724410000000  0.5498620000000  0.4124320000000 1.0
C      1  0.5022060000000  0.5800050000000  0.5643320000000 1.0
C      1  0.5039830000000  0.5054350000000  0.5917290000000 1.0
C      1  0.4942000000000  0.4190230000000  0.4664970000000 1.0
C      1  0.5509610000000  0.4243210000000  0.4838770000000 1.0
C      1  0.5555420000000  0.6231770000000  0.4430360000000 1.0
C      1  0.4988890000000  0.4180190000000  0.4379890000000 1.0
C      1  0.5743870000000  0.4572930000000  0.5438250000000 1.0
C      1  0.5285760000000  0.4373230000000  0.5466220000000 1.0
C      1  0.4721900000000  0.5522760000000  0.4973060000000 1.0
C      1  0.5873890000000  0.4918090000000  0.4854620000000 1.0
C      1  0.4998300000000  0.3762340000000  0.4893110000000 1.0
C      1  0.5621050000000  0.5392320000000  0.4541580000000 1.0
C      1  0.4912490000000  0.4472310000000  0.4699960000000 1.0
C      1  0.5064920000000  0.4021860000000  0.4849140000000 1.0
C      1  0.4119260000000  0.5314300000000  0.4995760000000 1.0
C      1  0.4050690000000  0.4622780000000  0.4903510000000 1.0
C      1  0.4967110000000  0.4670290000000  0.4126680000000 1.0
C      1  0.5794040000000  0.4695860000000  0.4325460000000 1.0
C      1  0.4602050000000  0.5905030000000  0.4696370000000 1.0
C      1  0.4592280000000  0.5069520000000  0.5712920000000 1.0
C      1  0.4625100000000  0.4896270000000  0.4534230000000 1.0
C      1  0.5277770000000  0.4852770000000  0.5533930000000 1.0
C      1  0.4746020000000  0.4862280000000  0.5585450000000 1.0
C      1  0.4825200000000  0.4691060000000  0.5171530000000 1.0
C      1  0.5833170000000  0.4535600000000  0.5143260000000 1.0
C      1  0.4297090000000  0.5155040000000  0.4845430000000 1.0
C      1  0.5453940000000  0.6031870000000  0.5533360000000 1.0
C      1  0.4681320000000  0.5744060000000  0.4218670000000 1.0
C      1  0.4712950000000  0.4198460000000  0.4271340000000 1.0
C      1  0.4795220000000  0.5444860000000  0.5235440000000 1.0
C      1  0.5265890000000  0.5294270000000  0.4906520000000 1.0
C      1  0.5969680000000  0.4780670000000  0.5075980000000 1.0
C      1  0.4681100000000  0.4629120000000  0.4706320000000 1.0
C      1  0.6020020000000  0.4920720000000  0.5321900000000 1.0
C      1  0.5371110000000  0.5795640000000  0.4389940000000 1.0
END
