TITL C-3201373-1215-1684 0.274349935011613 125000 -325.026186917361 0 0 55 (C1) n - 1
REM
REM in /home/nfs/bkarasulu/CARBON/AIRSS/Generating-Clusters/LCBOP/Higher-Symm/SD-CG/FIRE-CG
REM
REM
REM
REM
REM
REM ./C.cell (b20cbc046b6831c77cfcea5457e17084)
REM AIRSS Version 0.9.1 bugfix July 2018 build 013d7b7c2542+ Fri, 06 Jul 2018 19:26:36 +0100
REM compiler GCC version 9.2.1 20190827 (Red Hat 9.2.1-1)
REM options -cpp -mtune=generic -march=x86-64 -g -O0 -fpre-include=/usr/include/finclude/math-vector-fortran.h
REM seed 331965592 -536316329 1264931206 1140418198 52864180 -751562916 -2111108403 -835602183 79834211 -521981475 -1933640722 1589378369 -76679670 2055449821 673350013 -102702582 1276549786 1778572185 -555459794 1987020538 -1293130909 -981932095 734278138 -1853847932 1275514114 682259783 -634487074 -1866345661 -2004356200 593332456 145891678 1772812545 667015958
REM
CELL 1.54180   50.00000   50.00000   50.00000   90.00000   90.00000   90.00000
LATT -1
SFAC C  
C      1  0.5009120000000  0.5187540000000  0.4145380000000 1.0
C      1  0.4881230000000  0.4818500000000  0.5289790000000 1.0
C      1  0.4409250000000  0.4693240000000  0.5604100000000 1.0
C      1  0.4827850000000  0.4893170000000  0.5038590000000 1.0
C      1  0.4403330000000  0.4724230000000  0.5003800000000 1.0
C      1  0.4385830000000  0.5372350000000  0.5563110000000 1.0
C      1  0.5725860000000  0.4776360000000  0.4628960000000 1.0
C      1  0.5284540000000  0.5028800000000  0.5345960000000 1.0
C      1  0.4731290000000  0.5127420000000  0.4631850000000 1.0
C      1  0.4857100000000  0.5208880000000  0.5557020000000 1.0
C      1  0.4957170000000  0.4927120000000  0.4110920000000 1.0
C      1  0.5526700000000  0.4462030000000  0.5777470000000 1.0
C      1  0.5629370000000  0.5113140000000  0.5059680000000 1.0
C      1  0.5187730000000  0.5114460000000  0.4837620000000 1.0
C      1  0.3966560000000  0.5518480000000  0.5351290000000 1.0
C      1  0.4555560000000  0.5561070000000  0.4777590000000 1.0
C      1  0.5555280000000  0.4630780000000  0.4430780000000 1.0
C      1  0.5339950000000  0.5164520000000  0.5082620000000 1.0
C      1  0.5649800000000  0.4824880000000  0.5126950000000 1.0
C      1  0.5292730000000  0.4698190000000  0.4552310000000 1.0
C      1  0.5061570000000  0.5661810000000  0.5383800000000 1.0
C      1  0.5614500000000  0.5053630000000  0.4588340000000 1.0
C      1  0.4501070000000  0.5075690000000  0.4503020000000 1.0
C      1  0.4516060000000  0.4600500000000  0.4541150000000 1.0
C      1  0.4909520000000  0.5067420000000  0.4838250000000 1.0
C      1  0.5513190000000  0.4636110000000  0.5578330000000 1.0
C      1  0.5081650000000  0.4442980000000  0.4911520000000 1.0
C      1  0.4810180000000  0.4436300000000  0.4897630000000 1.0
C      1  0.4954350000000  0.5472140000000  0.5537850000000 1.0
C      1  0.4560080000000  0.4557480000000  0.4823590000000 1.0
C      1  0.5665870000000  0.5325600000000  0.4545240000000 1.0
C      1  0.4573430000000  0.5158760000000  0.5569120000000 1.0
C      1  0.4769340000000  0.5634570000000  0.4632470000000 1.0
C      1  0.4202610000000  0.5383010000000  0.5346010000000 1.0
C      1  0.5485270000000  0.4814210000000  0.5368600000000 1.0
C      1  0.4294490000000  0.5228950000000  0.5117820000000 1.0
C      1  0.4454510000000  0.4918860000000  0.5456640000000 1.0
C      1  0.5551110000000  0.4112960000000  0.6175610000000 1.0
C      1  0.4364360000000  0.4949530000000  0.5179700000000 1.0
C      1  0.5538910000000  0.4287520000000  0.5976510000000 1.0
C      1  0.4395720000000  0.5389130000000  0.4908240000000 1.0
C      1  0.5022830000000  0.5002250000000  0.5448270000000 1.0
C      1  0.5563100000000  0.3941280000000  0.6371430000000 1.0
C      1  0.5019020000000  0.5585570000000  0.4506050000000 1.0
C      1  0.5239520000000  0.5762800000000  0.4903080000000 1.0
C      1  0.5262120000000  0.5650650000000  0.4645750000000 1.0
C      1  0.5163830000000  0.5761200000000  0.5158630000000 1.0
C      1  0.4373780000000  0.4838710000000  0.4478860000000 1.0
C      1  0.5324280000000  0.4992840000000  0.4616390000000 1.0
C      1  0.4862010000000  0.4686110000000  0.4179700000000 1.0
C      1  0.5027090000000  0.5420090000000  0.4276890000000 1.0
C      1  0.5511330000000  0.5546090000000  0.4561540000000 1.0
C      1  0.5321120000000  0.4563430000000  0.4819660000000 1.0
C      1  0.4708920000000  0.4536680000000  0.4343600000000 1.0
C      1  0.5607030000000  0.4659970000000  0.4894950000000 1.0
END
