TITL C-3201373-1215-805 827.852492362314 125000 -1064.56216016622 0 0 171 (C1) n - 1
REM
REM in /home/nfs/bkarasulu/CARBON/AIRSS/Generating-Clusters/LCBOP/Higher-Symm/SD-CG/FIRE-CG
REM
REM
REM
REM
REM
REM ./C.cell (b20cbc046b6831c77cfcea5457e17084)
REM AIRSS Version 0.9.1 bugfix July 2018 build 013d7b7c2542+ Fri, 06 Jul 2018 19:26:36 +0100
REM compiler GCC version 9.2.1 20190827 (Red Hat 9.2.1-1)
REM options -cpp -mtune=generic -march=x86-64 -g -O0 -fpre-include=/usr/include/finclude/math-vector-fortran.h
REM seed 71506860 -1416872736 -1584191522 176864987 560118129 2078787741 -850949411 1157438229 -1798750456 1520578981 379941056 1238180951 -241336206 425346187 268067911 857303654 1597184642 -1977478873 1088130624 28703766 1907129593 -1133108725 957517505 2093221482 -738550650 1821323214 -919478098 -678951850 -793852700 -1063427818 -1013045925 1358903774 2063442819
REM
CELL 1.54180   50.00000   50.00000   50.00000   90.00000   90.00000   90.00000
LATT -1
SFAC C  
C      1  0.5035550000000  0.4560010000000  0.5190960000000 1.0
C      1  0.5091960000000  0.5077010000000  0.4497160000000 1.0
C      1  0.5050940000000  0.5355110000000  0.5326390000000 1.0
C      1  0.5145560000000  0.4496790000000  0.4945900000000 1.0
C      1  0.5204960000000  0.5310390000000  0.4587240000000 1.0
C      1  0.4988200000000  0.5229310000000  0.5559490000000 1.0
C      1  0.5026040000000  0.4412890000000  0.5427290000000 1.0
C      1  0.5056740000000  0.4944900000000  0.4255410000000 1.0
C      1  0.5037410000000  0.5632440000000  0.5323960000000 1.0
C      1  0.4525630000000  0.4825470000000  0.5387200000000 1.0
C      1  0.4517220000000  0.4797960000000  0.4644800000000 1.0
C      1  0.4517390000000  0.5351670000000  0.4997380000000 1.0
C      1  0.5163130000000  0.5552030000000  0.3972090000000 1.0
C      1  0.5161370000000  0.5612410000000  0.6003180000000 1.0
C      1  0.5137690000000  0.3851310000000  0.5023450000000 1.0
C      1  0.5178380000000  0.3963410000000  0.4543310000000 1.0
C      1  0.5184150000000  0.5918400000000  0.4298220000000 1.0
C      1  0.5195080000000  0.5138970000000  0.6143140000000 1.0
C      1  0.4100280000000  0.5217210000000  0.5517050000000 1.0
C      1  0.4124450000000  0.4437970000000  0.4950630000000 1.0
C      1  0.4092000000000  0.5302970000000  0.4558860000000 1.0
C      1  0.4119280000000  0.4376160000000  0.4670700000000 1.0
C      1  0.4121400000000  0.5577270000000  0.4631810000000 1.0
C      1  0.4094880000000  0.5014750000000  0.5720080000000 1.0
C      1  0.5688460000000  0.4694490000000  0.4067620000000 1.0
C      1  0.5628020000000  0.6022630000000  0.5199180000000 1.0
C      1  0.5672850000000  0.4348070000000  0.5726970000000 1.0
C      1  0.4389790000000  0.5669460000000  0.4645370000000 1.0
C      1  0.4344950000000  0.4933000000000  0.5830400000000 1.0
C      1  0.4367800000000  0.4340420000000  0.4534650000000 1.0
C      1  0.4417660000000  0.5007340000000  0.6082680000000 1.0
C      1  0.4442320000000  0.4090400000000  0.4453820000000 1.0
C      1  0.4489710000000  0.5813040000000  0.4436350000000 1.0
C      1  0.4899160000000  0.4477050000000  0.4189830000000 1.0
C      1  0.4756050000000  0.6057800000000  0.4835820000000 1.0
C      1  0.4898100000000  0.4580750000000  0.5872430000000 1.0
C      1  0.4532390000000  0.5627590000000  0.4894890000000 1.0
C      1  0.4504650000000  0.4760740000000  0.5666900000000 1.0
C      1  0.4511770000000  0.4577210000000  0.4458370000000 1.0
C      1  0.4066180000000  0.4234890000000  0.5139400000000 1.0
C      1  0.4050850000000  0.5247990000000  0.4283510000000 1.0
C      1  0.4075160000000  0.5488390000000  0.5600360000000 1.0
C      1  0.5973500000000  0.5049680000000  0.4697080000000 1.0
C      1  0.5972720000000  0.5201220000000  0.5203540000000 1.0
C      1  0.5959060000000  0.4695700000000  0.5079990000000 1.0
C      1  0.6068700000000  0.5160740000000  0.4443780000000 1.0
C      1  0.6071140000000  0.5383030000000  0.5408870000000 1.0
C      1  0.6056200000000  0.4425600000000  0.5135570000000 1.0
C      1  0.4631870000000  0.4131250000000  0.5292880000000 1.0
C      1  0.4644540000000  0.5199000000000  0.4085090000000 1.0
C      1  0.4651510000000  0.5698460000000  0.5643950000000 1.0
C      1  0.5521910000000  0.4429130000000  0.5968370000000 1.0
C      1  0.5529040000000  0.4451160000000  0.4013410000000 1.0
C      1  0.5479330000000  0.6170400000000  0.4990150000000 1.0
C      1  0.5324410000000  0.3953100000000  0.4806610000000 1.0
C      1  0.5338610000000  0.5690520000000  0.4177460000000 1.0
C      1  0.5342870000000  0.5368230000000  0.6014250000000 1.0
C      1  0.5206880000000  0.4086230000000  0.4276090000000 1.0
C      1  0.5187810000000  0.6086010000000  0.4537690000000 1.0
C      1  0.5215850000000  0.4845600000000  0.6162270000000 1.0
C      1  0.4934500000000  0.3981200000000  0.5634380000000 1.0
C      1  0.4944620000000  0.4970240000000  0.3787250000000 1.0
C      1  0.4980070000000  0.6046830000000  0.5541320000000 1.0
C      1  0.5649390000000  0.4731390000000  0.5077150000000 1.0
C      1  0.5665490000000  0.5039660000000  0.4724050000000 1.0
C      1  0.5664480000000  0.5190040000000  0.5172910000000 1.0
C      1  0.5164790000000  0.5125100000000  0.3699360000000 1.0
C      1  0.5238520000000  0.6036510000000  0.5654560000000 1.0
C      1  0.5140210000000  0.3816040000000  0.5533680000000 1.0
C      1  0.4883740000000  0.4175370000000  0.5423510000000 1.0
C      1  0.4896310000000  0.5061210000000  0.4060800000000 1.0
C      1  0.4904060000000  0.5765280000000  0.5526560000000 1.0
C      1  0.5617840000000  0.4976620000000  0.4047780000000 1.0
C      1  0.5531230000000  0.5946430000000  0.5456100000000 1.0
C      1  0.5593350000000  0.4188190000000  0.5496340000000 1.0
C      1  0.5744700000000  0.5715100000000  0.4638690000000 1.0
C      1  0.5744820000000  0.4974650000000  0.5777920000000 1.0
C      1  0.5741040000000  0.4334780000000  0.4584030000000 1.0
C      1  0.5409290000000  0.6073140000000  0.4722870000000 1.0
C      1  0.5444170000000  0.4702970000000  0.6048540000000 1.0
C      1  0.5441350000000  0.4247950000000  0.4209060000000 1.0
C      1  0.4170410000000  0.5120310000000  0.5258890000000 1.0
C      1  0.4207590000000  0.4703940000000  0.5006810000000 1.0
C      1  0.4161010000000  0.5126900000000  0.4770360000000 1.0
C      1  0.3922700000000  0.4013490000000  0.5064750000000 1.0
C      1  0.3897320000000  0.5418020000000  0.4132380000000 1.0
C      1  0.3943780000000  0.5544960000000  0.5834970000000 1.0
C      1  0.4764110000000  0.6165590000000  0.5391750000000 1.0
C      1  0.4727420000000  0.4046520000000  0.5823840000000 1.0
C      1  0.4730840000000  0.4780000000000  0.3752750000000 1.0
C      1  0.4444750000000  0.5797320000000  0.5470910000000 1.0
C      1  0.4423030000000  0.4206750000000  0.5477220000000 1.0
C      1  0.4430040000000  0.5005890000000  0.4067250000000 1.0
C      1  0.3901450000000  0.4439360000000  0.4504480000000 1.0
C      1  0.3926260000000  0.5722240000000  0.4770460000000 1.0
C      1  0.3882390000000  0.4833480000000  0.5746320000000 1.0
C      1  0.5536690000000  0.4939780000000  0.5253420000000 1.0
C      1  0.5529810000000  0.4793750000000  0.4815190000000 1.0
C      1  0.5574840000000  0.5248220000000  0.4902410000000 1.0
C      1  0.4177570000000  0.5706660000000  0.5448590000000 1.0
C      1  0.4154170000000  0.4257950000000  0.5409080000000 1.0
C      1  0.4162150000000  0.5018100000000  0.4158770000000 1.0
C      1  0.5490250000000  0.4855340000000  0.5805910000000 1.0
C      1  0.5489820000000  0.4381650000000  0.4463170000000 1.0
C      1  0.5485800000000  0.5797140000000  0.4720710000000 1.0
C      1  0.6007740000000  0.5372900000000  0.5669810000000 1.0
C      1  0.5998890000000  0.4211200000000  0.4983350000000 1.0
C      1  0.6008920000000  0.5407850000000  0.4354140000000 1.0
C      1  0.5165800000000  0.5753630000000  0.5105850000000 1.0
C      1  0.5093570000000  0.4567820000000  0.5662160000000 1.0
C      1  0.5101650000000  0.4660680000000  0.4277910000000 1.0
C      1  0.5320670000000  0.5654000000000  0.4894720000000 1.0
C      1  0.5289030000000  0.4781170000000  0.5623760000000 1.0
C      1  0.5283510000000  0.4574870000000  0.4484760000000 1.0
C      1  0.5777110000000  0.5562670000000  0.4395440000000 1.0
C      1  0.5777900000000  0.5258090000000  0.5784130000000 1.0
C      1  0.5766750000000  0.4185330000000  0.4826700000000 1.0
C      1  0.5137230000000  0.5258150000000  0.5077000000000 1.0
C      1  0.5019160000000  0.4840110000000  0.5248110000000 1.0
C      1  0.5017520000000  0.4900560000000  0.4707620000000 1.0
C      1  0.5863180000000  0.5896770000000  0.5088140000000 1.0
C      1  0.5907620000000  0.4510990000000  0.5698270000000 1.0
C      1  0.5919980000000  0.4628060000000  0.4224080000000 1.0
C      1  0.4926580000000  0.5895410000000  0.4157900000000 1.0
C      1  0.4929760000000  0.5260390000000  0.6187800000000 1.0
C      1  0.4907040000000  0.3884420000000  0.4627460000000 1.0
C      1  0.5563970000000  0.5435610000000  0.5834740000000 1.0
C      1  0.5545080000000  0.4069290000000  0.4959310000000 1.0
C      1  0.5562070000000  0.5503680000000  0.4215220000000 1.0
C      1  0.4273670000000  0.4846640000000  0.5246440000000 1.0
C      1  0.4263990000000  0.4861590000000  0.4767520000000 1.0
C      1  0.4240130000000  0.5257250000000  0.5019670000000 1.0
C      1  0.5242550000000  0.4695840000000  0.4752720000000 1.0
C      1  0.5308810000000  0.5366510000000  0.4856440000000 1.0
C      1  0.5280500000000  0.4898890000000  0.5369080000000 1.0
C      1  0.6062010000000  0.4784620000000  0.4804560000000 1.0
C      1  0.6070150000000  0.5241870000000  0.4920520000000 1.0
C      1  0.6059890000000  0.4914530000000  0.5260330000000 1.0
C      1  0.3970520000000  0.4359260000000  0.5595320000000 1.0
C      1  0.3994680000000  0.4791800000000  0.4153160000000 1.0
C      1  0.4003560000000  0.5822120000000  0.5260510000000 1.0
C      1  0.4629250000000  0.4533440000000  0.5787290000000 1.0
C      1  0.4633280000000  0.4579020000000  0.4198360000000 1.0
C      1  0.4616750000000  0.5881590000000  0.5009470000000 1.0
C      1  0.4653960000000  0.3973800000000  0.5061010000000 1.0
C      1  0.4670840000000  0.5475010000000  0.4037430000000 1.0
C      1  0.4672760000000  0.5598640000000  0.5905960000000 1.0
C      1  0.4565430000000  0.5979860000000  0.5275200000000 1.0
C      1  0.4542610000000  0.4260400000000  0.5741440000000 1.0
C      1  0.4547570000000  0.4749310000000  0.3981050000000 1.0
C      1  0.5500440000000  0.4049000000000  0.5259440000000 1.0
C      1  0.5525100000000  0.5251540000000  0.4044170000000 1.0
C      1  0.5530570000000  0.5703590000000  0.5713740000000 1.0
C      1  0.5264880000000  0.3870380000000  0.5282830000000 1.0
C      1  0.5293520000000  0.5315730000000  0.3869220000000 1.0
C      1  0.5284340000000  0.5822540000000  0.5851670000000 1.0
C      1  0.3895720000000  0.5820670000000  0.5016950000000 1.0
C      1  0.3851260000000  0.4571220000000  0.5704300000000 1.0
C      1  0.3873590000000  0.4597230000000  0.4289860000000 1.0
C      1  0.4740970000000  0.4930100000000  0.4773450000000 1.0
C      1  0.4685930000000  0.5103300000000  0.5004660000000 1.0
C      1  0.4750440000000  0.4945970000000  0.5244610000000 1.0
C      1  0.5949550000000  0.4458220000000  0.4434630000000 1.0
C      1  0.5928660000000  0.5782890000000  0.4847690000000 1.0
C      1  0.5945890000000  0.4777340000000  0.5738270000000 1.0
C      1  0.4938840000000  0.6141800000000  0.4660110000000 1.0
C      1  0.4974970000000  0.4698810000000  0.6117220000000 1.0
C      1  0.4970410000000  0.4204470000000  0.4167490000000 1.0
C      1  0.4892110000000  0.5519280000000  0.6064080000000 1.0
C      1  0.4868270000000  0.3866340000000  0.4913490000000 1.0
C      1  0.4891180000000  0.5648760000000  0.4011730000000 1.0
END
