TITL C-3201376-6384-585 255.829234256189 125000 -898.585934656185 0 0 146 (C1) n - 1
REM
REM in /home/nfs/bkarasulu/CARBON/AIRSS/Generating-Clusters/LCBOP/Higher-Symm/SD-CG/FIRE-CG
REM
REM
REM
REM
REM
REM ./C.cell (b20cbc046b6831c77cfcea5457e17084)
REM AIRSS Version 0.9.1 bugfix July 2018 build 013d7b7c2542+ Fri, 06 Jul 2018 19:26:36 +0100
REM compiler GCC version 9.2.1 20190827 (Red Hat 9.2.1-1)
REM options -cpp -mtune=generic -march=x86-64 -g -O0 -fpre-include=/usr/include/finclude/math-vector-fortran.h
REM seed 275560808 1422161345 -1529049089 1578801203 1189307673 -659972177 784633563 515881369 1187380576 -1816080594 785418339 -1779169663 -1187412750 -538538161 -2114505831 454978618 1402957192 -1245479282 386507250 1407902841 1189034541 928149295 -889723150 1837264343 782282980 -1913849183 -129549373 534696048 -753269653 -2073392629 243350943 -1699490982 -611184373
REM
CELL 1.54180   50.00000   50.00000   50.00000   90.00000   90.00000   90.00000
LATT -1
SFAC C  
C      1  0.5606090000000  0.5199480000000  0.5953850000000 1.0
C      1  0.4365190000000  0.4787000000000  0.5996910000000 1.0
C      1  0.4650950000000  0.5265790000000  0.4032860000000 1.0
C      1  0.5122020000000  0.4785170000000  0.4240550000000 1.0
C      1  0.5325020000000  0.5547030000000  0.5339400000000 1.0
C      1  0.4635860000000  0.4479120000000  0.5351090000000 1.0
C      1  0.4669600000000  0.4356700000000  0.4149390000000 1.0
C      1  0.5170110000000  0.5539000000000  0.4063200000000 1.0
C      1  0.4346720000000  0.5526620000000  0.4278010000000 1.0
C      1  0.5655030000000  0.4566330000000  0.4163260000000 1.0
C      1  0.5428800000000  0.4452830000000  0.4067870000000 1.0
C      1  0.4548070000000  0.5703340000000  0.4163420000000 1.0
C      1  0.4795730000000  0.4027830000000  0.5230380000000 1.0
C      1  0.5195770000000  0.6014960000000  0.5271470000000 1.0
C      1  0.5322970000000  0.5616630000000  0.5048070000000 1.0
C      1  0.4649430000000  0.4457300000000  0.5059890000000 1.0
C      1  0.4311840000000  0.5044810000000  0.5209070000000 1.0
C      1  0.5525540000000  0.4953840000000  0.5046350000000 1.0
C      1  0.4967670000000  0.4485500000000  0.5744960000000 1.0
C      1  0.5001880000000  0.5535170000000  0.5760880000000 1.0
C      1  0.5582680000000  0.4918810000000  0.5987960000000 1.0
C      1  0.4406030000000  0.5072580000000  0.6053770000000 1.0
C      1  0.4046690000000  0.4927340000000  0.5183250000000 1.0
C      1  0.6092890000000  0.5146190000000  0.5148100000000 1.0
C      1  0.4538290000000  0.4550720000000  0.3986440000000 1.0
C      1  0.5381280000000  0.5388330000000  0.3955080000000 1.0
C      1  0.4369810000000  0.5608130000000  0.5148070000000 1.0
C      1  0.5660540000000  0.4368580000000  0.5148260000000 1.0
C      1  0.5718240000000  0.5245940000000  0.4498480000000 1.0
C      1  0.4212200000000  0.4827870000000  0.4521130000000 1.0
C      1  0.4647140000000  0.4654460000000  0.4505710000000 1.0
C      1  0.5241900000000  0.5246790000000  0.4471180000000 1.0
C      1  0.5068410000000  0.4972480000000  0.4036560000000 1.0
C      1  0.4773210000000  0.5008890000000  0.3988200000000 1.0
C      1  0.5104320000000  0.5472150000000  0.4337050000000 1.0
C      1  0.4587790000000  0.4380090000000  0.4420880000000 1.0
C      1  0.5386280000000  0.5365990000000  0.6019420000000 1.0
C      1  0.4573360000000  0.4598920000000  0.6049890000000 1.0
C      1  0.4433470000000  0.4282670000000  0.5412670000000 1.0
C      1  0.5544820000000  0.5714750000000  0.5434020000000 1.0
C      1  0.4732210000000  0.5818210000000  0.4350870000000 1.0
C      1  0.5440320000000  0.3976920000000  0.4469020000000 1.0
C      1  0.4416630000000  0.4697130000000  0.4670570000000 1.0
C      1  0.5477680000000  0.5359250000000  0.4604760000000 1.0
C      1  0.4653810000000  0.4934700000000  0.4954110000000 1.0
C      1  0.5351670000000  0.5158490000000  0.4978970000000 1.0
C      1  0.5899930000000  0.5581520000000  0.5100260000000 1.0
C      1  0.4106040000000  0.4449830000000  0.5056950000000 1.0
C      1  0.4454200000000  0.5244580000000  0.4290140000000 1.0
C      1  0.5654020000000  0.4775530000000  0.4352700000000 1.0
C      1  0.3983100000000  0.4835600000000  0.4703890000000 1.0
C      1  0.5942620000000  0.5224690000000  0.4689070000000 1.0
C      1  0.4418800000000  0.5067960000000  0.5477240000000 1.0
C      1  0.5535650000000  0.4879880000000  0.5320170000000 1.0
C      1  0.6144260000000  0.4742750000000  0.4705470000000 1.0
C      1  0.3888130000000  0.5316970000000  0.4708980000000 1.0
C      1  0.5163400000000  0.4515300000000  0.4144040000000 1.0
C      1  0.4691160000000  0.5541740000000  0.3963560000000 1.0
C      1  0.4842990000000  0.4640400000000  0.5966280000000 1.0
C      1  0.5104220000000  0.5388100000000  0.5992200000000 1.0
C      1  0.5402150000000  0.5124400000000  0.4033780000000 1.0
C      1  0.4533500000000  0.4826670000000  0.4049880000000 1.0
C      1  0.4919970000000  0.5327000000000  0.5088750000000 1.0
C      1  0.5062860000000  0.4664670000000  0.5041620000000 1.0
C      1  0.5425330000000  0.5414690000000  0.4878130000000 1.0
C      1  0.4529460000000  0.4677050000000  0.4926970000000 1.0
C      1  0.5374300000000  0.4319340000000  0.5150410000000 1.0
C      1  0.4643820000000  0.5689510000000  0.5146250000000 1.0
C      1  0.4743500000000  0.5660770000000  0.5681870000000 1.0
C      1  0.5224870000000  0.4347740000000  0.5669290000000 1.0
C      1  0.5076820000000  0.4675250000000  0.5322680000000 1.0
C      1  0.4887850000000  0.5314690000000  0.5363260000000 1.0
C      1  0.4097640000000  0.4522210000000  0.5610570000000 1.0
C      1  0.5905070000000  0.5454510000000  0.5596830000000 1.0
C      1  0.4710560000000  0.5131000000000  0.5513440000000 1.0
C      1  0.5283210000000  0.4835790000000  0.5433910000000 1.0
C      1  0.5516680000000  0.4663410000000  0.5937080000000 1.0
C      1  0.4459520000000  0.5328680000000  0.5971420000000 1.0
C      1  0.5791880000000  0.4878490000000  0.5433130000000 1.0
C      1  0.4171580000000  0.4986420000000  0.5626780000000 1.0
C      1  0.4954180000000  0.5619390000000  0.3900110000000 1.0
C      1  0.4948360000000  0.4337330000000  0.4109090000000 1.0
C      1  0.4832790000000  0.6279360000000  0.5457380000000 1.0
C      1  0.5138180000000  0.3734610000000  0.5412190000000 1.0
C      1  0.5790260000000  0.4307320000000  0.5391380000000 1.0
C      1  0.4215090000000  0.5650560000000  0.5377750000000 1.0
C      1  0.4379840000000  0.4257140000000  0.4598430000000 1.0
C      1  0.5945300000000  0.6042190000000  0.4820740000000 1.0
C      1  0.3817790000000  0.5061510000000  0.4675510000000 1.0
C      1  0.6113340000000  0.5000720000000  0.4640330000000 1.0
C      1  0.5495340000000  0.3729010000000  0.4393230000000 1.0
C      1  0.4744050000000  0.6088790000000  0.4408900000000 1.0
C      1  0.4759030000000  0.4924870000000  0.4500400000000 1.0
C      1  0.5231800000000  0.4929780000000  0.4479950000000 1.0
C      1  0.5378180000000  0.4224940000000  0.4538600000000 1.0
C      1  0.4895140000000  0.5614840000000  0.4472850000000 1.0
C      1  0.5429850000000  0.5978900000000  0.5439750000000 1.0
C      1  0.4553950000000  0.4026550000000  0.5387130000000 1.0
C      1  0.4170020000000  0.4391740000000  0.5356660000000 1.0
C      1  0.5801780000000  0.5599910000000  0.5377730000000 1.0
C      1  0.6175960000000  0.4281650000000  0.4849580000000 1.0
C      1  0.4088380000000  0.5748930000000  0.4685120000000 1.0
C      1  0.6037110000000  0.4516300000000  0.4835500000000 1.0
C      1  0.4101100000000  0.5487760000000  0.4769570000000 1.0
C      1  0.4767630000000  0.4197860000000  0.4995030000000 1.0
C      1  0.5236090000000  0.5887430000000  0.5013550000000 1.0
C      1  0.5819360000000  0.5313860000000  0.5808900000000 1.0
C      1  0.4193050000000  0.4742870000000  0.5772450000000 1.0
C      1  0.5775550000000  0.4543490000000  0.4946260000000 1.0
C      1  0.4313480000000  0.5409140000000  0.4944260000000 1.0
C      1  0.5230550000000  0.4213190000000  0.5392870000000 1.0
C      1  0.4758160000000  0.5799960000000  0.5402870000000 1.0
C      1  0.4731720000000  0.6344480000000  0.4457790000000 1.0
C      1  0.5548130000000  0.3485240000000  0.4317410000000 1.0
C      1  0.4492670000000  0.5552120000000  0.5790130000000 1.0
C      1  0.5480490000000  0.4431640000000  0.5778300000000 1.0
C      1  0.5463650000000  0.4738080000000  0.4593980000000 1.0
C      1  0.4659980000000  0.5203140000000  0.4522820000000 1.0
C      1  0.5933760000000  0.5820990000000  0.4957990000000 1.0
C      1  0.4216540000000  0.4289450000000  0.4825750000000 1.0
C      1  0.4929700000000  0.6035070000000  0.5378420000000 1.0
C      1  0.5054330000000  0.3987100000000  0.5346500000000 1.0
C      1  0.5228960000000  0.4460490000000  0.4938450000000 1.0
C      1  0.4783750000000  0.5524410000000  0.4942880000000 1.0
C      1  0.5650390000000  0.5054840000000  0.4271130000000 1.0
C      1  0.4330090000000  0.4954170000000  0.4264610000000 1.0
C      1  0.5076490000000  0.5128400000000  0.4979440000000 1.0
C      1  0.4935950000000  0.4896100000000  0.4943430000000 1.0
C      1  0.4963470000000  0.5161810000000  0.6110670000000 1.0
C      1  0.4893560000000  0.4926000000000  0.5961810000000 1.0
C      1  0.5327660000000  0.4467260000000  0.4667120000000 1.0
C      1  0.4757250000000  0.5449690000000  0.4661330000000 1.0
C      1  0.5619910000000  0.4772180000000  0.4853510000000 1.0
C      1  0.4451780000000  0.5148930000000  0.4988850000000 1.0
C      1  0.4852610000000  0.4100930000000  0.4754760000000 1.0
C      1  0.5223160000000  0.6019920000000  0.4776580000000 1.0
C      1  0.4263900000000  0.5630230000000  0.5641330000000 1.0
C      1  0.5708900000000  0.4325730000000  0.5647510000000 1.0
C      1  0.5174810000000  0.5015310000000  0.5611720000000 1.0
C      1  0.4902800000000  0.5012830000000  0.5693150000000 1.0
C      1  0.5974040000000  0.5332470000000  0.4966790000000 1.0
C      1  0.4012000000000  0.4725350000000  0.4980690000000 1.0
C      1  0.3943130000000  0.4982940000000  0.5444560000000 1.0
C      1  0.6025790000000  0.4974800000000  0.5342830000000 1.0
C      1  0.5105070000000  0.5455550000000  0.5498880000000 1.0
C      1  0.4867900000000  0.4562470000000  0.5482520000000 1.0
END
