TITL C-3201378-2706-179 6.45726596772625e-05 125000 -459.973909634245 0 0 76 (C3h) n - 1
REM
REM in /home/nfs/bkarasulu/CARBON/AIRSS/Generating-Clusters/LCBOP/Higher-Symm/SD-CG/FIRE-CG
REM
REM
REM
REM
REM
REM ./C.cell (b20cbc046b6831c77cfcea5457e17084)
REM AIRSS Version 0.9.1 bugfix July 2018 build 013d7b7c2542+ Fri, 06 Jul 2018 19:26:36 +0100
REM compiler GCC version 9.2.1 20190827 (Red Hat 9.2.1-1)
REM options -cpp -mtune=generic -march=x86-64 -g -O0 -fpre-include=/usr/include/finclude/math-vector-fortran.h
REM seed 1843364126 1261635108 1211736002 366270371 1854554343 424638934 -801653232 -1541769060 540820653 -97137865 1196798282 -1797137158 -1604395035 581977120 960296859 -2061235709 -707078177 -215269211 139658263 -153401377 -1605378691 1559779783 597956878 -394819540 1380062555 -1640711790 -779658520 173516526 -2006011800 -739492559 75073296 470140881 -430368830
REM
CELL 1.54180   50.00000   50.00000   50.00000   90.00000   90.00000   90.00000
LATT -1
SFAC C  
C      1  0.5026610000000  0.5662920000000  0.5471580000000 1.0
C      1  0.4414960000000  0.4702730000000  0.5471540000000 1.0
C      1  0.5552340000000  0.4653120000000  0.5471630000000 1.0
C      1  0.5026680000000  0.5662910000000  0.4516730000000 1.0
C      1  0.4415030000000  0.4702720000000  0.4516690000000 1.0
C      1  0.5552410000000  0.4653110000000  0.4516780000000 1.0
C      1  0.3851780000000  0.5109050000000  0.4723970000000 1.0
C      1  0.5482120000000  0.3962170000000  0.4724110000000 1.0
C      1  0.5660180000000  0.5947530000000  0.4724110000000 1.0
C      1  0.3851740000000  0.5109060000000  0.5264160000000 1.0
C      1  0.5482080000000  0.3962180000000  0.5264310000000 1.0
C      1  0.5660140000000  0.5947530000000  0.5264300000000 1.0
C      1  0.5779660000000  0.4338980000000  0.5141400000000 1.0
C      1  0.5185040000000  0.6016830000000  0.5141330000000 1.0
C      1  0.4029280000000  0.4662950000000  0.5141250000000 1.0
C      1  0.5779680000000  0.4338980000000  0.4847060000000 1.0
C      1  0.5185060000000  0.6016830000000  0.4846990000000 1.0
C      1  0.4029310000000  0.4662950000000  0.4846920000000 1.0
C      1  0.4294980000000  0.5292610000000  0.4705400000000 1.0
C      1  0.5101560000000  0.4254210000000  0.4705480000000 1.0
C      1  0.5597550000000  0.5471930000000  0.4705500000000 1.0
C      1  0.4294930000000  0.5292620000000  0.5282800000000 1.0
C      1  0.5101510000000  0.4254220000000  0.5282880000000 1.0
C      1  0.5597500000000  0.5471940000000  0.5282900000000 1.0
C      1  0.4761480000000  0.5146410000000  0.5231640000000 1.0
C      1  0.4994870000000  0.4731360000000  0.5231660000000 1.0
C      1  0.5237610000000  0.5141000000000  0.5231680000000 1.0
C      1  0.4761520000000  0.5146400000000  0.4756640000000 1.0
C      1  0.4994910000000  0.4731350000000  0.4756670000000 1.0
C      1  0.5237650000000  0.5141000000000  0.4756680000000 1.0
C      1  0.5703670000000  0.5695610000000  0.4849310000000 1.0
C      1  0.4048190000000  0.5272680000000  0.4849180000000 1.0
C      1  0.5242200000000  0.4050460000000  0.4849290000000 1.0
C      1  0.5703640000000  0.5695620000000  0.5139110000000 1.0
C      1  0.4048170000000  0.5272680000000  0.5138980000000 1.0
C      1  0.5242170000000  0.4050470000000  0.5139090000000 1.0
C      1  0.5702640000000  0.4605280000000  0.5238100000000 1.0
C      1  0.4992910000000  0.5816990000000  0.5238030000000 1.0
C      1  0.4298410000000  0.4596500000000  0.5237990000000 1.0
C      1  0.5702680000000  0.4605280000000  0.4750340000000 1.0
C      1  0.4992950000000  0.5816980000000  0.4750270000000 1.0
C      1  0.4298440000000  0.4596490000000  0.4750230000000 1.0
C      1  0.4764920000000  0.5041280000000  0.4508040000000 1.0
C      1  0.5084270000000  0.4786850000000  0.4508060000000 1.0
C      1  0.5144940000000  0.5190620000000  0.4508070000000 1.0
C      1  0.4764850000000  0.5041290000000  0.5480250000000 1.0
C      1  0.5084190000000  0.4786860000000  0.5480270000000 1.0
C      1  0.5144860000000  0.5190630000000  0.5480270000000 1.0
C      1  0.5286530000000  0.4609480000000  0.5566950000000 1.0
C      1  0.5197290000000  0.5454550000000  0.5566940000000 1.0
C      1  0.4510060000000  0.4954740000000  0.5566890000000 1.0
C      1  0.5286620000000  0.4609470000000  0.4421420000000 1.0
C      1  0.5197390000000  0.5454540000000  0.4421410000000 1.0
C      1  0.4510150000000  0.4954730000000  0.4421360000000 1.0
C      1  0.5197020000000  0.4336670000000  0.5540880000000 1.0
C      1  0.5478320000000  0.5513440000000  0.5540890000000 1.0
C      1  0.4318550000000  0.5168670000000  0.5540800000000 1.0
C      1  0.5197110000000  0.4336660000000  0.4447480000000 1.0
C      1  0.5478400000000  0.5513430000000  0.4447490000000 1.0
C      1  0.4318640000000  0.5168660000000  0.4447400000000 1.0
C      1  0.5714190000000  0.4100850000000  0.5276420000000 1.0
C      1  0.5423980000000  0.6079210000000  0.5276370000000 1.0
C      1  0.3855780000000  0.4838710000000  0.5276260000000 1.0
C      1  0.5714230000000  0.4100850000000  0.4712040000000 1.0
C      1  0.5424030000000  0.6079200000000  0.4711990000000 1.0
C      1  0.3855820000000  0.4838700000000  0.4711880000000 1.0
C      1  0.4538700000000  0.5285910000000  0.4854690000000 1.0
C      1  0.4985480000000  0.4468650000000  0.4854730000000 1.0
C      1  0.5469860000000  0.5264200000000  0.4854760000000 1.0
C      1  0.4538680000000  0.5285910000000  0.5133550000000 1.0
C      1  0.4985460000000  0.4468650000000  0.5133600000000 1.0
C      1  0.5469840000000  0.5264200000000  0.5133630000000 1.0
C      1  0.4860600000000  0.5730100000000  0.4994140000000 1.0
C      1  0.5693570000000  0.4763330000000  0.4994220000000 1.0
C      1  0.4439840000000  0.4525340000000  0.4994120000000 1.0
C      1  0.4998010000000  0.5006250000000  0.4994160000000 1.0
END
