TITL C-3201379-3821-188 -1.41759151559272e-08 125000 -838.285275191127 0 0 135 (C1) n - 1
REM
REM in /home/nfs/bkarasulu/CARBON/AIRSS/Generating-Clusters/LCBOP/Higher-Symm/SD-CG/FIRE-CG
REM
REM
REM
REM
REM
REM ./C.cell (b20cbc046b6831c77cfcea5457e17084)
REM AIRSS Version 0.9.1 bugfix July 2018 build 013d7b7c2542+ Fri, 06 Jul 2018 19:26:36 +0100
REM compiler GCC version 9.2.1 20190827 (Red Hat 9.2.1-1)
REM options -cpp -mtune=generic -march=x86-64 -g -O0 -fpre-include=/usr/include/finclude/math-vector-fortran.h
REM seed 1730741662 -59805695 -1405198940 1980955854 896526616 852446999 1297472295 777212938 3168188 -857512021 -259394439 -1786715490 1511311010 -1583654845 196731866 -1232362661 1670947629 -1179537268 -1208794250 1785039934 -1881093512 -2057343170 -1723248631 -824956594 760221512 -501680403 1859268639 1088337598 -934485839 -1983041690 -287700071 43995888 684137400
REM
CELL 1.54180   50.00000   50.00000   50.00000   90.00000   90.00000   90.00000
LATT -1
SFAC C  
C      1  0.4581700000000  0.5589880000000  0.5600030000000 1.0
C      1  0.5109180000000  0.5618540000000  0.5223600000000 1.0
C      1  0.4159530000000  0.4232800000000  0.5277710000000 1.0
C      1  0.5431980000000  0.4261080000000  0.4190750000000 1.0
C      1  0.4156560000000  0.4971460000000  0.5478570000000 1.0
C      1  0.5014540000000  0.4201740000000  0.4894010000000 1.0
C      1  0.4761630000000  0.4807100000000  0.5527850000000 1.0
C      1  0.4328400000000  0.5437420000000  0.5646470000000 1.0
C      1  0.5623870000000  0.4613710000000  0.4899510000000 1.0
C      1  0.4340150000000  0.4643550000000  0.4299930000000 1.0
C      1  0.5969670000000  0.5805170000000  0.4843590000000 1.0
C      1  0.4773700000000  0.4794620000000  0.4066910000000 1.0
C      1  0.4101100000000  0.4528930000000  0.5714100000000 1.0
C      1  0.5633870000000  0.5933700000000  0.5599430000000 1.0
C      1  0.4740350000000  0.5834120000000  0.4216400000000 1.0
C      1  0.4978060000000  0.4672120000000  0.3905550000000 1.0
C      1  0.4298840000000  0.5307140000000  0.5153180000000 1.0
C      1  0.5473780000000  0.4323420000000  0.5505530000000 1.0
C      1  0.5141940000000  0.4445830000000  0.4985330000000 1.0
C      1  0.4834270000000  0.5071760000000  0.5492540000000 1.0
C      1  0.5684300000000  0.4630860000000  0.4415150000000 1.0
C      1  0.5326890000000  0.4998370000000  0.4592440000000 1.0
C      1  0.4118400000000  0.5043470000000  0.4777600000000 1.0
C      1  0.5801400000000  0.5825900000000  0.5776450000000 1.0
C      1  0.5242050000000  0.4732890000000  0.4618470000000 1.0
C      1  0.5762920000000  0.5424350000000  0.4611050000000 1.0
C      1  0.4952800000000  0.5283420000000  0.4618710000000 1.0
C      1  0.5212860000000  0.4250320000000  0.4038100000000 1.0
C      1  0.5681900000000  0.5162360000000  0.5252490000000 1.0
C      1  0.4400370000000  0.4991690000000  0.4751000000000 1.0
C      1  0.4613370000000  0.5777950000000  0.5354890000000 1.0
C      1  0.4587460000000  0.5316450000000  0.5114980000000 1.0
C      1  0.5358230000000  0.5585710000000  0.4364190000000 1.0
C      1  0.5295960000000  0.4842840000000  0.5386200000000 1.0
C      1  0.4139500000000  0.5533520000000  0.5232850000000 1.0
C      1  0.4513900000000  0.4797380000000  0.4934320000000 1.0
C      1  0.5254610000000  0.4424690000000  0.5666650000000 1.0
C      1  0.4300140000000  0.4410920000000  0.5853680000000 1.0
C      1  0.4882200000000  0.4885480000000  0.4318070000000 1.0
C      1  0.4491030000000  0.5965020000000  0.4664110000000 1.0
C      1  0.5273340000000  0.5782340000000  0.4556070000000 1.0
C      1  0.5564900000000  0.5591720000000  0.5023170000000 1.0
C      1  0.6235420000000  0.4846210000000  0.4777990000000 1.0
C      1  0.4121980000000  0.5640040000000  0.4691050000000 1.0
C      1  0.4113000000000  0.5415350000000  0.4511810000000 1.0
C      1  0.4826540000000  0.5204360000000  0.5248560000000 1.0
C      1  0.6259080000000  0.5553720000000  0.5147130000000 1.0
C      1  0.5364300000000  0.3982970000000  0.5098180000000 1.0
C      1  0.5594790000000  0.4938330000000  0.5917680000000 1.0
C      1  0.5781290000000  0.4716240000000  0.4678730000000 1.0
C      1  0.4082590000000  0.4671290000000  0.4441240000000 1.0
C      1  0.5476590000000  0.5909380000000  0.5385550000000 1.0
C      1  0.4789610000000  0.4534370000000  0.4629620000000 1.0
C      1  0.5114220000000  0.5951510000000  0.4694440000000 1.0
C      1  0.4824020000000  0.5506160000000  0.4727310000000 1.0
C      1  0.4936910000000  0.6109740000000  0.4854870000000 1.0
C      1  0.4289490000000  0.5830490000000  0.4816250000000 1.0
C      1  0.5445770000000  0.4085170000000  0.5351020000000 1.0
C      1  0.4303650000000  0.4379150000000  0.4814160000000 1.0
C      1  0.5015410000000  0.4391600000000  0.3922090000000 1.0
C      1  0.4130470000000  0.4533420000000  0.5214900000000 1.0
C      1  0.5589980000000  0.4349470000000  0.4407810000000 1.0
C      1  0.4543640000000  0.4532670000000  0.4461410000000 1.0
C      1  0.4786650000000  0.4248830000000  0.4734190000000 1.0
C      1  0.4842250000000  0.5704970000000  0.5187990000000 1.0
C      1  0.5924470000000  0.5195460000000  0.4665880000000 1.0
C      1  0.4505250000000  0.4183190000000  0.4757750000000 1.0
C      1  0.5980700000000  0.4920180000000  0.4707880000000 1.0
C      1  0.5321280000000  0.4868370000000  0.5910760000000 1.0
C      1  0.5592640000000  0.4856200000000  0.4239960000000 1.0
C      1  0.4369200000000  0.5340230000000  0.4405620000000 1.0
C      1  0.5126160000000  0.5074740000000  0.5874060000000 1.0
C      1  0.5500080000000  0.5089590000000  0.4388750000000 1.0
C      1  0.5185480000000  0.5183230000000  0.4740830000000 1.0
C      1  0.5225010000000  0.4810810000000  0.3869630000000 1.0
C      1  0.4485190000000  0.4752080000000  0.4071290000000 1.0
C      1  0.3941460000000  0.4652120000000  0.4987840000000 1.0
C      1  0.5262390000000  0.4452480000000  0.6150760000000 1.0
C      1  0.5598890000000  0.4169330000000  0.4636050000000 1.0
C      1  0.5318220000000  0.5491100000000  0.3886520000000 1.0
C      1  0.5820850000000  0.4902870000000  0.5751890000000 1.0
C      1  0.5277670000000  0.4582460000000  0.5908720000000 1.0
C      1  0.5836350000000  0.4654390000000  0.5615090000000 1.0
C      1  0.4610950000000  0.4755390000000  0.5763980000000 1.0
C      1  0.5077010000000  0.3978310000000  0.5054960000000 1.0
C      1  0.4295590000000  0.5139210000000  0.5679200000000 1.0
C      1  0.4782610000000  0.4297370000000  0.5758180000000 1.0
C      1  0.6192580000000  0.5757290000000  0.4986070000000 1.0
C      1  0.4136610000000  0.5076450000000  0.5219580000000 1.0
C      1  0.4955820000000  0.5709930000000  0.4119700000000 1.0
C      1  0.5745670000000  0.5640090000000  0.4805560000000 1.0
C      1  0.4451810000000  0.5919340000000  0.5149660000000 1.0
C      1  0.4934980000000  0.5218410000000  0.5718670000000 1.0
C      1  0.5080350000000  0.5329200000000  0.5182450000000 1.0
C      1  0.5998350000000  0.5356860000000  0.5831240000000 1.0
C      1  0.4454780000000  0.4976950000000  0.5852260000000 1.0
C      1  0.4115620000000  0.5564910000000  0.5502830000000 1.0
C      1  0.4982640000000  0.4397570000000  0.5574930000000 1.0
C      1  0.4812040000000  0.5476410000000  0.5735900000000 1.0
C      1  0.5522910000000  0.4962820000000  0.5361620000000 1.0
C      1  0.5554450000000  0.5375980000000  0.4418080000000 1.0
C      1  0.5467200000000  0.4826210000000  0.3987990000000 1.0
C      1  0.4660310000000  0.6053020000000  0.4880490000000 1.0
C      1  0.5936610000000  0.5614370000000  0.5866290000000 1.0
C      1  0.3982940000000  0.5155640000000  0.4552420000000 1.0
C      1  0.4574350000000  0.5931520000000  0.4401450000000 1.0
C      1  0.5727460000000  0.4539410000000  0.5150590000000 1.0
C      1  0.5535120000000  0.5312860000000  0.5066780000000 1.0
C      1  0.5211840000000  0.5591120000000  0.4117530000000 1.0
C      1  0.4572250000000  0.4479960000000  0.5828060000000 1.0
C      1  0.4108880000000  0.4686290000000  0.5478770000000 1.0
C      1  0.5946830000000  0.5141130000000  0.5658370000000 1.0
C      1  0.5269660000000  0.5230690000000  0.5001940000000 1.0
C      1  0.5696450000000  0.4492240000000  0.5429520000000 1.0
C      1  0.4354000000000  0.4044030000000  0.5295400000000 1.0
C      1  0.4853220000000  0.3879650000000  0.5198930000000 1.0
C      1  0.5000870000000  0.4680360000000  0.4483180000000 1.0
C      1  0.4520090000000  0.5131790000000  0.4527290000000 1.0
C      1  0.5933220000000  0.5206110000000  0.5378410000000 1.0
C      1  0.5373650000000  0.5736080000000  0.5190680000000 1.0
C      1  0.5040270000000  0.6326580000000  0.4987590000000 1.0
C      1  0.3934600000000  0.4918910000000  0.4392570000000 1.0
C      1  0.4379580000000  0.4564580000000  0.5039870000000 1.0
C      1  0.4796670000000  0.4045340000000  0.5862820000000 1.0
C      1  0.4595900000000  0.3926070000000  0.5269910000000 1.0
C      1  0.5524570000000  0.4033150000000  0.4860630000000 1.0
C      1  0.4792110000000  0.5111810000000  0.4461240000000 1.0
C      1  0.4887310000000  0.4595240000000  0.5388370000000 1.0
C      1  0.4709200000000  0.5543090000000  0.4977510000000 1.0
C      1  0.4055640000000  0.4528170000000  0.4711500000000 1.0
C      1  0.4773760000000  0.4701680000000  0.4894150000000 1.0
C      1  0.3995960000000  0.4942580000000  0.5008230000000 1.0
C      1  0.5342940000000  0.4582940000000  0.4840470000000 1.0
C      1  0.6148960000000  0.5339400000000  0.5261350000000 1.0
C      1  0.4942260000000  0.4609560000000  0.5109950000000 1.0
END
