TITL C-3201373-1215-813 166.141318621988 125000 -914.797521129146 0 0 152 (C1) n - 1
REM
REM in /home/nfs/bkarasulu/CARBON/AIRSS/Generating-Clusters/LCBOP/Higher-Symm/SD-CG/FIRE-CG
REM
REM
REM
REM
REM
REM ./C.cell (b20cbc046b6831c77cfcea5457e17084)
REM AIRSS Version 0.9.1 bugfix July 2018 build 013d7b7c2542+ Fri, 06 Jul 2018 19:26:36 +0100
REM compiler GCC version 9.2.1 20190827 (Red Hat 9.2.1-1)
REM options -cpp -mtune=generic -march=x86-64 -g -O0 -fpre-include=/usr/include/finclude/math-vector-fortran.h
REM seed -2042487028 -1553603168 610833131 254173292 2113662637 -926376940 -1769758842 1593533807 -1256547911 792696565 -1638835616 2105055588 1402147949 945957318 1615866794 -143393120 1988601143 2130584879 263616835 -763622989 1770687369 -619476614 -1509478175 1484389768 -1336826288 208038998 1725023933 2144924118 -948504195 126678868 -548962688 5160412 -891192913
REM
CELL 1.54180   50.00000   50.00000   50.00000   90.00000   90.00000   90.00000
LATT -1
SFAC C  
C      1  0.5116790000000  0.4825840000000  0.5332320000000 1.0
C      1  0.5235640000000  0.4776930000000  0.4815790000000 1.0
C      1  0.5585860000000  0.4757690000000  0.5737550000000 1.0
C      1  0.5593370000000  0.4748030000000  0.4156040000000 1.0
C      1  0.5532150000000  0.5202370000000  0.4001440000000 1.0
C      1  0.5704830000000  0.5172490000000  0.5945060000000 1.0
C      1  0.5005550000000  0.5353170000000  0.5674030000000 1.0
C      1  0.5132000000000  0.5351960000000  0.4483900000000 1.0
C      1  0.5414530000000  0.5357200000000  0.5372180000000 1.0
C      1  0.5409660000000  0.5346560000000  0.4531420000000 1.0
C      1  0.3915120000000  0.5323440000000  0.4670820000000 1.0
C      1  0.3735810000000  0.5345920000000  0.5167260000000 1.0
C      1  0.5562470000000  0.4163500000000  0.4536400000000 1.0
C      1  0.5524690000000  0.4143510000000  0.5474360000000 1.0
C      1  0.4272260000000  0.4275740000000  0.4696510000000 1.0
C      1  0.4251510000000  0.4222870000000  0.5252970000000 1.0
C      1  0.5556360000000  0.5786450000000  0.5555600000000 1.0
C      1  0.5510190000000  0.5806420000000  0.4425510000000 1.0
C      1  0.4264380000000  0.5124670000000  0.4304780000000 1.0
C      1  0.3874700000000  0.5424400000000  0.5686290000000 1.0
C      1  0.5316210000000  0.5933020000000  0.5526230000000 1.0
C      1  0.5274190000000  0.5943260000000  0.4501370000000 1.0
C      1  0.4275620000000  0.4568820000000  0.5598640000000 1.0
C      1  0.4418760000000  0.4629410000000  0.4370250000000 1.0
C      1  0.4440010000000  0.5524930000000  0.5456100000000 1.0
C      1  0.4618110000000  0.5527070000000  0.4714590000000 1.0
C      1  0.5531200000000  0.5350660000000  0.6045700000000 1.0
C      1  0.5305400000000  0.5345420000000  0.3961930000000 1.0
C      1  0.5145170000000  0.5286820000000  0.5434510000000 1.0
C      1  0.5502140000000  0.5111090000000  0.4661210000000 1.0
C      1  0.5437170000000  0.4571740000000  0.3990910000000 1.0
C      1  0.5412530000000  0.4620900000000  0.5924330000000 1.0
C      1  0.4970650000000  0.5550150000000  0.4321910000000 1.0
C      1  0.5118620000000  0.5574780000000  0.5817120000000 1.0
C      1  0.5597540000000  0.5540450000000  0.4438030000000 1.0
C      1  0.5610730000000  0.5515410000000  0.5513440000000 1.0
C      1  0.5105400000000  0.5840000000000  0.5700180000000 1.0
C      1  0.5028370000000  0.5845110000000  0.4386490000000 1.0
C      1  0.4794500000000  0.4152880000000  0.4100880000000 1.0
C      1  0.4753910000000  0.4149390000000  0.5905920000000 1.0
C      1  0.5284560000000  0.6084990000000  0.5282800000000 1.0
C      1  0.5276520000000  0.6106920000000  0.4740250000000 1.0
C      1  0.4155500000000  0.5224880000000  0.4553740000000 1.0
C      1  0.3864740000000  0.5319580000000  0.5418590000000 1.0
C      1  0.4832160000000  0.4946650000000  0.4388960000000 1.0
C      1  0.4540120000000  0.5058230000000  0.5652590000000 1.0
C      1  0.5096190000000  0.4145060000000  0.4467180000000 1.0
C      1  0.5046590000000  0.4185710000000  0.5529900000000 1.0
C      1  0.6538490000000  0.4363610000000  0.5129160000000 1.0
C      1  0.6480880000000  0.4352320000000  0.4648700000000 1.0
C      1  0.5019600000000  0.5088190000000  0.5278030000000 1.0
C      1  0.5041800000000  0.5019930000000  0.4810880000000 1.0
C      1  0.4816860000000  0.6026250000000  0.4353180000000 1.0
C      1  0.4871290000000  0.5988450000000  0.5723250000000 1.0
C      1  0.4522010000000  0.4879700000000  0.4747920000000 1.0
C      1  0.4434990000000  0.4850100000000  0.5219470000000 1.0
C      1  0.3710120000000  0.4518520000000  0.5200020000000 1.0
C      1  0.3916410000000  0.4756430000000  0.4808650000000 1.0
C      1  0.4528920000000  0.5338970000000  0.3955650000000 1.0
C      1  0.4196710000000  0.5429590000000  0.6077990000000 1.0
C      1  0.5879000000000  0.5134370000000  0.4373890000000 1.0
C      1  0.5896530000000  0.5106120000000  0.5483670000000 1.0
C      1  0.4330390000000  0.4286970000000  0.5534760000000 1.0
C      1  0.4391880000000  0.4343800000000  0.4430450000000 1.0
C      1  0.4409190000000  0.5761700000000  0.5301590000000 1.0
C      1  0.4440650000000  0.5749950000000  0.4781200000000 1.0
C      1  0.5230630000000  0.4415610000000  0.5938140000000 1.0
C      1  0.5266370000000  0.4360880000000  0.4028630000000 1.0
C      1  0.4993390000000  0.5115890000000  0.4547640000000 1.0
C      1  0.4789020000000  0.5176940000000  0.5738810000000 1.0
C      1  0.5311620000000  0.4113120000000  0.4656440000000 1.0
C      1  0.5273380000000  0.4130530000000  0.5347080000000 1.0
C      1  0.4661810000000  0.4738940000000  0.4518850000000 1.0
C      1  0.4500880000000  0.4762720000000  0.5506310000000 1.0
C      1  0.3988390000000  0.4765780000000  0.4530130000000 1.0
C      1  0.3789030000000  0.4581840000000  0.5448180000000 1.0
C      1  0.4839280000000  0.4255810000000  0.4534580000000 1.0
C      1  0.4774370000000  0.4280830000000  0.5483810000000 1.0
C      1  0.5388100000000  0.4767990000000  0.5305090000000 1.0
C      1  0.5413050000000  0.4843100000000  0.4577350000000 1.0
C      1  0.5562730000000  0.4637890000000  0.5484470000000 1.0
C      1  0.5564780000000  0.4664190000000  0.4424760000000 1.0
C      1  0.5755550000000  0.4990280000000  0.5730140000000 1.0
C      1  0.5700130000000  0.5017860000000  0.4149850000000 1.0
C      1  0.4001540000000  0.4634690000000  0.5603640000000 1.0
C      1  0.4207190000000  0.4825000000000  0.4341070000000 1.0
C      1  0.5661300000000  0.4374900000000  0.5480990000000 1.0
C      1  0.5658140000000  0.4406750000000  0.4477830000000 1.0
C      1  0.4489010000000  0.5303380000000  0.4226690000000 1.0
C      1  0.4132060000000  0.5384010000000  0.5819200000000 1.0
C      1  0.4671040000000  0.5464990000000  0.4417550000000 1.0
C      1  0.4325290000000  0.5276320000000  0.5600140000000 1.0
C      1  0.4634280000000  0.6049000000000  0.5622660000000 1.0
C      1  0.4568150000000  0.6066150000000  0.4437360000000 1.0
C      1  0.4429110000000  0.6013290000000  0.5437370000000 1.0
C      1  0.4364320000000  0.5932880000000  0.4574310000000 1.0
C      1  0.5315180000000  0.5505570000000  0.6008480000000 1.0
C      1  0.5082320000000  0.5478940000000  0.4043830000000 1.0
C      1  0.5847560000000  0.5424570000000  0.4374330000000 1.0
C      1  0.5865070000000  0.5393540000000  0.5517370000000 1.0
C      1  0.4741330000000  0.4563180000000  0.5446610000000 1.0
C      1  0.4848140000000  0.4522640000000  0.4620900000000 1.0
C      1  0.4698200000000  0.4087320000000  0.3855080000000 1.0
C      1  0.4674350000000  0.4071420000000  0.6153320000000 1.0
C      1  0.4249900000000  0.6215040000000  0.5391860000000 1.0
C      1  0.4104800000000  0.5960440000000  0.4492710000000 1.0
C      1  0.4948220000000  0.4616830000000  0.5270870000000 1.0
C      1  0.5044100000000  0.4557190000000  0.4817900000000 1.0
C      1  0.5049750000000  0.4218520000000  0.5830490000000 1.0
C      1  0.5087930000000  0.4185150000000  0.4168260000000 1.0
C      1  0.5987940000000  0.5036300000000  0.4641660000000 1.0
C      1  0.5990380000000  0.5034730000000  0.5207400000000 1.0
C      1  0.4339540000000  0.5104470000000  0.4733100000000 1.0
C      1  0.4118570000000  0.5178770000000  0.5401520000000 1.0
C      1  0.4576890000000  0.4182450000000  0.5666530000000 1.0
C      1  0.4631070000000  0.4201870000000  0.4341650000000 1.0
C      1  0.6687840000000  0.4357870000000  0.5342640000000 1.0
C      1  0.6572630000000  0.4339030000000  0.4405140000000 1.0
C      1  0.4879940000000  0.4154960000000  0.5036580000000 1.0
C      1  0.4025150000000  0.5823510000000  0.5020570000000 1.0
C      1  0.4979980000000  0.4428760000000  0.5058320000000 1.0
C      1  0.6371860000000  0.4372930000000  0.4905110000000 1.0
C      1  0.4847660000000  0.5101980000000  0.5030380000000 1.0
C      1  0.4374560000000  0.5239320000000  0.4986300000000 1.0
C      1  0.5464780000000  0.4803330000000  0.5026240000000 1.0
C      1  0.6004460000000  0.4929710000000  0.4924350000000 1.0
C      1  0.5665800000000  0.4588770000000  0.4969890000000 1.0
C      1  0.5380000000000  0.4165730000000  0.5002960000000 1.0
C      1  0.4609800000000  0.4127930000000  0.4981600000000 1.0
C      1  0.4635300000000  0.4869160000000  0.5014880000000 1.0
C      1  0.5530380000000  0.5581190000000  0.4982270000000 1.0
C      1  0.5288650000000  0.6007800000000  0.5008230000000 1.0
C      1  0.5779480000000  0.5694340000000  0.4931410000000 1.0
C      1  0.3827930000000  0.5224770000000  0.4925660000000 1.0
C      1  0.5287930000000  0.5724080000000  0.4986760000000 1.0
C      1  0.5009440000000  0.3912170000000  0.5046240000000 1.0
C      1  0.4652990000000  0.5339160000000  0.4948600000000 1.0
C      1  0.3784560000000  0.5924140000000  0.5024810000000 1.0
C      1  0.6095930000000  0.4404370000000  0.4937250000000 1.0
C      1  0.4301680000000  0.5768730000000  0.5034440000000 1.0
C      1  0.5899010000000  0.4195910000000  0.4982170000000 1.0
C      1  0.4214990000000  0.5045130000000  0.5165070000000 1.0
C      1  0.5944890000000  0.4649650000000  0.4930210000000 1.0
C      1  0.5505290000000  0.5325890000000  0.5103110000000 1.0
C      1  0.6272610000000  0.5872920000000  0.4899260000000 1.0
C      1  0.5541470000000  0.5094600000000  0.4952260000000 1.0
C      1  0.6026440000000  0.5789080000000  0.4917010000000 1.0
C      1  0.3977060000000  0.4978270000000  0.4981290000000 1.0
C      1  0.5044180000000  0.5605300000000  0.4996440000000 1.0
C      1  0.4342600000000  0.4212060000000  0.4973980000000 1.0
C      1  0.3769170000000  0.4555700000000  0.4940200000000 1.0
C      1  0.5627730000000  0.4300510000000  0.4995580000000 1.0
END
