TITL C-3201376-6384-459 0.193712015270189 125000 -1016.59350898478 0 0 166 (C2) n - 1
REM
REM in /home/nfs/bkarasulu/CARBON/AIRSS/Generating-Clusters/LCBOP/Higher-Symm/SD-CG/FIRE-CG
REM
REM
REM
REM
REM
REM ./C.cell (b20cbc046b6831c77cfcea5457e17084)
REM AIRSS Version 0.9.1 bugfix July 2018 build 013d7b7c2542+ Fri, 06 Jul 2018 19:26:36 +0100
REM compiler GCC version 9.2.1 20190827 (Red Hat 9.2.1-1)
REM options -cpp -mtune=generic -march=x86-64 -g -O0 -fpre-include=/usr/include/finclude/math-vector-fortran.h
REM seed -2131295576 887650042 -928505487 -177687651 -1703652996 -1503101061 581194875 697453710 1451929342 -747537095 2065441613 -230983787 -2053839720 403991771 -1863169065 962896198 -117004891 -2060889336 1133687647 1424662246 -891678143 -1027175996 1760385487 450205159 1864649690 700955236 1171603095 1660245554 -1841221181 1915369988 1200899777 -530624730 -3604542
REM
CELL 1.54180   50.00000   50.00000   50.00000   90.00000   90.00000   90.00000
LATT -1
SFAC C  
C      1  0.4853850000000  0.4280900000000  0.3975720000000 1.0
C      1  0.5146140000000  0.5719110000000  0.3975730000000 1.0
C      1  0.4855710000000  0.4278530000000  0.6016610000000 1.0
C      1  0.5144300000000  0.5721460000000  0.6016620000000 1.0
C      1  0.5560190000000  0.5959650000000  0.4137640000000 1.0
C      1  0.4439790000000  0.4040360000000  0.4137630000000 1.0
C      1  0.5552930000000  0.5971590000000  0.5856130000000 1.0
C      1  0.4447080000000  0.4028400000000  0.5856120000000 1.0
C      1  0.4955890000000  0.4483940000000  0.5851110000000 1.0
C      1  0.5044120000000  0.5516040000000  0.5851120000000 1.0
C      1  0.4957170000000  0.4482150000000  0.4144110000000 1.0
C      1  0.5042810000000  0.5517860000000  0.4144110000000 1.0
C      1  0.6208220000000  0.4938530000000  0.4871990000000 1.0
C      1  0.3791780000000  0.5061480000000  0.4872000000000 1.0
C      1  0.6222970000000  0.4942000000000  0.5141230000000 1.0
C      1  0.3777040000000  0.5058000000000  0.5141240000000 1.0
C      1  0.5203880000000  0.3933050000000  0.4739100000000 1.0
C      1  0.4796120000000  0.6066950000000  0.4739120000000 1.0
C      1  0.5198710000000  0.3927540000000  0.5254130000000 1.0
C      1  0.4801300000000  0.6072460000000  0.5254150000000 1.0
C      1  0.5397870000000  0.4893350000000  0.4403630000000 1.0
C      1  0.4602120000000  0.5106660000000  0.4403640000000 1.0
C      1  0.5398330000000  0.4898040000000  0.5599430000000 1.0
C      1  0.4601680000000  0.5101950000000  0.5599440000000 1.0
C      1  0.4101700000000  0.4780550000000  0.4622060000000 1.0
C      1  0.5898290000000  0.5219450000000  0.4622060000000 1.0
C      1  0.4091000000000  0.4777490000000  0.5391850000000 1.0
C      1  0.5909010000000  0.5222510000000  0.5391840000000 1.0
C      1  0.3994850000000  0.5094780000000  0.4056960000000 1.0
C      1  0.6005140000000  0.4905230000000  0.4056940000000 1.0
C      1  0.3997170000000  0.5090310000000  0.5962600000000 1.0
C      1  0.6002850000000  0.4909680000000  0.5962580000000 1.0
C      1  0.4758340000000  0.5494390000000  0.4188590000000 1.0
C      1  0.5241650000000  0.4505630000000  0.4188580000000 1.0
C      1  0.4759010000000  0.5489360000000  0.5812750000000 1.0
C      1  0.5241000000000  0.4510630000000  0.5812730000000 1.0
C      1  0.5983610000000  0.5693160000000  0.5284360000000 1.0
C      1  0.4016400000000  0.4306840000000  0.5284360000000 1.0
C      1  0.5982090000000  0.5690720000000  0.4721930000000 1.0
C      1  0.4017910000000  0.4309290000000  0.4721930000000 1.0
C      1  0.5458270000000  0.3705450000000  0.5608370000000 1.0
C      1  0.4541740000000  0.6294540000000  0.5608400000000 1.0
C      1  0.5468730000000  0.3717690000000  0.4384560000000 1.0
C      1  0.4531260000000  0.6282320000000  0.4384590000000 1.0
C      1  0.4645760000000  0.4112430000000  0.6013670000000 1.0
C      1  0.5354260000000  0.5887550000000  0.6013680000000 1.0
C      1  0.4639210000000  0.4120560000000  0.3978750000000 1.0
C      1  0.5360780000000  0.5879460000000  0.3978760000000 1.0
C      1  0.5641560000000  0.5986170000000  0.4405170000000 1.0
C      1  0.4358430000000  0.4013840000000  0.4405170000000 1.0
C      1  0.5639020000000  0.5994270000000  0.5589880000000 1.0
C      1  0.4360980000000  0.4005730000000  0.5589880000000 1.0
C      1  0.4452910000000  0.6375500000000  0.5130660000000 1.0
C      1  0.5547090000000  0.3624500000000  0.5130630000000 1.0
C      1  0.4450510000000  0.6373150000000  0.4862110000000 1.0
C      1  0.5549490000000  0.3626850000000  0.4862080000000 1.0
C      1  0.4241950000000  0.5384740000000  0.5648730000000 1.0
C      1  0.5758060000000  0.4615250000000  0.5648720000000 1.0
C      1  0.4246400000000  0.5390390000000  0.4365940000000 1.0
C      1  0.5753590000000  0.4609620000000  0.4365930000000 1.0
C      1  0.4531350000000  0.5354250000000  0.5704950000000 1.0
C      1  0.5468660000000  0.4645730000000  0.5704940000000 1.0
C      1  0.4533330000000  0.5360690000000  0.4303330000000 1.0
C      1  0.5466660000000  0.4639320000000  0.4303320000000 1.0
C      1  0.5950120000000  0.5158710000000  0.5874960000000 1.0
C      1  0.4049890000000  0.4841280000000  0.5874970000000 1.0
C      1  0.5950110000000  0.5155280000000  0.4139950000000 1.0
C      1  0.4049870000000  0.4844740000000  0.4139960000000 1.0
C      1  0.6001480000000  0.4950410000000  0.4675880000000 1.0
C      1  0.3998510000000  0.5049590000000  0.4675890000000 1.0
C      1  0.6028440000000  0.4957000000000  0.5348710000000 1.0
C      1  0.3971560000000  0.5043000000000  0.5348730000000 1.0
C      1  0.5272470000000  0.6228690000000  0.5284530000000 1.0
C      1  0.4727530000000  0.3771310000000  0.5284520000000 1.0
C      1  0.5267470000000  0.6223590000000  0.4698460000000 1.0
C      1  0.4732530000000  0.3776420000000  0.4698440000000 1.0
C      1  0.5532180000000  0.5365940000000  0.4269090000000 1.0
C      1  0.4467810000000  0.4634070000000  0.4269090000000 1.0
C      1  0.5535020000000  0.5366220000000  0.5736340000000 1.0
C      1  0.4464990000000  0.4633760000000  0.5736340000000 1.0
C      1  0.4958500000000  0.3819240000000  0.5137310000000 1.0
C      1  0.5041500000000  0.6180750000000  0.5137330000000 1.0
C      1  0.4961270000000  0.3822630000000  0.4849540000000 1.0
C      1  0.5038730000000  0.6177380000000  0.4849560000000 1.0
C      1  0.6173150000000  0.5839960000000  0.4867210000000 1.0
C      1  0.3826850000000  0.4160040000000  0.4867210000000 1.0
C      1  0.6174110000000  0.5840950000000  0.5136870000000 1.0
C      1  0.3825890000000  0.4159050000000  0.5136880000000 1.0
C      1  0.5465200000000  0.4997610000000  0.5361530000000 1.0
C      1  0.4534800000000  0.5002380000000  0.5361540000000 1.0
C      1  0.5462820000000  0.5019970000000  0.4627250000000 1.0
C      1  0.4537170000000  0.4980040000000  0.4627260000000 1.0
C      1  0.4723690000000  0.5816420000000  0.4854880000000 1.0
C      1  0.5276310000000  0.4183580000000  0.4854870000000 1.0
C      1  0.4729150000000  0.5819140000000  0.5145150000000 1.0
C      1  0.5270850000000  0.4180860000000  0.5145140000000 1.0
C      1  0.4745900000000  0.5563190000000  0.5258030000000 1.0
C      1  0.5254110000000  0.4436800000000  0.5258020000000 1.0
C      1  0.4728390000000  0.5557730000000  0.4746140000000 1.0
C      1  0.5271610000000  0.4442280000000  0.4746130000000 1.0
C      1  0.5491140000000  0.3694530000000  0.5871040000000 1.0
C      1  0.4508870000000  0.6305460000000  0.5871070000000 1.0
C      1  0.5506880000000  0.3714500000000  0.4122410000000 1.0
C      1  0.4493110000000  0.6285510000000  0.4122430000000 1.0
C      1  0.5175420000000  0.4687400000000  0.4859680000000 1.0
C      1  0.4824580000000  0.5312600000000  0.4859690000000 1.0
C      1  0.5166040000000  0.4683920000000  0.5142180000000 1.0
C      1  0.4833960000000  0.5316080000000  0.5142190000000 1.0
C      1  0.5245700000000  0.5386560000000  0.4306570000000 1.0
C      1  0.4754300000000  0.4613450000000  0.4306560000000 1.0
C      1  0.5249910000000  0.5384190000000  0.5692140000000 1.0
C      1  0.4750100000000  0.4615800000000  0.5692140000000 1.0
C      1  0.5175000000000  0.5345900000000  0.4576830000000 1.0
C      1  0.4825000000000  0.4654110000000  0.4576830000000 1.0
C      1  0.5187710000000  0.5337480000000  0.5420740000000 1.0
C      1  0.4812300000000  0.4662520000000  0.5420740000000 1.0
C      1  0.4166350000000  0.4181440000000  0.4521880000000 1.0
C      1  0.5833640000000  0.5818560000000  0.4521880000000 1.0
C      1  0.4167100000000  0.4175940000000  0.5480450000000 1.0
C      1  0.5832900000000  0.5824050000000  0.5480450000000 1.0
C      1  0.4590220000000  0.6244320000000  0.4653330000000 1.0
C      1  0.5409770000000  0.3755690000000  0.4653300000000 1.0
C      1  0.4596280000000  0.6250930000000  0.5339570000000 1.0
C      1  0.5403730000000  0.3749060000000  0.5339540000000 1.0
C      1  0.5922710000000  0.5426870000000  0.4832070000000 1.0
C      1  0.4077290000000  0.4573130000000  0.4832080000000 1.0
C      1  0.5925380000000  0.5427380000000  0.5178270000000 1.0
C      1  0.4074620000000  0.4572610000000  0.5178270000000 1.0
C      1  0.4711990000000  0.4462620000000  0.4750920000000 1.0
C      1  0.5288010000000  0.5537390000000  0.4750930000000 1.0
C      1  0.4689400000000  0.4479210000000  0.5245020000000 1.0
C      1  0.5310600000000  0.5520780000000  0.5245020000000 1.0
C      1  0.5515620000000  0.5046700000000  0.4883780000000 1.0
C      1  0.4484380000000  0.4953300000000  0.4883790000000 1.0
C      1  0.5566920000000  0.4914180000000  0.5117930000000 1.0
C      1  0.4433080000000  0.5085820000000  0.5117940000000 1.0
C      1  0.4141540000000  0.5305630000000  0.4630140000000 1.0
C      1  0.5858460000000  0.4694380000000  0.4630120000000 1.0
C      1  0.4131180000000  0.5293980000000  0.5388800000000 1.0
C      1  0.5868820000000  0.4706010000000  0.5388780000000 1.0
C      1  0.5516510000000  0.3694020000000  0.6130490000000 1.0
C      1  0.4483500000000  0.6305960000000  0.6130520000000 1.0
C      1  0.5537710000000  0.3722480000000  0.3863670000000 1.0
C      1  0.4462270000000  0.6277540000000  0.3863690000000 1.0
C      1  0.4204540000000  0.4726810000000  0.4347840000000 1.0
C      1  0.5795450000000  0.5273200000000  0.4347830000000 1.0
C      1  0.4200710000000  0.4725160000000  0.5663140000000 1.0
C      1  0.5799300000000  0.5274830000000  0.5663140000000 1.0
C      1  0.4200130000000  0.5435730000000  0.4879790000000 1.0
C      1  0.5799870000000  0.4564270000000  0.4879770000000 1.0
C      1  0.4267180000000  0.5321840000000  0.5130640000000 1.0
C      1  0.5732820000000  0.4678160000000  0.5130630000000 1.0
C      1  0.5488110000000  0.6155430000000  0.4567700000000 1.0
C      1  0.4511880000000  0.3844580000000  0.4567690000000 1.0
C      1  0.5489690000000  0.6161290000000  0.5421350000000 1.0
C      1  0.4510320000000  0.3838700000000  0.5421340000000 1.0
C      1  0.4995160000000  0.4853630000000  0.5299970000000 1.0
C      1  0.5004840000000  0.5146360000000  0.5299970000000 1.0
C      1  0.5000950000000  0.4852490000000  0.4698880000000 1.0
C      1  0.4999040000000  0.5147510000000  0.4698880000000 1.0
C      1  0.4071070000000  0.5337080000000  0.4148530000000 1.0
C      1  0.5928920000000  0.4662940000000  0.4148510000000 1.0
C      1  0.4072100000000  0.5333150000000  0.5871020000000 1.0
C      1  0.5927920000000  0.4666840000000  0.5871010000000 1.0
C      1  0.4649810000000  0.4391700000000  0.4998350000000 1.0
C      1  0.5350190000000  0.5608300000000  0.4998360000000 1.0
END
