TITL C-3201374-830-443 9.60542271027919e-08 125000 -111.923037659199 0 0 20 (D5h) n - 1
REM
REM in /home/nfs/bkarasulu/CARBON/AIRSS/Generating-Clusters/LCBOP/Higher-Symm/SD-CG/FIRE-CG
REM
REM
REM
REM
REM
REM ./C.cell (b20cbc046b6831c77cfcea5457e17084)
REM AIRSS Version 0.9.1 bugfix July 2018 build 013d7b7c2542+ Fri, 06 Jul 2018 19:26:36 +0100
REM compiler GCC version 9.2.1 20190827 (Red Hat 9.2.1-1)
REM options -cpp -mtune=generic -march=x86-64 -g -O0 -fpre-include=/usr/include/finclude/math-vector-fortran.h
REM seed -464840654 -259908712 -1233661445 622445776 1453655660 1436509531 477361097 -2094178159 -111613096 461211312 1713415519 548120243 -2146018244 -1221798410 -1248790234 1522955376 402687023 417854472 -782182131 -725584474 1435882641 1039049667 651176669 -667790482 -1954094144 642278165 -1047905246 938276383 -970610112 -85401705 1428878612 508312177 -240625633
REM
CELL 1.54180   50.00000   50.00000   50.00000   90.00000   90.00000   90.00000
LATT -1
SFAC C  
C      1  0.5000000000000  0.4892930000000  0.6042800000000 1.0
C      1  0.5000000000000  0.3975150000000  0.5220410000000 1.0
C      1  0.5000000000000  0.4473680000000  0.4093420000000 1.0
C      1  0.5000000000000  0.5699560000000  0.4219290000000 1.0
C      1  0.5000000000000  0.5958680000000  0.5424070000000 1.0
C      1  0.5000000000000  0.4946620000000  0.5519940000000 1.0
C      1  0.5000000000000  0.4489010000000  0.5109900000000 1.0
C      1  0.5000000000000  0.4737580000000  0.4547980000000 1.0
C      1  0.5000000000000  0.5348800000000  0.4610740000000 1.0
C      1  0.5000000000000  0.5477990000000  0.5211440000000 1.0
C      1  0.5000000000000  0.4759430000000  0.5051740000000 1.0
C      1  0.5000000000000  0.4876450000000  0.4787190000000 1.0
C      1  0.5000000000000  0.5164210000000  0.4816740000000 1.0
C      1  0.5000000000000  0.5225040000000  0.5099550000000 1.0
C      1  0.5000000000000  0.4974870000000  0.5244790000000 1.0
C      1  0.5000000000000  0.4230020000000  0.5165600000000 1.0
C      1  0.5000000000000  0.4604570000000  0.4318880000000 1.0
C      1  0.5000000000000  0.5525590000000  0.4413440000000 1.0
C      1  0.5000000000000  0.5720270000000  0.5318610000000 1.0
C      1  0.5000000000000  0.4919560000000  0.5783470000000 1.0
END
