TITL C-3201377-4638-1842 -1.26412412857042e-07 125000 -251.872857144766 0 0 43 (C1) n - 1
REM
REM in /home/nfs/bkarasulu/CARBON/AIRSS/Generating-Clusters/LCBOP/Higher-Symm/SD-CG/FIRE-CG
REM
REM
REM
REM
REM
REM ./C.cell (b20cbc046b6831c77cfcea5457e17084)
REM AIRSS Version 0.9.1 bugfix July 2018 build 013d7b7c2542+ Fri, 06 Jul 2018 19:26:36 +0100
REM compiler GCC version 9.2.1 20190827 (Red Hat 9.2.1-1)
REM options -cpp -mtune=generic -march=x86-64 -g -O0 -fpre-include=/usr/include/finclude/math-vector-fortran.h
REM seed -1000263054 969882671 -971882859 1659297442 -615706622 -1716208132 -1809371914 -1145534784 1553991042 1005181012 46283391 -702974333 -1581866219 673653649 83615004 -392650706 -715426876 1228532183 -1973877433 1519002297 1028742209 1828282479 -1755511738 119928603 -1767531850 -1855011365 -780665594 -601382621 1858104277 -1460371055 -1515312977 -61171617 -1723294722
REM
CELL 1.54180   50.00000   50.00000   50.00000   90.00000   90.00000   90.00000
LATT -1
SFAC C  
C      1  0.5120190000000  0.5462100000000  0.5365040000000 1.0
C      1  0.4854480000000  0.4915210000000  0.5643940000000 1.0
C      1  0.5125810000000  0.4427900000000  0.5293600000000 1.0
C      1  0.4866470000000  0.4565750000000  0.4648730000000 1.0
C      1  0.5102270000000  0.5090870000000  0.4306940000000 1.0
C      1  0.4891680000000  0.5579260000000  0.4732200000000 1.0
C      1  0.4940160000000  0.5980350000000  0.5000340000000 1.0
C      1  0.5088860000000  0.5511740000000  0.5846150000000 1.0
C      1  0.4833460000000  0.4503440000000  0.5899800000000 1.0
C      1  0.5177110000000  0.4101940000000  0.4933940000000 1.0
C      1  0.4842750000000  0.4492070000000  0.4170040000000 1.0
C      1  0.5109850000000  0.5534900000000  0.4111340000000 1.0
C      1  0.5101570000000  0.5349100000000  0.5626210000000 1.0
C      1  0.4853700000000  0.4630340000000  0.5658130000000 1.0
C      1  0.5142600000000  0.4361010000000  0.5016610000000 1.0
C      1  0.4855510000000  0.4665280000000  0.4381670000000 1.0
C      1  0.5112100000000  0.5374700000000  0.4333240000000 1.0
C      1  0.4907890000000  0.5708900000000  0.4985660000000 1.0
C      1  0.4527660000000  0.5264910000000  0.5452660000000 1.0
C      1  0.5448300000000  0.4696060000000  0.5584010000000 1.0
C      1  0.4545300000000  0.4413820000000  0.5024520000000 1.0
C      1  0.5447900000000  0.4738140000000  0.4430690000000 1.0
C      1  0.4529390000000  0.5314980000000  0.4481770000000 1.0
C      1  0.5465740000000  0.5474670000000  0.4982740000000 1.0
C      1  0.5359650000000  0.4491900000000  0.5435510000000 1.0
C      1  0.4636170000000  0.4471320000000  0.4780090000000 1.0
C      1  0.5341530000000  0.4943630000000  0.4295910000000 1.0
C      1  0.4640940000000  0.5509900000000  0.4626610000000 1.0
C      1  0.5366310000000  0.5466210000000  0.5230370000000 1.0
C      1  0.4616080000000  0.5051500000000  0.5586490000000 1.0
C      1  0.4617060000000  0.5092140000000  0.4363040000000 1.0
C      1  0.5370440000000  0.5487540000000  0.4733680000000 1.0
C      1  0.4636080000000  0.5463810000000  0.5311330000000 1.0
C      1  0.5341440000000  0.4924680000000  0.5672460000000 1.0
C      1  0.4638940000000  0.4413740000000  0.5274680000000 1.0
C      1  0.5361810000000  0.4586790000000  0.4634370000000 1.0
C      1  0.4855850000000  0.4946920000000  0.4337650000000 1.0
C      1  0.5126950000000  0.5488910000000  0.4594220000000 1.0
C      1  0.4887180000000  0.5553170000000  0.5223600000000 1.0
C      1  0.5098900000000  0.5065540000000  0.5657200000000 1.0
C      1  0.4871850000000  0.4479660000000  0.5416720000000 1.0
C      1  0.5122920000000  0.4584260000000  0.4813730000000 1.0
C      1  0.5110720000000  0.4855010000000  0.4959460000000 1.0
END
