TITL C-3201376-6384-1229 -5.97713973689346e-07 125000 -254.326296446251 0 0 44 (Th) n - 1
REM
REM in /home/nfs/bkarasulu/CARBON/AIRSS/Generating-Clusters/LCBOP/Higher-Symm/SD-CG/FIRE-CG
REM
REM
REM
REM
REM
REM ./C.cell (b20cbc046b6831c77cfcea5457e17084)
REM AIRSS Version 0.9.1 bugfix July 2018 build 013d7b7c2542+ Fri, 06 Jul 2018 19:26:36 +0100
REM compiler GCC version 9.2.1 20190827 (Red Hat 9.2.1-1)
REM options -cpp -mtune=generic -march=x86-64 -g -O0 -fpre-include=/usr/include/finclude/math-vector-fortran.h
REM seed -80000084 1569333969 -147310670 1620361893 272124942 -989095682 284565712 148290653 1175020637 -324885495 1966102614 -45348528 -1661506975 -869276699 399490012 731857082 978522286 1079663178 -977724129 390140478 -2071570430 315261912 -1417309948 2821804 -835380256 -1734558254 -1208636330 -656708163 833752787 -835849700 393099958 714153002 -726593812
REM
CELL 1.54180   50.00000   50.00000   50.00000   90.00000   90.00000   90.00000
LATT -1
SFAC C  
C      1  0.5569600000000  0.4806350000000  0.4750010000000 1.0
C      1  0.4755120000000  0.5570880000000  0.4799970000000 1.0
C      1  0.4805070000000  0.4756390000000  0.5564500000000 1.0
C      1  0.4443150000000  0.4806350000000  0.5252530000000 1.0
C      1  0.5569600000000  0.5208950000000  0.5252530000000 1.0
C      1  0.4443150000000  0.5208950000000  0.4750010000000 1.0
C      1  0.5257640000000  0.5570880000000  0.5202580000000 1.0
C      1  0.4755120000000  0.4444430000000  0.5202580000000 1.0
C      1  0.5257640000000  0.4444430000000  0.4799970000000 1.0
C      1  0.5207680000000  0.4756390000000  0.4438050000000 1.0
C      1  0.4805070000000  0.5258910000000  0.4438050000000 1.0
C      1  0.5207680000000  0.5258910000000  0.5564500000000 1.0
C      1  0.5569600000000  0.5208950000000  0.4750010000000 1.0
C      1  0.4755120000000  0.4444430000000  0.4799970000000 1.0
C      1  0.4805070000000  0.5258910000000  0.5564500000000 1.0
C      1  0.4443150000000  0.5208950000000  0.5252530000000 1.0
C      1  0.5569600000000  0.4806350000000  0.5252530000000 1.0
C      1  0.4443150000000  0.4806350000000  0.4750010000000 1.0
C      1  0.5257640000000  0.4444430000000  0.5202580000000 1.0
C      1  0.4755120000000  0.5570880000000  0.5202580000000 1.0
C      1  0.5257640000000  0.5570880000000  0.4799970000000 1.0
C      1  0.5207680000000  0.5258910000000  0.4438050000000 1.0
C      1  0.4805070000000  0.4756390000000  0.4438050000000 1.0
C      1  0.5207680000000  0.4756390000000  0.5564500000000 1.0
C      1  0.5006380000000  0.5673560000000  0.5150490000000 1.0
C      1  0.5155590000000  0.5007650000000  0.4335370000000 1.0
C      1  0.4857160000000  0.5007650000000  0.5667180000000 1.0
C      1  0.5006380000000  0.4341750000000  0.4852060000000 1.0
C      1  0.5155590000000  0.5007650000000  0.5667180000000 1.0
C      1  0.5672280000000  0.5156870000000  0.5001270000000 1.0
C      1  0.5006380000000  0.5673560000000  0.4852060000000 1.0
C      1  0.5006380000000  0.4341750000000  0.5150490000000 1.0
C      1  0.4857160000000  0.5007650000000  0.4335370000000 1.0
C      1  0.4340470000000  0.5156870000000  0.5001270000000 1.0
C      1  0.5672280000000  0.4858430000000  0.5001270000000 1.0
C      1  0.4340470000000  0.4858430000000  0.5001270000000 1.0
C      1  0.5358530000000  0.4655500000000  0.4649120000000 1.0
C      1  0.4654230000000  0.5359800000000  0.5353420000000 1.0
C      1  0.5358530000000  0.5359800000000  0.5353420000000 1.0
C      1  0.4654230000000  0.5359800000000  0.4649120000000 1.0
C      1  0.4654230000000  0.4655500000000  0.5353420000000 1.0
C      1  0.5358530000000  0.4655500000000  0.5353420000000 1.0
C      1  0.4654230000000  0.4655500000000  0.4649120000000 1.0
C      1  0.5358530000000  0.5359800000000  0.4649120000000 1.0
END
