TITL C-3201378-2706-1834 17278.8852864065 125000 -737.918501271491 0 0 122 (C1) n - 1
REM
REM in /home/nfs/bkarasulu/CARBON/AIRSS/Generating-Clusters/LCBOP/Higher-Symm/SD-CG/FIRE-CG
REM
REM
REM
REM
REM
REM ./C.cell (b20cbc046b6831c77cfcea5457e17084)
REM AIRSS Version 0.9.1 bugfix July 2018 build 013d7b7c2542+ Fri, 06 Jul 2018 19:26:36 +0100
REM compiler GCC version 9.2.1 20190827 (Red Hat 9.2.1-1)
REM options -cpp -mtune=generic -march=x86-64 -g -O0 -fpre-include=/usr/include/finclude/math-vector-fortran.h
REM seed -1002086088 -1580783032 -864708581 -127125827 1601357714 1984131312 1097895366 -741132797 803572306 102716147 751069206 -309152171 15562973 -1763699564 -2085581842 -1256846538 1670770732 -1998130585 -2143591014 1369661577 1992540041 1749110547 56090329 -1554546402 621112943 -1800972774 2106197302 269627831 656027992 -1003343698 -1598560304 -556397487 437434560
REM
CELL 1.54180   50.00000   50.00000   50.00000   90.00000   90.00000   90.00000
LATT -1
SFAC C  
C      1  0.5632560000000  0.5272570000000  0.5527600000000 1.0
C      1  0.4414510000000  0.5469770000000  0.5516580000000 1.0
C      1  0.4936290000000  0.4338110000000  0.5534850000000 1.0
C      1  0.5980600000000  0.4802920000000  0.5097240000000 1.0
C      1  0.4562660000000  0.5965250000000  0.5097890000000 1.0
C      1  0.4397290000000  0.4179960000000  0.5126770000000 1.0
C      1  0.4165680000000  0.4909110000000  0.4487300000000 1.0
C      1  0.5493740000000  0.4288370000000  0.4456260000000 1.0
C      1  0.5348370000000  0.5794330000000  0.4495570000000 1.0
C      1  0.4720350000000  0.5030010000000  0.4295960000000 1.0
C      1  0.5109870000000  0.4742290000000  0.4335710000000 1.0
C      1  0.5136700000000  0.5250240000000  0.4374530000000 1.0
C      1  0.4130800000000  0.5196790000000  0.4410100000000 1.0
C      1  0.5241150000000  0.4135040000000  0.4398100000000 1.0
C      1  0.5619000000000  0.5653840000000  0.4430410000000 1.0
C      1  0.4807500000000  0.5737810000000  0.5691250000000 1.0
C      1  0.4501590000000  0.4533000000000  0.5709370000000 1.0
C      1  0.5383500000000  0.4849370000000  0.5701010000000 1.0
C      1  0.4487000000000  0.5626460000000  0.6007110000000 1.0
C      1  0.4783090000000  0.4359940000000  0.6034240000000 1.0
C      1  0.5604600000000  0.5117920000000  0.6005180000000 1.0
C      1  0.5204080000000  0.5848180000000  0.5387370000000 1.0
C      1  0.4204300000000  0.4819060000000  0.5406700000000 1.0
C      1  0.5943170000000  0.4189650000000  0.5324890000000 1.0
C      1  0.5472260000000  0.4680180000000  0.5926970000000 1.0
C      1  0.4848530000000  0.5907740000000  0.5928690000000 1.0
C      1  0.4350460000000  0.4514470000000  0.5961560000000 1.0
C      1  0.5533000000000  0.4411220000000  0.5899790000000 1.0
C      1  0.5025970000000  0.6121920000000  0.5924850000000 1.0
C      1  0.4081180000000  0.4583020000000  0.5974630000000 1.0
C      1  0.5298190000000  0.4427820000000  0.5197010000000 1.0
C      1  0.5400620000000  0.5685790000000  0.5259870000000 1.0
C      1  0.4276420000000  0.5052870000000  0.5256620000000 1.0
C      1  0.4660310000000  0.5082650000000  0.4588650000000 1.0
C      1  0.5101380000000  0.4694880000000  0.4628420000000 1.0
C      1  0.5133420000000  0.5274490000000  0.4694860000000 1.0
C      1  0.5146680000000  0.5698940000000  0.4294310000000 1.0
C      1  0.4340640000000  0.4771090000000  0.4283450000000 1.0
C      1  0.5524190000000  0.4509470000000  0.4255700000000 1.0
C      1  0.4895710000000  0.5241170000000  0.4195390000000 1.0
C      1  0.4871020000000  0.4800420000000  0.4173490000000 1.0
C      1  0.5286330000000  0.4994410000000  0.4299740000000 1.0
C      1  0.4665960000000  0.5342430000000  0.4695650000000 1.0
C      1  0.4861130000000  0.4652310000000  0.4757700000000 1.0
C      1  0.5463400000000  0.4976090000000  0.4551440000000 1.0
C      1  0.4280910000000  0.5659910000000  0.5357740000000 1.0
C      1  0.4825070000000  0.4129880000000  0.5378860000000 1.0
C      1  0.5837860000000  0.5167210000000  0.5370590000000 1.0
C      1  0.4427430000000  0.4646850000000  0.5460980000000 1.0
C      1  0.6066060000000  0.4314150000000  0.5106450000000 1.0
C      1  0.4961680000000  0.5712170000000  0.5455350000000 1.0
C      1  0.4538860000000  0.4411730000000  0.6153550000000 1.0
C      1  0.5580190000000  0.4867060000000  0.6118480000000 1.0
C      1  0.4650410000000  0.5820010000000  0.6118320000000 1.0
C      1  0.4967180000000  0.5210590000000  0.3932400000000 1.0
C      1  0.4942650000000  0.4849850000000  0.3912540000000 1.0
C      1  0.5274220000000  0.5012670000000  0.3985670000000 1.0
C      1  0.4225550000000  0.4365930000000  0.5023460000000 1.0
C      1  0.5946520000000  0.4544200000000  0.4992860000000 1.0
C      1  0.4814340000000  0.6004580000000  0.5003380000000 1.0
C      1  0.5196940000000  0.6209300000000  0.5736850000000 1.0
C      1  0.3914350000000  0.4695250000000  0.5796260000000 1.0
C      1  0.5658250000000  0.4224820000000  0.5757410000000 1.0
C      1  0.4916690000000  0.5401860000000  0.4803390000000 1.0
C      1  0.4701900000000  0.4880040000000  0.4776200000000 1.0
C      1  0.5292750000000  0.4856240000000  0.4752880000000 1.0
C      1  0.4831250000000  0.4198860000000  0.4909450000000 1.0
C      1  0.5758110000000  0.5189780000000  0.4885070000000 1.0
C      1  0.4324480000000  0.5595360000000  0.4886990000000 1.0
C      1  0.5724920000000  0.5007590000000  0.4658950000000 1.0
C      1  0.4537890000000  0.5598490000000  0.4699180000000 1.0
C      1  0.4721990000000  0.4409920000000  0.4757350000000 1.0
C      1  0.5288610000000  0.5452880000000  0.4216680000000 1.0
C      1  0.4459630000000  0.5012920000000  0.4155940000000 1.0
C      1  0.5243440000000  0.4529830000000  0.4177040000000 1.0
C      1  0.4187950000000  0.4839470000000  0.4775320000000 1.0
C      1  0.5551940000000  0.4358190000000  0.4734880000000 1.0
C      1  0.5247570000000  0.5795450000000  0.4773200000000 1.0
C      1  0.5148530000000  0.3987450000000  0.4618210000000 1.0
C      1  0.5785250000000  0.5613280000000  0.4652890000000 1.0
C      1  0.4018350000000  0.5352470000000  0.4614780000000 1.0
C      1  0.5536410000000  0.5518470000000  0.5439860000000 1.0
C      1  0.4470310000000  0.5212500000000  0.5403830000000 1.0
C      1  0.5144300000000  0.4508730000000  0.5425260000000 1.0
C      1  0.5106340000000  0.4132680000000  0.4857600000000 1.0
C      1  0.5662950000000  0.5474710000000  0.4873290000000 1.0
C      1  0.4155840000000  0.5356920000000  0.4865080000000 1.0
C      1  0.5787890000000  0.4530550000000  0.4757390000000 1.0
C      1  0.4954270000000  0.5876800000000  0.4790050000000 1.0
C      1  0.4263230000000  0.4553050000000  0.4811070000000 1.0
C      1  0.5719820000000  0.4744160000000  0.4286950000000 1.0
C      1  0.4837900000000  0.5697150000000  0.4326220000000 1.0
C      1  0.4499470000000  0.4516380000000  0.4345830000000 1.0
C      1  0.5059300000000  0.4297660000000  0.4229530000000 1.0
C      1  0.5572600000000  0.5421190000000  0.4248710000000 1.0
C      1  0.4343570000000  0.5282450000000  0.4220070000000 1.0
C      1  0.5834400000000  0.4749810000000  0.4567640000000 1.0
C      1  0.4754740000000  0.5774810000000  0.4593950000000 1.0
C      1  0.4468650000000  0.4449290000000  0.4629530000000 1.0
C      1  0.5516670000000  0.5114380000000  0.5728440000000 1.0
C      1  0.4561910000000  0.5573920000000  0.5733390000000 1.0
C      1  0.4774570000000  0.4419610000000  0.5752080000000 1.0
C      1  0.5162780000000  0.4774120000000  0.5539800000000 1.0
C      1  0.4941180000000  0.4950520000000  0.5522060000000 1.0
C      1  0.4719900000000  0.5091940000000  0.5470130000000 1.0
C      1  0.4678580000000  0.4125960000000  0.5138900000000 1.0
C      1  0.5878030000000  0.5064710000000  0.5115310000000 1.0
C      1  0.4357520000000  0.5767670000000  0.5110740000000 1.0
C      1  0.5263080000000  0.6097110000000  0.5501830000000 1.0
C      1  0.3965550000000  0.4789370000000  0.5549710000000 1.0
C      1  0.5805570000000  0.4152210000000  0.5548610000000 1.0
C      1  0.5706550000000  0.5095570000000  0.4198830000000 1.0
C      1  0.4550050000000  0.5520210000000  0.4210870000000 1.0
C      1  0.4754680000000  0.4367500000000  0.4234630000000 1.0
C      1  0.6299530000000  0.4215290000000  0.5003630000000 1.0
C      1  0.4882440000000  0.5522530000000  0.5274520000000 1.0
C      1  0.4611850000000  0.4633620000000  0.5257730000000 1.0
C      1  0.5334810000000  0.4302190000000  0.4941030000000 1.0
C      1  0.5429100000000  0.5646180000000  0.4974000000000 1.0
C      1  0.4202820000000  0.5080270000000  0.4974730000000 1.0
C      1  0.5219510000000  0.5084860000000  0.4894450000000 1.0
C      1  0.5242150000000  0.5123870000000  0.5159320000000 1.0
END
