TITL C-3201377-4638-2289 87300.124507586 125000 -1108.42829764013 0 0 184 (C1) n - 1
REM
REM in /home/nfs/bkarasulu/CARBON/AIRSS/Generating-Clusters/LCBOP/Higher-Symm/SD-CG/FIRE-CG
REM
REM
REM
REM
REM
REM ./C.cell (b20cbc046b6831c77cfcea5457e17084)
REM AIRSS Version 0.9.1 bugfix July 2018 build 013d7b7c2542+ Fri, 06 Jul 2018 19:26:36 +0100
REM compiler GCC version 9.2.1 20190827 (Red Hat 9.2.1-1)
REM options -cpp -mtune=generic -march=x86-64 -g -O0 -fpre-include=/usr/include/finclude/math-vector-fortran.h
REM seed 1543968 118152957 5698511 -830066720 198440931 -1745838978 -165746310 -740179699 -402898805 -1359809316 1197953047 -580135990 -139062558 -1981629667 -1097286038 -844512434 512242612 -1959339673 2119350101 1278394906 -1502931442 1191068505 625033696 2000043718 1947534400 374705819 1185538330 -1495102259 -1261338672 1968213145 381881978 1665369468 -78306065
REM
CELL 1.54180   50.00000   50.00000   50.00000   90.00000   90.00000   90.00000
LATT -1
SFAC C  
C      1  0.3924370000000  0.4671920000000  0.5013880000000 1.0
C      1  0.3881970000000  0.5222840000000  0.4886100000000 1.0
C      1  0.6092340000000  0.5164650000000  0.5336870000000 1.0
C      1  0.6156930000000  0.4963230000000  0.5534760000000 1.0
C      1  0.5143670000000  0.4166630000000  0.4522430000000 1.0
C      1  0.5002310000000  0.5721010000000  0.4718120000000 1.0
C      1  0.5100290000000  0.5190490000000  0.6263910000000 1.0
C      1  0.5031400000000  0.4593640000000  0.6122130000000 1.0
C      1  0.5869620000000  0.5662110000000  0.4833090000000 1.0
C      1  0.5830510000000  0.4201050000000  0.4730920000000 1.0
C      1  0.5105680000000  0.3641500000000  0.3982900000000 1.0
C      1  0.5110430000000  0.6372410000000  0.4221320000000 1.0
C      1  0.4868020000000  0.5957120000000  0.5288710000000 1.0
C      1  0.4895120000000  0.3810590000000  0.4932570000000 1.0
C      1  0.5382030000000  0.5506590000000  0.5598040000000 1.0
C      1  0.5183860000000  0.4686340000000  0.5606070000000 1.0
C      1  0.5220690000000  0.4933580000000  0.5086240000000 1.0
C      1  0.5134270000000  0.5183930000000  0.4977770000000 1.0
C      1  0.3552660000000  0.4914620000000  0.4307020000000 1.0
C      1  0.3541990000000  0.4651940000000  0.4381440000000 1.0
C      1  0.4376160000000  0.4195060000000  0.5056010000000 1.0
C      1  0.4355060000000  0.5858520000000  0.4799280000000 1.0
C      1  0.5117880000000  0.5163560000000  0.4034270000000 1.0
C      1  0.5027910000000  0.4776700000000  0.4022430000000 1.0
C      1  0.4995130000000  0.4496250000000  0.4986590000000 1.0
C      1  0.4745140000000  0.5419260000000  0.5112540000000 1.0
C      1  0.5988740000000  0.5601910000000  0.5102070000000 1.0
C      1  0.5850410000000  0.4294450000000  0.4994790000000 1.0
C      1  0.6010110000000  0.5557190000000  0.4592140000000 1.0
C      1  0.5972690000000  0.4362210000000  0.4533150000000 1.0
C      1  0.6123780000000  0.4855460000000  0.4829960000000 1.0
C      1  0.6222500000000  0.5126780000000  0.4796810000000 1.0
C      1  0.4664870000000  0.5520120000000  0.5364960000000 1.0
C      1  0.4008280000000  0.4222760000000  0.5508350000000 1.0
C      1  0.5054810000000  0.4295220000000  0.4274590000000 1.0
C      1  0.4967760000000  0.5700140000000  0.4418960000000 1.0
C      1  0.5907720000000  0.4674880000000  0.4102890000000 1.0
C      1  0.5821050000000  0.5324370000000  0.4096310000000 1.0
C      1  0.5942290000000  0.5706370000000  0.4356700000000 1.0
C      1  0.5934040000000  0.4260100000000  0.4270470000000 1.0
C      1  0.4786020000000  0.4201160000000  0.5928220000000 1.0
C      1  0.5048120000000  0.5700840000000  0.6146040000000 1.0
C      1  0.6155870000000  0.5302010000000  0.4576550000000 1.0
C      1  0.6121280000000  0.4671240000000  0.4591470000000 1.0
C      1  0.4117570000000  0.5868820000000  0.5624330000000 1.0
C      1  0.4394670000000  0.4579820000000  0.5973870000000 1.0
C      1  0.5045310000000  0.5716600000000  0.5314450000000 1.0
C      1  0.5147390000000  0.4412640000000  0.5202120000000 1.0
C      1  0.4510690000000  0.4439640000000  0.5039810000000 1.0
C      1  0.4474030000000  0.5603980000000  0.4798020000000 1.0
C      1  0.5617100000000  0.5121340000000  0.5308440000000 1.0
C      1  0.5417680000000  0.4922350000000  0.5297210000000 1.0
C      1  0.5455820000000  0.4156330000000  0.5654500000000 1.0
C      1  0.5642330000000  0.5896430000000  0.5516890000000 1.0
C      1  0.4552500000000  0.5660320000000  0.5586210000000 1.0
C      1  0.4246940000000  0.4329650000000  0.5591050000000 1.0
C      1  0.5495910000000  0.4770710000000  0.3709930000000 1.0
C      1  0.4953570000000  0.5734900000000  0.3593370000000 1.0
C      1  0.3655180000000  0.4778310000000  0.6218210000000 1.0
C      1  0.3768760000000  0.5599920000000  0.6171110000000 1.0
C      1  0.4264800000000  0.5638060000000  0.5597460000000 1.0
C      1  0.4246740000000  0.4580130000000  0.5733130000000 1.0
C      1  0.5215760000000  0.5338170000000  0.4504480000000 1.0
C      1  0.5247510000000  0.4694670000000  0.4433160000000 1.0
C      1  0.4671390000000  0.4993220000000  0.4461530000000 1.0
C      1  0.4665310000000  0.4459640000000  0.4600270000000 1.0
C      1  0.3760880000000  0.5072110000000  0.4422370000000 1.0
C      1  0.3736660000000  0.4559540000000  0.4567950000000 1.0
C      1  0.5575090000000  0.5277250000000  0.4203900000000 1.0
C      1  0.5658730000000  0.4758220000000  0.4175380000000 1.0
C      1  0.4629340000000  0.3804680000000  0.4943430000000 1.0
C      1  0.4629580000000  0.6014810000000  0.5154620000000 1.0
C      1  0.5436250000000  0.4114510000000  0.5370910000000 1.0
C      1  0.5440940000000  0.5993940000000  0.5326800000000 1.0
C      1  0.5113550000000  0.5108040000000  0.5805290000000 1.0
C      1  0.5004520000000  0.4885310000000  0.5671030000000 1.0
C      1  0.5382090000000  0.4315000000000  0.3739910000000 1.0
C      1  0.5339840000000  0.5686030000000  0.3874730000000 1.0
C      1  0.4994200000000  0.6180810000000  0.5411040000000 1.0
C      1  0.5143760000000  0.3937200000000  0.4995030000000 1.0
C      1  0.5008800000000  0.3879410000000  0.4026910000000 1.0
C      1  0.4975500000000  0.6150170000000  0.4239850000000 1.0
C      1  0.5480310000000  0.5505320000000  0.5138710000000 1.0
C      1  0.5637630000000  0.4471240000000  0.5058130000000 1.0
C      1  0.5587340000000  0.5783550000000  0.4768310000000 1.0
C      1  0.5580780000000  0.4054800000000  0.4700360000000 1.0
C      1  0.5522830000000  0.4890080000000  0.3961440000000 1.0
C      1  0.5399210000000  0.5128040000000  0.4041230000000 1.0
C      1  0.4418950000000  0.6069050000000  0.4975990000000 1.0
C      1  0.4379470000000  0.3919790000000  0.4999600000000 1.0
C      1  0.4569900000000  0.5204740000000  0.5023150000000 1.0
C      1  0.4562410000000  0.4929680000000  0.5056610000000 1.0
C      1  0.4345060000000  0.5362520000000  0.4916250000000 1.0
C      1  0.4408350000000  0.4696480000000  0.5096690000000 1.0
C      1  0.5102860000000  0.4579690000000  0.4222560000000 1.0
C      1  0.5068060000000  0.5453600000000  0.4301890000000 1.0
C      1  0.5282790000000  0.5799460000000  0.4841290000000 1.0
C      1  0.5292580000000  0.4047360000000  0.4746670000000 1.0
C      1  0.5852810000000  0.5355680000000  0.5802120000000 1.0
C      1  0.5711150000000  0.5124690000000  0.5834550000000 1.0
C      1  0.5870210000000  0.5052620000000  0.5201790000000 1.0
C      1  0.5912000000000  0.4849560000000  0.5015750000000 1.0
C      1  0.5487660000000  0.5286300000000  0.4468870000000 1.0
C      1  0.5524960000000  0.4751630000000  0.4433190000000 1.0
C      1  0.4150270000000  0.3771740000000  0.4998080000000 1.0
C      1  0.4286190000000  0.6306920000000  0.4973980000000 1.0
C      1  0.5038670000000  0.4698010000000  0.3748460000000 1.0
C      1  0.5019780000000  0.5304060000000  0.3803620000000 1.0
C      1  0.4904310000000  0.4874810000000  0.3573660000000 1.0
C      1  0.4895710000000  0.5143590000000  0.3606440000000 1.0
C      1  0.4107700000000  0.5216490000000  0.5330060000000 1.0
C      1  0.4109170000000  0.4927800000000  0.5385380000000 1.0
C      1  0.4098720000000  0.5300050000000  0.5048990000000 1.0
C      1  0.4140880000000  0.4744210000000  0.5173310000000 1.0
C      1  0.4449970000000  0.4564350000000  0.4447550000000 1.0
C      1  0.4453340000000  0.4841760000000  0.4374780000000 1.0
C      1  0.3990850000000  0.5277390000000  0.5799350000000 1.0
C      1  0.3971200000000  0.4992960000000  0.5837200000000 1.0
C      1  0.4912680000000  0.4135290000000  0.4086920000000 1.0
C      1  0.4843110000000  0.5905860000000  0.4270850000000 1.0
C      1  0.5595880000000  0.5163690000000  0.4698020000000 1.0
C      1  0.5606600000000  0.4870920000000  0.4682720000000 1.0
C      1  0.4511520000000  0.4705120000000  0.6195170000000 1.0
C      1  0.4637530000000  0.5228160000000  0.6136440000000 1.0
C      1  0.4237170000000  0.4977390000000  0.4259270000000 1.0
C      1  0.4211540000000  0.4417290000000  0.4426550000000 1.0
C      1  0.4997900000000  0.5843070000000  0.5902470000000 1.0
C      1  0.4740530000000  0.4102300000000  0.5659260000000 1.0
C      1  0.5677980000000  0.4719940000000  0.4921170000000 1.0
C      1  0.5569670000000  0.5339220000000  0.4920600000000 1.0
C      1  0.4385530000000  0.5169240000000  0.6252410000000 1.0
C      1  0.4344270000000  0.4906150000000  0.6315570000000 1.0
C      1  0.3793950000000  0.4747510000000  0.4779410000000 1.0
C      1  0.3791670000000  0.5027900000000  0.4705890000000 1.0
C      1  0.5690820000000  0.4863590000000  0.5705630000000 1.0
C      1  0.5986870000000  0.5511190000000  0.5621030000000 1.0
C      1  0.4106760000000  0.4822710000000  0.5651870000000 1.0
C      1  0.4123610000000  0.5385650000000  0.5565650000000 1.0
C      1  0.5238770000000  0.5046290000000  0.6057400000000 1.0
C      1  0.5266150000000  0.4764190000000  0.6112140000000 1.0
C      1  0.5472260000000  0.5755450000000  0.5711990000000 1.0
C      1  0.5218240000000  0.4185490000000  0.5795820000000 1.0
C      1  0.5085030000000  0.4789290000000  0.4637030000000 1.0
C      1  0.4909750000000  0.5006900000000  0.4596770000000 1.0
C      1  0.6208410000000  0.4846930000000  0.4374440000000 1.0
C      1  0.6198150000000  0.5122200000000  0.4351130000000 1.0
C      1  0.4487660000000  0.4179190000000  0.5561630000000 1.0
C      1  0.4736000000000  0.5800760000000  0.5770110000000 1.0
C      1  0.5761290000000  0.5798100000000  0.4178390000000 1.0
C      1  0.5771750000000  0.4183360000000  0.4069360000000 1.0
C      1  0.3950870000000  0.4398870000000  0.4482940000000 1.0
C      1  0.4000600000000  0.5100340000000  0.4277930000000 1.0
C      1  0.5448250000000  0.4781050000000  0.5552590000000 1.0
C      1  0.5521660000000  0.5377560000000  0.5388190000000 1.0
C      1  0.5547990000000  0.5783920000000  0.4014230000000 1.0
C      1  0.5572390000000  0.4195510000000  0.3889430000000 1.0
C      1  0.4682790000000  0.4225920000000  0.3969500000000 1.0
C      1  0.4595950000000  0.5866570000000  0.4160770000000 1.0
C      1  0.5110970000000  0.5472830000000  0.6276230000000 1.0
C      1  0.5037850000000  0.4330800000000  0.5982400000000 1.0
C      1  0.5242940000000  0.6116360000000  0.5522430000000 1.0
C      1  0.5180790000000  0.3972750000000  0.5296430000000 1.0
C      1  0.4741480000000  0.4439570000000  0.4872830000000 1.0
C      1  0.4767330000000  0.5601260000000  0.4873620000000 1.0
C      1  0.3806130000000  0.4884670000000  0.6034400000000 1.0
C      1  0.3874580000000  0.5449900000000  0.5986220000000 1.0
C      1  0.6064350000000  0.5454170000000  0.5349020000000 1.0
C      1  0.5964840000000  0.4792550000000  0.5638550000000 1.0
C      1  0.5105360000000  0.5575140000000  0.3757310000000 1.0
C      1  0.5291070000000  0.4575750000000  0.3679090000000 1.0
C      1  0.5427140000000  0.4347250000000  0.5195080000000 1.0
C      1  0.5308160000000  0.5759950000000  0.5146930000000 1.0
C      1  0.5237930000000  0.5942040000000  0.5764790000000 1.0
C      1  0.4990130000000  0.4026620000000  0.5538210000000 1.0
C      1  0.4842730000000  0.5058810000000  0.6259410000000 1.0
C      1  0.4797260000000  0.4760890000000  0.6214640000000 1.0
C      1  0.5059770000000  0.5222040000000  0.4706390000000 1.0
C      1  0.5123790000000  0.4730580000000  0.4905040000000 1.0
C      1  0.5091640000000  0.5517780000000  0.5548960000000 1.0
C      1  0.5066360000000  0.4486370000000  0.5455650000000 1.0
C      1  0.4688310000000  0.5285430000000  0.5857070000000 1.0
C      1  0.4570740000000  0.5091640000000  0.5681910000000 1.0
C      1  0.4732630000000  0.4891140000000  0.5598000000000 1.0
C      1  0.4959580000000  0.5348210000000  0.5746090000000 1.0
END
