TITL C-3201372-1405-569 -6.29357810001098e-07 125000 -271.366134784997 0 0 45 (C1) n - 1
REM
REM in /home/nfs/bkarasulu/CARBON/AIRSS/Generating-Clusters/LCBOP/Higher-Symm/SD-CG/FIRE-CG
REM
REM
REM
REM
REM
REM ./C.cell (b20cbc046b6831c77cfcea5457e17084)
REM AIRSS Version 0.9.1 bugfix July 2018 build 013d7b7c2542+ Fri, 06 Jul 2018 19:26:36 +0100
REM compiler GCC version 9.2.1 20190827 (Red Hat 9.2.1-1)
REM options -cpp -mtune=generic -march=x86-64 -g -O0 -fpre-include=/usr/include/finclude/math-vector-fortran.h
REM seed 599849162 -1159157909 -2034843813 657120563 983229737 1897615177 -1539346519 -1857774325 1692379189 209360116 552937014 665911732 -1676635846 -1155449633 1948296662 320347891 1682696364 1717696173 86751120 -1385930997 -1788230168 2030626871 -791117637 1776119835 -1547216906 1296626244 -457115392 -162641618 -2065620217 1095576918 512754609 855478428 -454246256
REM
CELL 1.54180   50.00000   50.00000   50.00000   90.00000   90.00000   90.00000
LATT -1
SFAC C  
C      1  0.4874430000000  0.5367280000000  0.4809640000000 1.0
C      1  0.5162660000000  0.4556230000000  0.4708660000000 1.0
C      1  0.4802030000000  0.5428450000000  0.5444420000000 1.0
C      1  0.5190300000000  0.4761530000000  0.5654000000000 1.0
C      1  0.5400750000000  0.5043450000000  0.5260430000000 1.0
C      1  0.4698780000000  0.4941850000000  0.5353470000000 1.0
C      1  0.5224480000000  0.5656040000000  0.4628580000000 1.0
C      1  0.4757550000000  0.4452180000000  0.4449970000000 1.0
C      1  0.5515870000000  0.4337320000000  0.4523290000000 1.0
C      1  0.4534620000000  0.5476750000000  0.4505200000000 1.0
C      1  0.5371780000000  0.4869070000000  0.5485490000000 1.0
C      1  0.4641430000000  0.5198060000000  0.5447060000000 1.0
C      1  0.4493150000000  0.4332300000000  0.5238610000000 1.0
C      1  0.5422470000000  0.5802540000000  0.5217020000000 1.0
C      1  0.4702390000000  0.5799730000000  0.5104880000000 1.0
C      1  0.5073800000000  0.4178850000000  0.5053260000000 1.0
C      1  0.4764980000000  0.5319150000000  0.4545560000000 1.0
C      1  0.5357310000000  0.4572830000000  0.4499760000000 1.0
C      1  0.4955830000000  0.5164130000000  0.4397310000000 1.0
C      1  0.5349790000000  0.4834710000000  0.4390140000000 1.0
C      1  0.4969800000000  0.5811680000000  0.5006370000000 1.0
C      1  0.4845260000000  0.4229970000000  0.4878420000000 1.0
C      1  0.5313990000000  0.4092090000000  0.4927850000000 1.0
C      1  0.4497380000000  0.5787500000000  0.4908530000000 1.0
C      1  0.4685500000000  0.5669230000000  0.5354460000000 1.0
C      1  0.5054470000000  0.4390930000000  0.5249880000000 1.0
C      1  0.5028630000000  0.5610300000000  0.4815450000000 1.0
C      1  0.4915090000000  0.4413360000000  0.4669470000000 1.0
C      1  0.5081890000000  0.5381480000000  0.5440310000000 1.0
C      1  0.4930110000000  0.4695250000000  0.5688180000000 1.0
C      1  0.5223200000000  0.5082810000000  0.4797590000000 1.0
C      1  0.5036020000000  0.4660790000000  0.5147940000000 1.0
C      1  0.4594970000000  0.4232950000000  0.5009930000000 1.0
C      1  0.5194180000000  0.5921870000000  0.5136320000000 1.0
C      1  0.4962400000000  0.5126690000000  0.4938700000000 1.0
C      1  0.5246120000000  0.4675420000000  0.4956310000000 1.0
C      1  0.4694440000000  0.4714890000000  0.5529600000000 1.0
C      1  0.5334780000000  0.5319340000000  0.5321760000000 1.0
C      1  0.5491810000000  0.5546010000000  0.5263550000000 1.0
C      1  0.4536060000000  0.4496580000000  0.5447140000000 1.0
C      1  0.5377740000000  0.4931920000000  0.4986770000000 1.0
C      1  0.4876850000000  0.4910620000000  0.5131650000000 1.0
C      1  0.4437350000000  0.5666140000000  0.4674330000000 1.0
C      1  0.5478540000000  0.4149130000000  0.4718890000000 1.0
C      1  0.5198540000000  0.5049250000000  0.4507900000000 1.0
END
