TITL C-3201377-4638-2270 1.91662485120675e-05 125000 -1024.82052669234 0 0 162 (C1) n - 1
REM
REM in /home/nfs/bkarasulu/CARBON/AIRSS/Generating-Clusters/LCBOP/Higher-Symm/SD-CG/FIRE-CG
REM
REM
REM
REM
REM
REM ./C.cell (b20cbc046b6831c77cfcea5457e17084)
REM AIRSS Version 0.9.1 bugfix July 2018 build 013d7b7c2542+ Fri, 06 Jul 2018 19:26:36 +0100
REM compiler GCC version 9.2.1 20190827 (Red Hat 9.2.1-1)
REM options -cpp -mtune=generic -march=x86-64 -g -O0 -fpre-include=/usr/include/finclude/math-vector-fortran.h
REM seed -1558688829 643740362 2023355475 733554648 -381556149 -336233502 -1560611915 -632493171 1554576824 -1425261094 2099852243 350837678 1839360682 453997684 1294863156 907943139 192254899 1059732856 -927841921 -1507771134 -1670768029 -102621987 1544283175 -1139095586 -2139163455 -2092730729 963735921 596219713 940709491 1055867904 361054465 -207123349 -2022098392
REM
CELL 1.54180   50.00000   50.00000   50.00000   90.00000   90.00000   90.00000
LATT -1
SFAC C  
C      1  0.4375900000000  0.4811770000000  0.5784560000000 1.0
C      1  0.6060180000000  0.4735480000000  0.5080210000000 1.0
C      1  0.4542590000000  0.4728020000000  0.3993920000000 1.0
C      1  0.4369990000000  0.5144440000000  0.4158500000000 1.0
C      1  0.6054040000000  0.5311130000000  0.4843620000000 1.0
C      1  0.4525960000000  0.5248680000000  0.5926180000000 1.0
C      1  0.4182980000000  0.4351630000000  0.4720460000000 1.0
C      1  0.5198390000000  0.4337450000000  0.5827170000000 1.0
C      1  0.5652370000000  0.4427150000000  0.4324850000000 1.0
C      1  0.4096880000000  0.5568860000000  0.5221600000000 1.0
C      1  0.5165080000000  0.5678100000000  0.4144050000000 1.0
C      1  0.5617380000000  0.5633840000000  0.5581480000000 1.0
C      1  0.5277980000000  0.3792840000000  0.4495130000000 1.0
C      1  0.4736070000000  0.3834830000000  0.5234990000000 1.0
C      1  0.4997860000000  0.3904840000000  0.5342820000000 1.0
C      1  0.5292700000000  0.6097360000000  0.5171130000000 1.0
C      1  0.4416520000000  0.6198690000000  0.4987990000000 1.0
C      1  0.5328590000000  0.6172980000000  0.4891470000000 1.0
C      1  0.5833980000000  0.5444040000000  0.4372860000000 1.0
C      1  0.4009650000000  0.5328570000000  0.4523430000000 1.0
C      1  0.5054830000000  0.5374300000000  0.5994670000000 1.0
C      1  0.5837030000000  0.4613480000000  0.5550000000000 1.0
C      1  0.4042060000000  0.4585070000000  0.5414540000000 1.0
C      1  0.5085110000000  0.4656340000000  0.3912050000000 1.0
C      1  0.6007820000000  0.4820790000000  0.4825840000000 1.0
C      1  0.4360620000000  0.4858270000000  0.4180850000000 1.0
C      1  0.4619030000000  0.4763680000000  0.5929210000000 1.0
C      1  0.5997620000000  0.5227810000000  0.5098350000000 1.0
C      1  0.4350260000000  0.5096200000000  0.5750890000000 1.0
C      1  0.4614290000000  0.5217900000000  0.4026470000000 1.0
C      1  0.4490740000000  0.5499170000000  0.4708950000000 1.0
C      1  0.4964030000000  0.5491030000000  0.5478110000000 1.0
C      1  0.5440950000000  0.5573300000000  0.4725710000000 1.0
C      1  0.4545040000000  0.4440090000000  0.5253680000000 1.0
C      1  0.5018290000000  0.4497890000000  0.4421730000000 1.0
C      1  0.5434680000000  0.4505840000000  0.5207920000000 1.0
C      1  0.5106640000000  0.4181390000000  0.4971950000000 1.0
C      1  0.4990850000000  0.4072850000000  0.4743720000000 1.0
C      1  0.4727070000000  0.3987740000000  0.4780320000000 1.0
C      1  0.4940160000000  0.6020910000000  0.4655140000000 1.0
C      1  0.4921750000000  0.5815860000000  0.5075920000000 1.0
C      1  0.4780150000000  0.5925960000000  0.4863440000000 1.0
C      1  0.4370710000000  0.3273830000000  0.4990160000000 1.0
C      1  0.5231740000000  0.3617830000000  0.5948420000000 1.0
C      1  0.5746030000000  0.3417580000000  0.4702580000000 1.0
C      1  0.4355130000000  0.6561470000000  0.5504650000000 1.0
C      1  0.5292910000000  0.6742800000000  0.4463980000000 1.0
C      1  0.5694900000000  0.6381320000000  0.5681940000000 1.0
C      1  0.5187180000000  0.5111610000000  0.6012580000000 1.0
C      1  0.5792500000000  0.5174200000000  0.4267350000000 1.0
C      1  0.3950960000000  0.5063630000000  0.4629370000000 1.0
C      1  0.5198960000000  0.4926660000000  0.3916560000000 1.0
C      1  0.5790190000000  0.4880940000000  0.5663360000000 1.0
C      1  0.3955970000000  0.4843420000000  0.5308680000000 1.0
C      1  0.4498340000000  0.4418760000000  0.5533400000000 1.0
C      1  0.5690500000000  0.4448830000000  0.5102130000000 1.0
C      1  0.4789230000000  0.4454510000000  0.4262160000000 1.0
C      1  0.4457930000000  0.5531200000000  0.4427600000000 1.0
C      1  0.5702110000000  0.5612520000000  0.4825930000000 1.0
C      1  0.4742650000000  0.5543900000000  0.5645030000000 1.0
C      1  0.4641580000000  0.3566220000000  0.5265960000000 1.0
C      1  0.5158890000000  0.3706770000000  0.5473290000000 1.0
C      1  0.5284030000000  0.3562560000000  0.4658920000000 1.0
C      1  0.4551680000000  0.6429280000000  0.5080080000000 1.0
C      1  0.5399460000000  0.6443760000000  0.4830260000000 1.0
C      1  0.5321720000000  0.6292800000000  0.5378900000000 1.0
C      1  0.4674730000000  0.5647870000000  0.4284790000000 1.0
C      1  0.4489680000000  0.5607560000000  0.5534900000000 1.0
C      1  0.5735280000000  0.5677210000000  0.5099170000000 1.0
C      1  0.4711800000000  0.4325140000000  0.5694760000000 1.0
C      1  0.4548560000000  0.4360080000000  0.4374970000000 1.0
C      1  0.5713390000000  0.4384370000000  0.4825910000000 1.0
C      1  0.5690590000000  0.5105470000000  0.4006430000000 1.0
C      1  0.3771420000000  0.4995090000000  0.4841070000000 1.0
C      1  0.5468640000000  0.5056790000000  0.6052270000000 1.0
C      1  0.5685180000000  0.4945400000000  0.5925230000000 1.0
C      1  0.3773960000000  0.4898710000000  0.5096000000000 1.0
C      1  0.5476040000000  0.4997060000000  0.3875210000000 1.0
C      1  0.4276070000000  0.4593190000000  0.5612510000000 1.0
C      1  0.5899190000000  0.4581160000000  0.5257830000000 1.0
C      1  0.4802730000000  0.4604220000000  0.4011810000000 1.0
C      1  0.4249330000000  0.5347380000000  0.4333280000000 1.0
C      1  0.5901230000000  0.5473990000000  0.4664540000000 1.0
C      1  0.4768290000000  0.5401420000000  0.5898980000000 1.0
C      1  0.5221980000000  0.6011010000000  0.4679320000000 1.0
C      1  0.4501960000000  0.5948170000000  0.4894940000000 1.0
C      1  0.5144660000000  0.5862930000000  0.5238130000000 1.0
C      1  0.5134280000000  0.4135740000000  0.5246040000000 1.0
C      1  0.4608850000000  0.4000550000000  0.5037720000000 1.0
C      1  0.5160520000000  0.4046220000000  0.4520780000000 1.0
C      1  0.5078670000000  0.3597840000000  0.5723890000000 1.0
C      1  0.5513570000000  0.3503590000000  0.4817410000000 1.0
C      1  0.4607940000000  0.3401900000000  0.5035900000000 1.0
C      1  0.5215040000000  0.6608490000000  0.4689080000000 1.0
C      1  0.5577210000000  0.6404160000000  0.5437260000000 1.0
C      1  0.4572730000000  0.6483070000000  0.5359300000000 1.0
C      1  0.5409060000000  0.4956180000000  0.5428280000000 1.0
C      1  0.5193560000000  0.4981460000000  0.4376380000000 1.0
C      1  0.4368620000000  0.4902580000000  0.5099440000000 1.0
C      1  0.5412330000000  0.5101900000000  0.4510120000000 1.0
C      1  0.5175710000000  0.5037470000000  0.5564650000000 1.0
C      1  0.4363110000000  0.5021560000000  0.4844740000000 1.0
C      1  0.5086260000000  0.5080740000000  0.4129090000000 1.0
C      1  0.4191760000000  0.5003780000000  0.5297700000000 1.0
C      1  0.5678420000000  0.5055920000000  0.5462750000000 1.0
C      1  0.5078450000000  0.4931650000000  0.5815410000000 1.0
C      1  0.4194730000000  0.4918400000000  0.4640570000000 1.0
C      1  0.5682780000000  0.5005230000000  0.4473290000000 1.0
C      1  0.5317310000000  0.4307350000000  0.5371710000000 1.0
C      1  0.5210040000000  0.4290130000000  0.4391450000000 1.0
C      1  0.4452350000000  0.4227000000000  0.5093860000000 1.0
C      1  0.5347890000000  0.5786470000000  0.4566720000000 1.0
C      1  0.5164310000000  0.5689900000000  0.5458540000000 1.0
C      1  0.4368380000000  0.5704290000000  0.4862670000000 1.0
C      1  0.4825650000000  0.6454100000000  0.5478270000000 1.0
C      1  0.5699640000000  0.6535900000000  0.5220270000000 1.0
C      1  0.4950850000000  0.6627260000000  0.4783370000000 1.0
C      1  0.4821800000000  0.3377070000000  0.4855130000000 1.0
C      1  0.5490660000000  0.3535630000000  0.5095610000000 1.0
C      1  0.4826850000000  0.3471330000000  0.5721260000000 1.0
C      1  0.5665320000000  0.5642520000000  0.4246540000000 1.0
C      1  0.3956250000000  0.5533410000000  0.4722180000000 1.0
C      1  0.5238620000000  0.5585170000000  0.5917900000000 1.0
C      1  0.5676450000000  0.4406670000000  0.5671550000000 1.0
C      1  0.4022170000000  0.4376790000000  0.5212230000000 1.0
C      1  0.5289830000000  0.4455960000000  0.3959760000000 1.0
C      1  0.4893850000000  0.4722600000000  0.5871850000000 1.0
C      1  0.5819740000000  0.4796370000000  0.4611340000000 1.0
C      1  0.4273750000000  0.4744250000000  0.4431790000000 1.0
C      1  0.4885210000000  0.5276860000000  0.4087530000000 1.0
C      1  0.5814800000000  0.5260460000000  0.5317000000000 1.0
C      1  0.4252830000000  0.5193120000000  0.5499090000000 1.0
C      1  0.4107930000000  0.5630820000000  0.4945550000000 1.0
C      1  0.5353610000000  0.5671230000000  0.5670340000000 1.0
C      1  0.5398430000000  0.5737040000000  0.4290570000000 1.0
C      1  0.4189920000000  0.4285080000000  0.4996740000000 1.0
C      1  0.5408180000000  0.4359120000000  0.4201790000000 1.0
C      1  0.5407230000000  0.4317350000000  0.5641320000000 1.0
C      1  0.4643330000000  0.3457940000000  0.5525460000000 1.0
C      1  0.5370700000000  0.3598190000000  0.5324700000000 1.0
C      1  0.5043980000000  0.3428670000000  0.4718140000000 1.0
C      1  0.4721390000000  0.6569370000000  0.4905010000000 1.0
C      1  0.5621930000000  0.6552380000000  0.4963580000000 1.0
C      1  0.5085160000000  0.6396290000000  0.5488750000000 1.0
C      1  0.5279790000000  0.4915300000000  0.4990690000000 1.0
C      1  0.4877980000000  0.4873760000000  0.4691020000000 1.0
C      1  0.4814560000000  0.4829760000000  0.5187320000000 1.0
C      1  0.5263970000000  0.5176860000000  0.4936480000000 1.0
C      1  0.4860220000000  0.5088110000000  0.5233660000000 1.0
C      1  0.4797010000000  0.5124680000000  0.4735050000000 1.0
C      1  0.4568820000000  0.4706670000000  0.5157850000000 1.0
C      1  0.5364240000000  0.4777170000000  0.5213350000000 1.0
C      1  0.5055070000000  0.4766980000000  0.4505880000000 1.0
C      1  0.4547160000000  0.5232170000000  0.4788360000000 1.0
C      1  0.5357030000000  0.5302400000000  0.4707580000000 1.0
C      1  0.5010820000000  0.5219740000000  0.5422590000000 1.0
C      1  0.4915460000000  0.5550090000000  0.4165970000000 1.0
C      1  0.4265070000000  0.5470060000000  0.5428780000000 1.0
C      1  0.5733830000000  0.5535130000000  0.5345460000000 1.0
C      1  0.4941270000000  0.4447560000000  0.5811390000000 1.0
C      1  0.4320140000000  0.4470020000000  0.4500470000000 1.0
C      1  0.5733530000000  0.4523810000000  0.4577550000000 1.0
END
