TITL C-3201376-6384-1020 7603.92471192766 125000 -1202.24913846671 0 0 200 (C1) n - 1
REM
REM in /home/nfs/bkarasulu/CARBON/AIRSS/Generating-Clusters/LCBOP/Higher-Symm/SD-CG/FIRE-CG
REM
REM
REM
REM
REM
REM ./C.cell (b20cbc046b6831c77cfcea5457e17084)
REM AIRSS Version 0.9.1 bugfix July 2018 build 013d7b7c2542+ Fri, 06 Jul 2018 19:26:36 +0100
REM compiler GCC version 9.2.1 20190827 (Red Hat 9.2.1-1)
REM options -cpp -mtune=generic -march=x86-64 -g -O0 -fpre-include=/usr/include/finclude/math-vector-fortran.h
REM seed -2034700010 -2071182806 -1052274529 973092443 -2087976923 -1350380893 1406425023 1293461957 147025959 -692756455 714001445 1535505313 -1685727539 -977224110 311361492 1314254156 -903444810 -957377281 1437758240 -1161422255 -914877290 -164595050 -1903798602 -886293562 -1238226368 1930158471 -1644755082 1823693467 1388678922 572006819 -1353907144 -900265272 1699563026
REM
CELL 1.54180   50.00000   50.00000   50.00000   90.00000   90.00000   90.00000
LATT -1
SFAC C  
C      1  0.4789390000000  0.3808100000000  0.4807850000000 1.0
C      1  0.5072190000000  0.3802520000000  0.4728040000000 1.0
C      1  0.5280470000000  0.3803850000000  0.4931260000000 1.0
C      1  0.5211920000000  0.3780040000000  0.5218930000000 1.0
C      1  0.4931440000000  0.3810960000000  0.5291620000000 1.0
C      1  0.4715810000000  0.3797130000000  0.5090500000000 1.0
C      1  0.4795820000000  0.6262060000000  0.4778680000000 1.0
C      1  0.5084850000000  0.6217370000000  0.4727850000000 1.0
C      1  0.5277320000000  0.6211960000000  0.4948150000000 1.0
C      1  0.5188120000000  0.6245540000000  0.5225720000000 1.0
C      1  0.4897170000000  0.6296920000000  0.5293890000000 1.0
C      1  0.4689120000000  0.6320370000000  0.5061460000000 1.0
C      1  0.3901630000000  0.4775210000000  0.5261530000000 1.0
C      1  0.4191170000000  0.4700070000000  0.4329400000000 1.0
C      1  0.5306940000000  0.4779450000000  0.3910500000000 1.0
C      1  0.6255790000000  0.4647360000000  0.4673770000000 1.0
C      1  0.5749410000000  0.4765590000000  0.5820000000000 1.0
C      1  0.4919650000000  0.4743250000000  0.5969790000000 1.0
C      1  0.3865930000000  0.5281360000000  0.5292010000000 1.0
C      1  0.4193460000000  0.5257080000000  0.4212790000000 1.0
C      1  0.5312420000000  0.5281380000000  0.3867870000000 1.0
C      1  0.6078100000000  0.5210880000000  0.4725010000000 1.0
C      1  0.5804480000000  0.5264700000000  0.5842600000000 1.0
C      1  0.4679420000000  0.5229310000000  0.6114600000000 1.0
C      1  0.5293870000000  0.6067470000000  0.5690330000000 1.0
C      1  0.4556880000000  0.6044650000000  0.5599340000000 1.0
C      1  0.4245400000000  0.6087610000000  0.4919820000000 1.0
C      1  0.4688280000000  0.6026450000000  0.4330020000000 1.0
C      1  0.5441080000000  0.6036090000000  0.4407460000000 1.0
C      1  0.5728430000000  0.6009090000000  0.5084590000000 1.0
C      1  0.5379360000000  0.3929230000000  0.5683100000000 1.0
C      1  0.4599400000000  0.3979010000000  0.5628770000000 1.0
C      1  0.4235200000000  0.3953190000000  0.5000490000000 1.0
C      1  0.4670570000000  0.3954470000000  0.4345040000000 1.0
C      1  0.5386550000000  0.3959230000000  0.4355620000000 1.0
C      1  0.5732280000000  0.3969540000000  0.5053480000000 1.0
C      1  0.3860400000000  0.4871240000000  0.5541240000000 1.0
C      1  0.3960200000000  0.4844880000000  0.4260480000000 1.0
C      1  0.5088950000000  0.4878370000000  0.3728300000000 1.0
C      1  0.6244560000000  0.4832910000000  0.4480410000000 1.0
C      1  0.6025710000000  0.4856180000000  0.5730140000000 1.0
C      1  0.5041540000000  0.4875630000000  0.6192050000000 1.0
C      1  0.3739380000000  0.5131280000000  0.5499030000000 1.0
C      1  0.3959880000000  0.5119450000000  0.4331320000000 1.0
C      1  0.5192600000000  0.5139050000000  0.3650770000000 1.0
C      1  0.6108070000000  0.5079340000000  0.4463820000000 1.0
C      1  0.6047100000000  0.5116110000000  0.5858530000000 1.0
C      1  0.4848880000000  0.5074710000000  0.6291550000000 1.0
C      1  0.5595390000000  0.4889080000000  0.5595400000000 1.0
C      1  0.5084440000000  0.4764020000000  0.5738310000000 1.0
C      1  0.4172160000000  0.4899880000000  0.5215320000000 1.0
C      1  0.4293830000000  0.4728910000000  0.4595650000000 1.0
C      1  0.5202140000000  0.4907010000000  0.4164110000000 1.0
C      1  0.5581630000000  0.4822280000000  0.4438330000000 1.0
C      1  0.5644390000000  0.5179030000000  0.5609100000000 1.0
C      1  0.4811640000000  0.5260360000000  0.5860750000000 1.0
C      1  0.4145010000000  0.5189040000000  0.5248350000000 1.0
C      1  0.4376520000000  0.5281630000000  0.4434400000000 1.0
C      1  0.5195380000000  0.5195080000000  0.4124610000000 1.0
C      1  0.5794950000000  0.5234870000000  0.4766040000000 1.0
C      1  0.4578390000000  0.4354410000000  0.4650960000000 1.0
C      1  0.5179040000000  0.4504510000000  0.4447300000000 1.0
C      1  0.5559930000000  0.4458010000000  0.4777910000000 1.0
C      1  0.5369230000000  0.4476640000000  0.5408180000000 1.0
C      1  0.4914770000000  0.4387150000000  0.5552880000000 1.0
C      1  0.4409860000000  0.4489090000000  0.5088520000000 1.0
C      1  0.4493390000000  0.5633230000000  0.4718290000000 1.0
C      1  0.5038500000000  0.5561830000000  0.4429220000000 1.0
C      1  0.5504770000000  0.5604040000000  0.4725750000000 1.0
C      1  0.5474410000000  0.5558350000000  0.5330470000000 1.0
C      1  0.4984970000000  0.5608230000000  0.5595970000000 1.0
C      1  0.4486770000000  0.5563080000000  0.5247840000000 1.0
C      1  0.4335300000000  0.6150210000000  0.4658930000000 1.0
C      1  0.4961690000000  0.6077400000000  0.4274420000000 1.0
C      1  0.5619160000000  0.6116020000000  0.4611940000000 1.0
C      1  0.5643150000000  0.6085440000000  0.5343860000000 1.0
C      1  0.5025660000000  0.6138690000000  0.5744250000000 1.0
C      1  0.4373120000000  0.6124200000000  0.5397090000000 1.0
C      1  0.4317220000000  0.3910660000000  0.4726170000000 1.0
C      1  0.4913490000000  0.3826770000000  0.4274040000000 1.0
C      1  0.5580920000000  0.3936700000000  0.4566110000000 1.0
C      1  0.5684610000000  0.3840670000000  0.5300660000000 1.0
C      1  0.5098260000000  0.3904850000000  0.5744910000000 1.0
C      1  0.4407360000000  0.3860280000000  0.5457850000000 1.0
C      1  0.5428710000000  0.3825770000000  0.5416280000000 1.0
C      1  0.4870440000000  0.3888650000000  0.5572350000000 1.0
C      1  0.4438930000000  0.3850590000000  0.5178890000000 1.0
C      1  0.4579020000000  0.3880240000000  0.4612400000000 1.0
C      1  0.5136660000000  0.3843660000000  0.4443270000000 1.0
C      1  0.5546750000000  0.3895550000000  0.4846340000000 1.0
C      1  0.5381040000000  0.6152280000000  0.5430510000000 1.0
C      1  0.4813730000000  0.6178590000000  0.5559660000000 1.0
C      1  0.4415940000000  0.6203470000000  0.5126400000000 1.0
C      1  0.4603810000000  0.6161040000000  0.4573780000000 1.0
C      1  0.5170180000000  0.6123130000000  0.4459390000000 1.0
C      1  0.5554100000000  0.6125280000000  0.4885650000000 1.0
C      1  0.4271350000000  0.5402980000000  0.5645800000000 1.0
C      1  0.4023010000000  0.5419110000000  0.4728050000000 1.0
C      1  0.4789920000000  0.5411240000000  0.4037920000000 1.0
C      1  0.5739610000000  0.5387990000000  0.4315090000000 1.0
C      1  0.5931470000000  0.5397020000000  0.5315130000000 1.0
C      1  0.5230340000000  0.5455080000000  0.6000840000000 1.0
C      1  0.4317390000000  0.4661650000000  0.5592910000000 1.0
C      1  0.4058580000000  0.4364560000000  0.4706490000000 1.0
C      1  0.4815680000000  0.4655190000000  0.4089510000000 1.0
C      1  0.5720160000000  0.4393440000000  0.4323670000000 1.0
C      1  0.5872740000000  0.4649690000000  0.5295520000000 1.0
C      1  0.5225870000000  0.4373030000000  0.5910950000000 1.0
C      1  0.5531550000000  0.5835740000000  0.4226250000000 1.0
C      1  0.5928050000000  0.5802430000000  0.5045130000000 1.0
C      1  0.5435420000000  0.5877730000000  0.5848060000000 1.0
C      1  0.4491520000000  0.5822740000000  0.5780180000000 1.0
C      1  0.4053450000000  0.5875530000000  0.4944170000000 1.0
C      1  0.4554180000000  0.5819910000000  0.4177970000000 1.0
C      1  0.5430280000000  0.4127130000000  0.4113360000000 1.0
C      1  0.5885820000000  0.4203730000000  0.5066320000000 1.0
C      1  0.5565330000000  0.4101290000000  0.5847510000000 1.0
C      1  0.4513670000000  0.4220290000000  0.5751250000000 1.0
C      1  0.4007110000000  0.4133530000000  0.5080520000000 1.0
C      1  0.4621860000000  0.4190880000000  0.4196590000000 1.0
C      1  0.6042670000000  0.5543780000000  0.5091970000000 1.0
C      1  0.5466560000000  0.5623640000000  0.5963150000000 1.0
C      1  0.4395770000000  0.5559850000000  0.5857150000000 1.0
C      1  0.3933400000000  0.5614670000000  0.4921650000000 1.0
C      1  0.4543950000000  0.5563850000000  0.4051020000000 1.0
C      1  0.5620880000000  0.5579440000000  0.4134560000000 1.0
C      1  0.5975700000000  0.4469130000000  0.5097880000000 1.0
C      1  0.5502290000000  0.4361950000000  0.5977840000000 1.0
C      1  0.4479670000000  0.4502440000000  0.5771730000000 1.0
C      1  0.3903480000000  0.4381180000000  0.4946490000000 1.0
C      1  0.4604920000000  0.4463860000000  0.4122580000000 1.0
C      1  0.5587730000000  0.4375610000000  0.4066990000000 1.0
C      1  0.5409210000000  0.5175110000000  0.6131700000000 1.0
C      1  0.4219940000000  0.5103950000000  0.5835130000000 1.0
C      1  0.3895940000000  0.5164770000000  0.4625100000000 1.0
C      1  0.4647400000000  0.5107080000000  0.3909580000000 1.0
C      1  0.5885660000000  0.5127180000000  0.4262530000000 1.0
C      1  0.6114560000000  0.5093190000000  0.5266100000000 1.0
C      1  0.5339220000000  0.4901560000000  0.6155740000000 1.0
C      1  0.4121190000000  0.4866130000000  0.5699380000000 1.0
C      1  0.3811980000000  0.4908990000000  0.4792730000000 1.0
C      1  0.4817040000000  0.4869540000000  0.3874550000000 1.0
C      1  0.5719670000000  0.4878270000000  0.4182150000000 1.0
C      1  0.6049830000000  0.4856030000000  0.5423390000000 1.0
C      1  0.5513520000000  0.5474140000000  0.3894570000000 1.0
C      1  0.6184830000000  0.5311830000000  0.4970410000000 1.0
C      1  0.5663440000000  0.5420400000000  0.6021570000000 1.0
C      1  0.4417170000000  0.5331830000000  0.6053630000000 1.0
C      1  0.3790340000000  0.5503450000000  0.5138840000000 1.0
C      1  0.4361360000000  0.5335770000000  0.3992960000000 1.0
C      1  0.5571720000000  0.4673830000000  0.3984610000000 1.0
C      1  0.6163410000000  0.4557290000000  0.4907070000000 1.0
C      1  0.5571400000000  0.4655810000000  0.6022240000000 1.0
C      1  0.4661800000000  0.4635040000000  0.5944840000000 1.0
C      1  0.3822790000000  0.4672430000000  0.4999800000000 1.0
C      1  0.4346450000000  0.4571680000000  0.4138390000000 1.0
C      1  0.4291590000000  0.5461050000000  0.4631580000000 1.0
C      1  0.5006540000000  0.5387730000000  0.4211380000000 1.0
C      1  0.5678570000000  0.5427550000000  0.4596390000000 1.0
C      1  0.5670650000000  0.5374460000000  0.5406700000000 1.0
C      1  0.5008870000000  0.5456790000000  0.5832310000000 1.0
C      1  0.4316720000000  0.5379350000000  0.5372770000000 1.0
C      1  0.4328850000000  0.4472980000000  0.4739010000000 1.0
C      1  0.5047140000000  0.4682680000000  0.4270120000000 1.0
C      1  0.5553480000000  0.4544800000000  0.4506000000000 1.0
C      1  0.5595520000000  0.4667200000000  0.5398220000000 1.0
C      1  0.5169530000000  0.4491110000000  0.5647400000000 1.0
C      1  0.4339410000000  0.4669950000000  0.5291400000000 1.0
C      1  0.4778430000000  0.5266600000000  0.4836050000000 1.0
C      1  0.5027100000000  0.5151460000000  0.4736560000000 1.0
C      1  0.5229700000000  0.5259520000000  0.4911320000000 1.0
C      1  0.5190620000000  0.5143360000000  0.5181270000000 1.0
C      1  0.4942430000000  0.5258980000000  0.5265470000000 1.0
C      1  0.4725570000000  0.5158730000000  0.5092820000000 1.0
C      1  0.4790700000000  0.4752310000000  0.4824680000000 1.0
C      1  0.5038070000000  0.4872240000000  0.4741140000000 1.0
C      1  0.5231690000000  0.4761130000000  0.4935550000000 1.0
C      1  0.5167230000000  0.4862950000000  0.5191010000000 1.0
C      1  0.4899210000000  0.4774210000000  0.5270820000000 1.0
C      1  0.4716770000000  0.4881520000000  0.5078050000000 1.0
C      1  0.4975050000000  0.5548680000000  0.5307210000000 1.0
C      1  0.4746040000000  0.5645370000000  0.5132380000000 1.0
C      1  0.4752350000000  0.5560510000000  0.4836120000000 1.0
C      1  0.5016400000000  0.5631950000000  0.4705160000000 1.0
C      1  0.5259090000000  0.5562550000000  0.4882690000000 1.0
C      1  0.5244890000000  0.5629050000000  0.5178180000000 1.0
C      1  0.4810450000000  0.4522960000000  0.5338730000000 1.0
C      1  0.4758100000000  0.4364740000000  0.5099290000000 1.0
C      1  0.4810640000000  0.4448640000000  0.4802540000000 1.0
C      1  0.5091630000000  0.4405150000000  0.4690400000000 1.0
C      1  0.5301390000000  0.4475140000000  0.4909090000000 1.0
C      1  0.5260040000000  0.4335970000000  0.5168550000000 1.0
C      1  0.4708730000000  0.5117320000000  0.5652080000000 1.0
C      1  0.5438920000000  0.5020190000000  0.4551740000000 1.0
C      1  0.5681580000000  0.5070840000000  0.4950840000000 1.0
C      1  0.4320840000000  0.4950750000000  0.4749040000000 1.0
C      1  0.5177090000000  0.5002410000000  0.5653540000000 1.0
C      1  0.4602940000000  0.5130600000000  0.4427130000000 1.0
C      1  0.4830300000000  0.5918220000000  0.5099830000000 1.0
C      1  0.5008930000000  0.4191300000000  0.5135160000000 1.0
END
