TITL C-3201379-3821-1511 0.504978677271866 125000 -348.015458970633 0 0 57 (C1) n - 1
REM
REM in /home/nfs/bkarasulu/CARBON/AIRSS/Generating-Clusters/LCBOP/Higher-Symm/SD-CG/FIRE-CG
REM
REM
REM
REM
REM
REM ./C.cell (b20cbc046b6831c77cfcea5457e17084)
REM AIRSS Version 0.9.1 bugfix July 2018 build 013d7b7c2542+ Fri, 06 Jul 2018 19:26:36 +0100
REM compiler GCC version 9.2.1 20190827 (Red Hat 9.2.1-1)
REM options -cpp -mtune=generic -march=x86-64 -g -O0 -fpre-include=/usr/include/finclude/math-vector-fortran.h
REM seed 770706076 -1499018208 2058077678 -1578983332 906735792 112146081 116926001 904910388 -1812768082 -1866877436 -940626622 -1507184655 1102216144 315701769 -1569281535 -441072367 -1419902209 1356806457 2068110397 1494118437 -1609154062 2135366800 -1084042069 702856339 -1361343590 -967126703 -1849686422 -338595443 -2040497640 1409126472 399774993 1700323658 -1502533234
REM
CELL 1.54180   50.00000   50.00000   50.00000   90.00000   90.00000   90.00000
LATT -1
SFAC C  
C      1  0.5291120000000  0.5156130000000  0.4560880000000 1.0
C      1  0.5525410000000  0.4805110000000  0.5864520000000 1.0
C      1  0.5694020000000  0.4511940000000  0.4928950000000 1.0
C      1  0.3913810000000  0.5303710000000  0.3573980000000 1.0
C      1  0.4570920000000  0.4368340000000  0.5491380000000 1.0
C      1  0.4749740000000  0.6006640000000  0.5655950000000 1.0
C      1  0.5752060000000  0.5091180000000  0.4631710000000 1.0
C      1  0.5339670000000  0.5179420000000  0.5374710000000 1.0
C      1  0.4496710000000  0.5242350000000  0.4775540000000 1.0
C      1  0.4801300000000  0.4829120000000  0.5683110000000 1.0
C      1  0.5009420000000  0.4861810000000  0.5191240000000 1.0
C      1  0.4371560000000  0.5258770000000  0.4528840000000 1.0
C      1  0.4142380000000  0.5281560000000  0.4051640000000 1.0
C      1  0.4987110000000  0.4303300000000  0.4812060000000 1.0
C      1  0.5146220000000  0.4987070000000  0.5408560000000 1.0
C      1  0.3687060000000  0.5325690000000  0.3100140000000 1.0
C      1  0.5454210000000  0.4382190000000  0.5024710000000 1.0
C      1  0.5276080000000  0.4336910000000  0.4790490000000 1.0
C      1  0.5059490000000  0.4586340000000  0.5174740000000 1.0
C      1  0.5724180000000  0.4975570000000  0.5804200000000 1.0
C      1  0.4670020000000  0.4326310000000  0.5229020000000 1.0
C      1  0.5803260000000  0.5111210000000  0.5313860000000 1.0
C      1  0.4773540000000  0.4993030000000  0.5112290000000 1.0
C      1  0.4668910000000  0.5172120000000  0.5318060000000 1.0
C      1  0.5065040000000  0.5642290000000  0.5106730000000 1.0
C      1  0.4668880000000  0.6355550000000  0.6040850000000 1.0
C      1  0.5780970000000  0.4830580000000  0.4568140000000 1.0
C      1  0.3799490000000  0.5314800000000  0.3335090000000 1.0
C      1  0.5832570000000  0.5106880000000  0.5596290000000 1.0
C      1  0.5293430000000  0.5560470000000  0.4993820000000 1.0
C      1  0.5310310000000  0.4684580000000  0.5727600000000 1.0
C      1  0.5189050000000  0.4659280000000  0.4425070000000 1.0
C      1  0.4028090000000  0.5292640000000  0.3812810000000 1.0
C      1  0.5879550000000  0.4652940000000  0.5081800000000 1.0
C      1  0.4881460000000  0.4397050000000  0.5059900000000 1.0
C      1  0.4659540000000  0.5058260000000  0.5578390000000 1.0
C      1  0.5088020000000  0.4851020000000  0.5654700000000 1.0
C      1  0.5519030000000  0.5228310000000  0.4713260000000 1.0
C      1  0.5384490000000  0.4511610000000  0.4575370000000 1.0
C      1  0.4708980000000  0.6182550000000  0.5849990000000 1.0
C      1  0.5490680000000  0.5358140000000  0.4965190000000 1.0
C      1  0.5371930000000  0.4487160000000  0.5529350000000 1.0
C      1  0.5563890000000  0.5230840000000  0.5211960000000 1.0
C      1  0.4633960000000  0.5437830000000  0.5216500000000 1.0
C      1  0.4829910000000  0.5639400000000  0.5263190000000 1.0
C      1  0.4372810000000  0.4207780000000  0.5590430000000 1.0
C      1  0.4850310000000  0.4342180000000  0.4566780000000 1.0
C      1  0.4677520000000  0.4577130000000  0.5650590000000 1.0
C      1  0.5648590000000  0.4598740000000  0.4654030000000 1.0
C      1  0.5924140000000  0.4898630000000  0.5176510000000 1.0
C      1  0.4256680000000  0.5270470000000  0.4290460000000 1.0
C      1  0.5312700000000  0.4473120000000  0.5253890000000 1.0
C      1  0.5195380000000  0.4940070000000  0.4433910000000 1.0
C      1  0.4789980000000  0.5830250000000  0.5462510000000 1.0
C      1  0.4946610000000  0.4517170000000  0.4381840000000 1.0
C      1  0.4484320000000  0.5446070000000  0.4973670000000 1.0
C      1  0.4653520000000  0.5020360000000  0.4858780000000 1.0
END
