TITL C-3201379-3821-2235 0.0746496991443093 125000 -860.378809927468 0 0 139 (S4) n - 1
REM
REM in /home/nfs/bkarasulu/CARBON/AIRSS/Generating-Clusters/LCBOP/Higher-Symm/SD-CG/FIRE-CG
REM
REM
REM
REM
REM
REM ./C.cell (b20cbc046b6831c77cfcea5457e17084)
REM AIRSS Version 0.9.1 bugfix July 2018 build 013d7b7c2542+ Fri, 06 Jul 2018 19:26:36 +0100
REM compiler GCC version 9.2.1 20190827 (Red Hat 9.2.1-1)
REM options -cpp -mtune=generic -march=x86-64 -g -O0 -fpre-include=/usr/include/finclude/math-vector-fortran.h
REM seed 1688396885 1845427087 2075015174 32195447 636977889 -1202317332 831456414 154979715 -390751103 -1047740260 1792569701 2032247191 -1911700650 -379933703 156803501 -1792680028 -1815184126 1077181811 -706638794 1758554518 -404258062 499263340 1893350380 -54188108 534102887 1386131170 -1616384366 -1919230162 1409579547 50878842 -2121126666 1269158830 -241331675
REM
CELL 1.54180   50.00000   50.00000   50.00000   90.00000   90.00000   90.00000
LATT -1
SFAC C  
C      1  0.5646470000000  0.4594500000000  0.5748360000000 1.0
C      1  0.4594150000000  0.4347020000000  0.4246390000000 1.0
C      1  0.4346630000000  0.5399340000000  0.5748360000000 1.0
C      1  0.5398990000000  0.5646860000000  0.4246420000000 1.0
C      1  0.4986280000000  0.3940060000000  0.4573250000000 1.0
C      1  0.3939680000000  0.5007210000000  0.5421490000000 1.0
C      1  0.5006850000000  0.6053820000000  0.4573280000000 1.0
C      1  0.6053440000000  0.4986640000000  0.5421520000000 1.0
C      1  0.4322280000000  0.4306030000000  0.4318330000000 1.0
C      1  0.4305640000000  0.5671210000000  0.5676420000000 1.0
C      1  0.5670860000000  0.5687850000000  0.4318370000000 1.0
C      1  0.5687460000000  0.4322630000000  0.5676420000000 1.0
C      1  0.5273020000000  0.5411020000000  0.4346090000000 1.0
C      1  0.5410640000000  0.4720470000000  0.5648690000000 1.0
C      1  0.4720120000000  0.4582860000000  0.4346070000000 1.0
C      1  0.4582470000000  0.5273370000000  0.5648690000000 1.0
C      1  0.5020450000000  0.4055730000000  0.4113060000000 1.0
C      1  0.4055330000000  0.4973040000000  0.5881680000000 1.0
C      1  0.4972690000000  0.5938160000000  0.4113090000000 1.0
C      1  0.5937760000000  0.5020800000000  0.5881700000000 1.0
C      1  0.4149270000000  0.5100070000000  0.4794810000000 1.0
C      1  0.5099700000000  0.5844220000000  0.5199960000000 1.0
C      1  0.5843850000000  0.4893800000000  0.4794830000000 1.0
C      1  0.4893420000000  0.4149640000000  0.5199930000000 1.0
C      1  0.4264980000000  0.5585000000000  0.4756650000000 1.0
C      1  0.5584630000000  0.5728510000000  0.5238130000000 1.0
C      1  0.5728150000000  0.4408860000000  0.4756650000000 1.0
C      1  0.4408490000000  0.4265340000000  0.5238100000000 1.0
C      1  0.5803870000000  0.4663160000000  0.4331850000000 1.0
C      1  0.4662770000000  0.4189620000000  0.5662910000000 1.0
C      1  0.4189270000000  0.5330720000000  0.4331840000000 1.0
C      1  0.5330340000000  0.5804220000000  0.5662940000000 1.0
C      1  0.4823150000000  0.5414160000000  0.5630260000000 1.0
C      1  0.5413810000000  0.5170340000000  0.4364520000000 1.0
C      1  0.5169960000000  0.4579680000000  0.5630260000000 1.0
C      1  0.4579330000000  0.4823540000000  0.4364500000000 1.0
C      1  0.5856940000000  0.4372900000000  0.5007180000000 1.0
C      1  0.4372540000000  0.4136550000000  0.4987570000000 1.0
C      1  0.4136190000000  0.5620960000000  0.5007180000000 1.0
C      1  0.5620590000000  0.5857310000000  0.4987610000000 1.0
C      1  0.4232690000000  0.4713840000000  0.5093940000000 1.0
C      1  0.4713480000000  0.5760800000000  0.4900820000000 1.0
C      1  0.5760430000000  0.5280020000000  0.5093970000000 1.0
C      1  0.5279650000000  0.4233060000000  0.4900810000000 1.0
C      1  0.4466000000000  0.4615250000000  0.5737530000000 1.0
C      1  0.4614900000000  0.5527490000000  0.4257230000000 1.0
C      1  0.5527100000000  0.5378590000000  0.5737550000000 1.0
C      1  0.5378240000000  0.4466390000000  0.4257220000000 1.0
C      1  0.4479520000000  0.4872570000000  0.5047670000000 1.0
C      1  0.4872200000000  0.5513970000000  0.4947090000000 1.0
C      1  0.5513600000000  0.5121290000000  0.5047690000000 1.0
C      1  0.5120920000000  0.4479900000000  0.4947080000000 1.0
C      1  0.5177860000000  0.4663830000000  0.4313620000000 1.0
C      1  0.4663440000000  0.4815630000000  0.5681140000000 1.0
C      1  0.4815280000000  0.5330050000000  0.4313620000000 1.0
C      1  0.5329660000000  0.5178210000000  0.5681160000000 1.0
C      1  0.5864850000000  0.5577370000000  0.4473540000000 1.0
C      1  0.5576990000000  0.4128640000000  0.5521240000000 1.0
C      1  0.4128280000000  0.4416500000000  0.4473500000000 1.0
C      1  0.4416120000000  0.5865210000000  0.5521250000000 1.0
C      1  0.5940980000000  0.5148630000000  0.5624040000000 1.0
C      1  0.5148270000000  0.4052510000000  0.4370730000000 1.0
C      1  0.4052120000000  0.4845220000000  0.5624010000000 1.0
C      1  0.4844860000000  0.5941370000000  0.4370750000000 1.0
C      1  0.4387120000000  0.4799100000000  0.4567960000000 1.0
C      1  0.4798720000000  0.5606370000000  0.5426810000000 1.0
C      1  0.5606010000000  0.5194770000000  0.4567980000000 1.0
C      1  0.5194390000000  0.4387480000000  0.5426790000000 1.0
C      1  0.5552250000000  0.4987600000000  0.4786940000000 1.0
C      1  0.4987230000000  0.4441240000000  0.5207820000000 1.0
C      1  0.4440880000000  0.5006260000000  0.4786930000000 1.0
C      1  0.5005890000000  0.5552610000000  0.5207840000000 1.0
C      1  0.4730320000000  0.4904340000000  0.5194130000000 1.0
C      1  0.4903970000000  0.5263170000000  0.4800640000000 1.0
C      1  0.5262800000000  0.5089520000000  0.5194140000000 1.0
C      1  0.5089150000000  0.4730690000000  0.4800630000000 1.0
C      1  0.5343210000000  0.5829890000000  0.5374690000000 1.0
C      1  0.5829530000000  0.4650280000000  0.4620100000000 1.0
C      1  0.4649900000000  0.4163960000000  0.5374660000000 1.0
C      1  0.4163600000000  0.5343590000000  0.4620090000000 1.0
C      1  0.5475160000000  0.5990210000000  0.4805450000000 1.0
C      1  0.5989830000000  0.4518330000000  0.5189350000000 1.0
C      1  0.4517960000000  0.4003660000000  0.4805410000000 1.0
C      1  0.4003280000000  0.5475530000000  0.5189330000000 1.0
C      1  0.6036130000000  0.5141510000000  0.6105570000000 1.0
C      1  0.5141170000000  0.3957360000000  0.3889200000000 1.0
C      1  0.3956960000000  0.4852320000000  0.6105540000000 1.0
C      1  0.4851980000000  0.6036530000000  0.3889220000000 1.0
C      1  0.4912300000000  0.4704640000000  0.5597060000000 1.0
C      1  0.4704290000000  0.5081200000000  0.4397700000000 1.0
C      1  0.5080810000000  0.5289200000000  0.5597070000000 1.0
C      1  0.5288850000000  0.4912680000000  0.4397710000000 1.0
C      1  0.5325010000000  0.4851020000000  0.4683290000000 1.0
C      1  0.4850640000000  0.4668480000000  0.5311480000000 1.0
C      1  0.4668120000000  0.5142850000000  0.4683280000000 1.0
C      1  0.5142470000000  0.5325370000000  0.5311490000000 1.0
C      1  0.5338010000000  0.4140690000000  0.5373950000000 1.0
C      1  0.4140330000000  0.4655480000000  0.4620800000000 1.0
C      1  0.4655100000000  0.5853160000000  0.5373960000000 1.0
C      1  0.5852800000000  0.5338390000000  0.4620830000000 1.0
C      1  0.5205450000000  0.5488160000000  0.6065920000000 1.0
C      1  0.5487820000000  0.4788040000000  0.3928860000000 1.0
C      1  0.4787650000000  0.4505670000000  0.6065900000000 1.0
C      1  0.4505330000000  0.5205850000000  0.3928850000000 1.0
C      1  0.5479150000000  0.4262030000000  0.4693350000000 1.0
C      1  0.4261660000000  0.4514340000000  0.5301400000000 1.0
C      1  0.4513980000000  0.5731840000000  0.4693360000000 1.0
C      1  0.5731460000000  0.5479510000000  0.5301430000000 1.0
C      1  0.4596800000000  0.5031280000000  0.5519750000000 1.0
C      1  0.5030930000000  0.5396690000000  0.4475020000000 1.0
C      1  0.5396310000000  0.4962560000000  0.5519760000000 1.0
C      1  0.4962210000000  0.4597180000000  0.4475010000000 1.0
C      1  0.4759780000000  0.4165550000000  0.4110270000000 1.0
C      1  0.4165150000000  0.5233710000000  0.5884470000000 1.0
C      1  0.5233370000000  0.5828340000000  0.4110300000000 1.0
C      1  0.5827940000000  0.4760120000000  0.5884490000000 1.0
C      1  0.4040520000000  0.4808760000000  0.4864150000000 1.0
C      1  0.4808390000000  0.5952970000000  0.5130610000000 1.0
C      1  0.5952610000000  0.5185100000000  0.4864180000000 1.0
C      1  0.5184730000000  0.4040890000000  0.5130590000000 1.0
C      1  0.4233440000000  0.4624640000000  0.5571080000000 1.0
C      1  0.4624280000000  0.5760050000000  0.4423680000000 1.0
C      1  0.5759670000000  0.5369210000000  0.5571110000000 1.0
C      1  0.5368850000000  0.4233820000000  0.4423670000000 1.0
C      1  0.4746100000000  0.3925220000000  0.4690310000000 1.0
C      1  0.3924840000000  0.5247390000000  0.5304430000000 1.0
C      1  0.5247030000000  0.6068650000000  0.4690350000000 1.0
C      1  0.6068270000000  0.4746460000000  0.5304450000000 1.0
C      1  0.4615910000000  0.4398380000000  0.5856030000000 1.0
C      1  0.4398030000000  0.5377590000000  0.4138720000000 1.0
C      1  0.5377190000000  0.5595460000000  0.5856060000000 1.0
C      1  0.5595110000000  0.4616300000000  0.4138730000000 1.0
C      1  0.4904320000000  0.4739650000000  0.6152790000000 1.0
C      1  0.4739320000000  0.5089170000000  0.3841970000000 1.0
C      1  0.5088770000000  0.5254170000000  0.6152800000000 1.0
C      1  0.5253840000000  0.4904720000000  0.3841970000000 1.0
C      1  0.4996550000000  0.4996910000000  0.6168730000000 1.0
C      1  0.4996580000000  0.4996950000000  0.3826040000000 1.0
C      1  0.4996560000000  0.4996930000000  0.4997380000000 1.0
END
