TITL C-3201376-6384-1386 -0.000161882493483516 125000 -276.859435020713 0 0 46 (C2) n - 1
REM
REM in /home/nfs/bkarasulu/CARBON/AIRSS/Generating-Clusters/LCBOP/Higher-Symm/SD-CG/FIRE-CG
REM
REM
REM
REM
REM
REM ./C.cell (b20cbc046b6831c77cfcea5457e17084)
REM AIRSS Version 0.9.1 bugfix July 2018 build 013d7b7c2542+ Fri, 06 Jul 2018 19:26:36 +0100
REM compiler GCC version 9.2.1 20190827 (Red Hat 9.2.1-1)
REM options -cpp -mtune=generic -march=x86-64 -g -O0 -fpre-include=/usr/include/finclude/math-vector-fortran.h
REM seed -864243484 -1802226848 -1062054293 91388188 170379074 -1110867692 1703144494 -199375612 74937254 -1181600578 1482212589 238978958 2052186684 542148702 -1162542819 -2018756078 95958416 -1540509655 -1252331627 553787772 454761623 -2016633549 1922347294 -1686590301 1905122714 557691924 -2011974120 222282906 -159121748 -1982927936 7629707 -735010180 -245045109
REM
CELL 1.54180   50.00000   50.00000   50.00000   90.00000   90.00000   90.00000
LATT -1
SFAC C  
C      1  0.5205420000000  0.5157350000000  0.5199220000000 1.0
C      1  0.4713080000000  0.4513760000000  0.4735010000000 1.0
C      1  0.5286540000000  0.4513610000000  0.5233970000000 1.0
C      1  0.4794700000000  0.5157440000000  0.4769570000000 1.0
C      1  0.5566280000000  0.4518810000000  0.5191750000000 1.0
C      1  0.4630960000000  0.5169600000000  0.4543790000000 1.0
C      1  0.5369170000000  0.5169450000000  0.5424990000000 1.0
C      1  0.4433350000000  0.4519190000000  0.4777220000000 1.0
C      1  0.6181350000000  0.5321440000000  0.4834580000000 1.0
C      1  0.3935240000000  0.5214720000000  0.5348050000000 1.0
C      1  0.6064920000000  0.5213790000000  0.4620720000000 1.0
C      1  0.3818900000000  0.5322400000000  0.5134160000000 1.0
C      1  0.4764640000000  0.5215450000000  0.5506110000000 1.0
C      1  0.4881000000000  0.5006650000000  0.5634130000000 1.0
C      1  0.5119000000000  0.5006360000000  0.4334700000000 1.0
C      1  0.5235520000000  0.5215110000000  0.4462660000000 1.0
C      1  0.5666250000000  0.4634560000000  0.4967910000000 1.0
C      1  0.4390900000000  0.5222420000000  0.4441740000000 1.0
C      1  0.5609270000000  0.5222110000000  0.5527020000000 1.0
C      1  0.4333470000000  0.4635080000000  0.5001030000000 1.0
C      1  0.4128560000000  0.5061750000000  0.5448800000000 1.0
C      1  0.6184720000000  0.5365800000000  0.5096980000000 1.0
C      1  0.3815560000000  0.5366680000000  0.4871740000000 1.0
C      1  0.5871490000000  0.5060930000000  0.4520020000000 1.0
C      1  0.5293120000000  0.5312820000000  0.4969950000000 1.0
C      1  0.4831980000000  0.4596750000000  0.4490150000000 1.0
C      1  0.5167700000000  0.4596770000000  0.5478800000000 1.0
C      1  0.4707130000000  0.5313050000000  0.4998790000000 1.0
C      1  0.5302430000000  0.5329820000000  0.4699280000000 1.0
C      1  0.4973720000000  0.4778100000000  0.4347830000000 1.0
C      1  0.5026110000000  0.4778270000000  0.5621070000000 1.0
C      1  0.4697820000000  0.5330140000000  0.5269460000000 1.0
C      1  0.5663940000000  0.4900720000000  0.4567600000000 1.0
C      1  0.3929350000000  0.5350480000000  0.4631750000000 1.0
C      1  0.6070930000000  0.5349760000000  0.5336980000000 1.0
C      1  0.4335980000000  0.4901360000000  0.5401260000000 1.0
C      1  0.4988390000000  0.4968490000000  0.5135870000000 1.0
C      1  0.4858020000000  0.4541030000000  0.4985440000000 1.0
C      1  0.5141630000000  0.4540920000000  0.4983530000000 1.0
C      1  0.5011590000000  0.4968440000000  0.4832970000000 1.0
C      1  0.5863780000000  0.5292360000000  0.5493810000000 1.0
C      1  0.4482910000000  0.4766750000000  0.5206260000000 1.0
C      1  0.5516910000000  0.4766280000000  0.4762640000000 1.0
C      1  0.4136450000000  0.5292870000000  0.4474930000000 1.0
C      1  0.5232530000000  0.4760070000000  0.4802280000000 1.0
C      1  0.4767290000000  0.4760300000000  0.5166630000000 1.0
END
