TITL C-3201376-6384-1118 7289.3239462041 125000 -233.80901971059 0 0 41 (C1) n - 1
REM
REM in /home/nfs/bkarasulu/CARBON/AIRSS/Generating-Clusters/LCBOP/Higher-Symm/SD-CG/FIRE-CG
REM
REM
REM
REM
REM
REM ./C.cell (b20cbc046b6831c77cfcea5457e17084)
REM AIRSS Version 0.9.1 bugfix July 2018 build 013d7b7c2542+ Fri, 06 Jul 2018 19:26:36 +0100
REM compiler GCC version 9.2.1 20190827 (Red Hat 9.2.1-1)
REM options -cpp -mtune=generic -march=x86-64 -g -O0 -fpre-include=/usr/include/finclude/math-vector-fortran.h
REM seed -985970371 2131311177 1440131053 -1663699432 -1836128593 -388641233 -823040269 -675380308 945938558 1141104970 -957071277 1663617388 -600037668 634729588 1368619620 -289391266 -259103321 -1569808367 1651560255 -1246591699 -1268818542 -1257344152 -637112171 1562179128 -2066529505 12836072 -1852010804 1705426098 -373548794 739871845 724908602 -363315270 1704257828
REM
CELL 1.54180   50.00000   50.00000   50.00000   90.00000   90.00000   90.00000
LATT -1
SFAC C  
C      1  0.5103890000000  0.5392570000000  0.5330000000000 1.0
C      1  0.5446520000000  0.4759890000000  0.5312530000000 1.0
C      1  0.4714250000000  0.4716460000000  0.5314600000000 1.0
C      1  0.4984940000000  0.4514150000000  0.4623480000000 1.0
C      1  0.5390200000000  0.5281550000000  0.4691390000000 1.0
C      1  0.4553350000000  0.5147450000000  0.4613770000000 1.0
C      1  0.5411250000000  0.5369280000000  0.5337560000000 1.0
C      1  0.5206610000000  0.4573190000000  0.5308140000000 1.0
C      1  0.4206260000000  0.5204850000000  0.5257910000000 1.0
C      1  0.5267650000000  0.4577030000000  0.4597620000000 1.0
C      1  0.5211110000000  0.5518890000000  0.4686440000000 1.0
C      1  0.4488840000000  0.4856270000000  0.4663250000000 1.0
C      1  0.5036040000000  0.5099900000000  0.5313560000000 1.0
C      1  0.5222160000000  0.5036940000000  0.5069690000000 1.0
C      1  0.4799530000000  0.4966960000000  0.5204110000000 1.0
C      1  0.4826500000000  0.4944090000000  0.4921330000000 1.0
C      1  0.5232100000000  0.5060610000000  0.4782040000000 1.0
C      1  0.4830600000000  0.5212150000000  0.4534870000000 1.0
C      1  0.4948220000000  0.4392900000000  0.4900170000000 1.0
C      1  0.4527010000000  0.5308820000000  0.4878430000000 1.0
C      1  0.5603960000000  0.5294230000000  0.4898910000000 1.0
C      1  0.4996710000000  0.5554300000000  0.5108940000000 1.0
C      1  0.4533070000000  0.4622960000000  0.5101250000000 1.0
C      1  0.5570520000000  0.4758420000000  0.5019570000000 1.0
C      1  0.4653600000000  0.4631260000000  0.4595940000000 1.0
C      1  0.4926090000000  0.5468500000000  0.4644180000000 1.0
C      1  0.5397010000000  0.4619050000000  0.4361740000000 1.0
C      1  0.4073260000000  0.5276280000000  0.5470300000000 1.0
C      1  0.4942420000000  0.4579820000000  0.5428070000000 1.0
C      1  0.5528740000000  0.5102020000000  0.5369980000000 1.0
C      1  0.4393760000000  0.4844150000000  0.4952360000000 1.0
C      1  0.5252400000000  0.5627530000000  0.4959360000000 1.0
C      1  0.5397680000000  0.4578270000000  0.4861760000000 1.0
C      1  0.4365080000000  0.5124680000000  0.5044740000000 1.0
C      1  0.5193540000000  0.4452080000000  0.5042640000000 1.0
C      1  0.5489600000000  0.5499620000000  0.5085030000000 1.0
C      1  0.4667630000000  0.4445260000000  0.4925480000000 1.0
C      1  0.4773140000000  0.5486200000000  0.4914430000000 1.0
C      1  0.5666680000000  0.5041550000000  0.5023870000000 1.0
C      1  0.5078030000000  0.5013780000000  0.5603110000000 1.0
C      1  0.4975130000000  0.5014140000000  0.4685230000000 1.0
END
