TITL C-3201378-2706-1359 6.85227346335329e-06 125000 -181.141141509586 0 0 31 (C2) n - 1
REM
REM in /home/nfs/bkarasulu/CARBON/AIRSS/Generating-Clusters/LCBOP/Higher-Symm/SD-CG/FIRE-CG
REM
REM
REM
REM
REM
REM ./C.cell (b20cbc046b6831c77cfcea5457e17084)
REM AIRSS Version 0.9.1 bugfix July 2018 build 013d7b7c2542+ Fri, 06 Jul 2018 19:26:36 +0100
REM compiler GCC version 9.2.1 20190827 (Red Hat 9.2.1-1)
REM options -cpp -mtune=generic -march=x86-64 -g -O0 -fpre-include=/usr/include/finclude/math-vector-fortran.h
REM seed -2068603872 85635734 -72745078 2075328496 -480988722 -1231170570 1496333443 1519623517 1914379259 792671976 1083716286 1908392391 1859615671 -240932845 -1007282900 -289803800 -171754656 1961554849 -1898947513 544838265 1687497230 -1523683060 1167169059 1369218709 -1810742516 412855686 -590058391 1433253489 2107688277 1682192361 -596056732 1279816007 -1106977619
REM
CELL 1.54180   50.00000   50.00000   50.00000   90.00000   90.00000   90.00000
LATT -1
SFAC C  
C      1  0.4710290000000  0.5255580000000  0.4720620000000 1.0
C      1  0.5290490000000  0.4761890000000  0.4720670000000 1.0
C      1  0.5153870000000  0.5591350000000  0.4779190000000 1.0
C      1  0.4846910000000  0.4426140000000  0.4779340000000 1.0
C      1  0.5500530000000  0.4940020000000  0.4797270000000 1.0
C      1  0.4500250000000  0.5077470000000  0.4797270000000 1.0
C      1  0.4649010000000  0.4823260000000  0.5937120000000 1.0
C      1  0.5351810000000  0.5194520000000  0.5937060000000 1.0
C      1  0.4911020000000  0.5690820000000  0.4712840000000 1.0
C      1  0.5089760000000  0.4326650000000  0.4713010000000 1.0
C      1  0.5396900000000  0.5192460000000  0.5459130000000 1.0
C      1  0.4603900000000  0.4825190000000  0.5459190000000 1.0
C      1  0.5322400000000  0.4482270000000  0.4666790000000 1.0
C      1  0.4678370000000  0.5535180000000  0.4666670000000 1.0
C      1  0.4231610000000  0.5123300000000  0.4741730000000 1.0
C      1  0.5769170000000  0.4894170000000  0.4741730000000 1.0
C      1  0.6024150000000  0.4865190000000  0.4696240000000 1.0
C      1  0.3976630000000  0.5152270000000  0.4696240000000 1.0
C      1  0.4977900000000  0.5149000000000  0.4734720000000 1.0
C      1  0.5022880000000  0.4868480000000  0.4734750000000 1.0
C      1  0.4585450000000  0.4838990000000  0.4931390000000 1.0
C      1  0.5415340000000  0.5178530000000  0.4931330000000 1.0
C      1  0.4448030000000  0.5645680000000  0.4571590000000 1.0
C      1  0.5552750000000  0.4371750000000  0.4571730000000 1.0
C      1  0.4801590000000  0.4701740000000  0.4809930000000 1.0
C      1  0.5199200000000  0.5315760000000  0.4809850000000 1.0
C      1  0.5465640000000  0.5214630000000  0.5203620000000 1.0
C      1  0.4535160000000  0.4802970000000  0.5203690000000 1.0
C      1  0.4750010000000  0.4885100000000  0.5690520000000 1.0
C      1  0.5250800000000  0.5132610000000  0.5690480000000 1.0
C      1  0.5000410000000  0.5008850000000  0.5667700000000 1.0
END
