TITL C-3201373-1215-665 7783.68635815955 125000 -1064.03903660215 0 0 173 (C1) n - 1
REM
REM in /home/nfs/bkarasulu/CARBON/AIRSS/Generating-Clusters/LCBOP/Higher-Symm/SD-CG/FIRE-CG
REM
REM
REM
REM
REM
REM ./C.cell (b20cbc046b6831c77cfcea5457e17084)
REM AIRSS Version 0.9.1 bugfix July 2018 build 013d7b7c2542+ Fri, 06 Jul 2018 19:26:36 +0100
REM compiler GCC version 9.2.1 20190827 (Red Hat 9.2.1-1)
REM options -cpp -mtune=generic -march=x86-64 -g -O0 -fpre-include=/usr/include/finclude/math-vector-fortran.h
REM seed -650495864 -1467331158 -283092385 1336664677 770992846 -1749526507 211107897 327634368 -1018341926 -1206799350 -1561733231 -1735022101 -479524827 -2013636631 -660654915 -629983171 1269720051 -632135793 11437454 367919037 -1425767350 1494450675 -1174397819 -791148354 -163187701 -976361318 -2030402977 -2016069508 -2052706619 -436616361 -1003580526 -2073816624 -712190827
REM
CELL 1.54180   50.00000   50.00000   50.00000   90.00000   90.00000   90.00000
LATT -1
SFAC C  
C      1  0.4838760000000  0.4282140000000  0.4110270000000 1.0
C      1  0.4041900000000  0.4887570000000  0.4258410000000 1.0
C      1  0.4295700000000  0.4068420000000  0.4840670000000 1.0
C      1  0.5135870000000  0.5670280000000  0.4138520000000 1.0
C      1  0.5169570000000  0.4318090000000  0.5864700000000 1.0
C      1  0.4879660000000  0.5696260000000  0.5893820000000 1.0
C      1  0.5891330000000  0.5083020000000  0.4305050000000 1.0
C      1  0.5919420000000  0.4848850000000  0.5736000000000 1.0
C      1  0.4116780000000  0.5124270000000  0.5674310000000 1.0
C      1  0.5693170000000  0.5875850000000  0.4843880000000 1.0
C      1  0.5724660000000  0.4076030000000  0.5102300000000 1.0
C      1  0.4310940000000  0.5896220000000  0.5131170000000 1.0
C      1  0.4681200000000  0.3889570000000  0.4470800000000 1.0
C      1  0.4472560000000  0.4676230000000  0.3972980000000 1.0
C      1  0.3898780000000  0.4497090000000  0.4647570000000 1.0
C      1  0.5318940000000  0.6052330000000  0.4473470000000 1.0
C      1  0.5336350000000  0.4008190000000  0.5459810000000 1.0
C      1  0.4701780000000  0.6025810000000  0.5508320000000 1.0
C      1  0.5501610000000  0.5292030000000  0.4018760000000 1.0
C      1  0.5537590000000  0.4681180000000  0.6086050000000 1.0
C      1  0.4503050000000  0.5304570000000  0.6000090000000 1.0
C      1  0.6011260000000  0.5471400000000  0.4678830000000 1.0
C      1  0.6030410000000  0.4465200000000  0.5338890000000 1.0
C      1  0.3989720000000  0.5498850000000  0.5303730000000 1.0
C      1  0.4690480000000  0.5391800000000  0.5603330000000 1.0
C      1  0.5614920000000  0.4633370000000  0.5450880000000 1.0
C      1  0.5348880000000  0.5640610000000  0.4635590000000 1.0
C      1  0.5410180000000  0.4665950000000  0.5662360000000 1.0
C      1  0.5381160000000  0.5405370000000  0.4459910000000 1.0
C      1  0.4545190000000  0.4525040000000  0.4401620000000 1.0
C      1  0.4407880000000  0.5361660000000  0.5403510000000 1.0
C      1  0.4294820000000  0.4620370000000  0.4506990000000 1.0
C      1  0.5616920000000  0.5283770000000  0.4590570000000 1.0
C      1  0.4588100000000  0.4306400000000  0.4583540000000 1.0
C      1  0.4631690000000  0.5624600000000  0.5326500000000 1.0
C      1  0.5496140000000  0.4404800000000  0.5310380000000 1.0
C      1  0.3974780000000  0.4709010000000  0.4819650000000 1.0
C      1  0.4845370000000  0.3934410000000  0.4706890000000 1.0
C      1  0.4707510000000  0.4823470000000  0.4058010000000 1.0
C      1  0.5991130000000  0.5250100000000  0.4861330000000 1.0
C      1  0.6037790000000  0.4724990000000  0.5209560000000 1.0
C      1  0.4048670000000  0.5273300000000  0.5132130000000 1.0
C      1  0.5169120000000  0.6073800000000  0.4719590000000 1.0
C      1  0.5176790000000  0.4086210000000  0.5228280000000 1.0
C      1  0.4874460000000  0.6007450000000  0.5278150000000 1.0
C      1  0.5256390000000  0.5147750000000  0.4061650000000 1.0
C      1  0.5293070000000  0.4837110000000  0.6093230000000 1.0
C      1  0.4736700000000  0.5136960000000  0.5983100000000 1.0
C      1  0.6136430000000  0.4844580000000  0.4974470000000 1.0
C      1  0.4952490000000  0.6175770000000  0.4868650000000 1.0
C      1  0.4864100000000  0.4939770000000  0.6132290000000 1.0
C      1  0.3903390000000  0.5135900000000  0.4943140000000 1.0
C      1  0.3887530000000  0.4865740000000  0.5028930000000 1.0
C      1  0.6142930000000  0.5126030000000  0.5060210000000 1.0
C      1  0.5064560000000  0.3845880000000  0.4854620000000 1.0
C      1  0.5065620000000  0.6155890000000  0.5141780000000 1.0
C      1  0.4986820000000  0.3919950000000  0.5118130000000 1.0
C      1  0.5133640000000  0.5052220000000  0.6181240000000 1.0
C      1  0.5123430000000  0.4944640000000  0.3930180000000 1.0
C      1  0.4852040000000  0.5019970000000  0.3932400000000 1.0
C      1  0.5092400000000  0.5525690000000  0.5392680000000 1.0
C      1  0.5071200000000  0.5024770000000  0.5668630000000 1.0
C      1  0.5493860000000  0.5383640000000  0.5031150000000 1.0
C      1  0.5020720000000  0.4528320000000  0.5351360000000 1.0
C      1  0.4973670000000  0.5655730000000  0.4950750000000 1.0
C      1  0.5023630000000  0.4419180000000  0.4672480000000 1.0
C      1  0.4627150000000  0.4945600000000  0.5463140000000 1.0
C      1  0.4584980000000  0.5019150000000  0.4492610000000 1.0
C      1  0.5289030000000  0.4907550000000  0.4477990000000 1.0
C      1  0.4469990000000  0.4615770000000  0.4961890000000 1.0
C      1  0.4486700000000  0.5403480000000  0.4926220000000 1.0
C      1  0.5650390000000  0.4947340000000  0.5039840000000 1.0
C      1  0.5689430000000  0.5314990000000  0.5676480000000 1.0
C      1  0.5615060000000  0.5588900000000  0.5240740000000 1.0
C      1  0.5275430000000  0.5627880000000  0.5615040000000 1.0
C      1  0.4414920000000  0.4752150000000  0.5574920000000 1.0
C      1  0.4385630000000  0.5238690000000  0.4378150000000 1.0
C      1  0.5551560000000  0.4735110000000  0.4411190000000 1.0
C      1  0.4406230000000  0.4410020000000  0.5187960000000 1.0
C      1  0.4377070000000  0.5614860000000  0.4734730000000 1.0
C      1  0.5660840000000  0.4314410000000  0.4687670000000 1.0
C      1  0.4794860000000  0.4412860000000  0.5551180000000 1.0
C      1  0.4683890000000  0.5659200000000  0.4330990000000 1.0
C      1  0.5217950000000  0.4360410000000  0.4433150000000 1.0
C      1  0.5241760000000  0.5153870000000  0.4352570000000 1.0
C      1  0.4337380000000  0.5282310000000  0.5130160000000 1.0
C      1  0.5217450000000  0.4370910000000  0.5232170000000 1.0
C      1  0.4682300000000  0.4796530000000  0.4345460000000 1.0
C      1  0.4786760000000  0.5119280000000  0.5675550000000 1.0
C      1  0.5242870000000  0.4855230000000  0.5798250000000 1.0
C      1  0.5763170000000  0.4821500000000  0.5255110000000 1.0
C      1  0.5689810000000  0.5200890000000  0.4882640000000 1.0
C      1  0.4266440000000  0.4692310000000  0.4784530000000 1.0
C      1  0.4898360000000  0.5703870000000  0.5231880000000 1.0
C      1  0.4828360000000  0.4229500000000  0.4713550000000 1.0
C      1  0.5155210000000  0.5783380000000  0.4790370000000 1.0
C      1  0.6043560000000  0.5279340000000  0.5303820000000 1.0
C      1  0.5318710000000  0.6040170000000  0.5278350000000 1.0
C      1  0.5283730000000  0.5292770000000  0.6033710000000 1.0
C      1  0.3992320000000  0.4718100000000  0.5266930000000 1.0
C      1  0.3969180000000  0.5289380000000  0.4694810000000 1.0
C      1  0.5992680000000  0.4711530000000  0.4739550000000 1.0
C      1  0.4733630000000  0.3998220000000  0.5252270000000 1.0
C      1  0.4714330000000  0.6026690000000  0.4725650000000 1.0
C      1  0.5307320000000  0.3940320000000  0.4705310000000 1.0
C      1  0.4736510000000  0.4695550000000  0.6002260000000 1.0
C      1  0.4719580000000  0.5277100000000  0.3992520000000 1.0
C      1  0.5254320000000  0.4689990000000  0.4007530000000 1.0
C      1  0.5103980000000  0.4459970000000  0.4145970000000 1.0
C      1  0.4085630000000  0.5149740000000  0.4449460000000 1.0
C      1  0.4488000000000  0.4113560000000  0.5102630000000 1.0
C      1  0.4853170000000  0.5521070000000  0.4120750000000 1.0
C      1  0.4893230000000  0.4483030000000  0.5851120000000 1.0
C      1  0.5151550000000  0.5534030000000  0.5894460000000 1.0
C      1  0.5850350000000  0.4837510000000  0.4494730000000 1.0
C      1  0.5918750000000  0.5158070000000  0.5560040000000 1.0
C      1  0.4127710000000  0.4859490000000  0.5498770000000 1.0
C      1  0.5536680000000  0.5882670000000  0.5125030000000 1.0
C      1  0.5559400000000  0.4069490000000  0.4831150000000 1.0
C      1  0.4472660000000  0.5894510000000  0.4857910000000 1.0
C      1  0.5893420000000  0.4436160000000  0.4821610000000 1.0
C      1  0.4813020000000  0.5904940000000  0.4443800000000 1.0
C      1  0.4453590000000  0.4801180000000  0.5885520000000 1.0
C      1  0.4069460000000  0.5577790000000  0.4796760000000 1.0
C      1  0.4084020000000  0.4430190000000  0.5166410000000 1.0
C      1  0.5923660000000  0.5554210000000  0.5176990000000 1.0
C      1  0.5185360000000  0.4042170000000  0.4423960000000 1.0
C      1  0.5213740000000  0.5936690000000  0.5575650000000 1.0
C      1  0.4841820000000  0.4104660000000  0.5527210000000 1.0
C      1  0.5575850000000  0.5187580000000  0.5923430000000 1.0
C      1  0.5542240000000  0.4779700000000  0.4096410000000 1.0
C      1  0.4428590000000  0.5187460000000  0.4070350000000 1.0
C      1  0.5884800000000  0.4561470000000  0.5595440000000 1.0
C      1  0.5534550000000  0.5868400000000  0.4580790000000 1.0
C      1  0.4625200000000  0.5538860000000  0.5859860000000 1.0
C      1  0.4137230000000  0.5393110000000  0.5541090000000 1.0
C      1  0.4027330000000  0.4614740000000  0.4397950000000 1.0
C      1  0.5873690000000  0.5338280000000  0.4451780000000 1.0
C      1  0.4442380000000  0.4051660000000  0.4569980000000 1.0
C      1  0.4473860000000  0.5874970000000  0.5386590000000 1.0
C      1  0.5589440000000  0.4120570000000  0.5360730000000 1.0
C      1  0.5438640000000  0.4471390000000  0.5887870000000 1.0
C      1  0.5415060000000  0.5539700000000  0.4169500000000 1.0
C      1  0.4554150000000  0.4417400000000  0.4107590000000 1.0
C      1  0.4037710000000  0.4252440000000  0.4869600000000 1.0
C      1  0.4886380000000  0.4013860000000  0.4268090000000 1.0
C      1  0.4265060000000  0.4902330000000  0.4032750000000 1.0
C      1  0.5933150000000  0.5687940000000  0.4876510000000 1.0
C      1  0.5941280000000  0.4293220000000  0.5093980000000 1.0
C      1  0.4059320000000  0.5716420000000  0.5099030000000 1.0
C      1  0.5098690000000  0.5923510000000  0.4303280000000 1.0
C      1  0.5132420000000  0.4079970000000  0.5671750000000 1.0
C      1  0.4911470000000  0.5945770000000  0.5716140000000 1.0
C      1  0.5696410000000  0.5061720000000  0.4073720000000 1.0
C      1  0.5721320000000  0.4901280000000  0.5966240000000 1.0
C      1  0.4301840000000  0.5091070000000  0.5914360000000 1.0
C      1  0.5144050000000  0.5270300000000  0.5290060000000 1.0
C      1  0.5136780000000  0.5020780000000  0.5399680000000 1.0
C      1  0.5211930000000  0.5267210000000  0.5007090000000 1.0
C      1  0.5013310000000  0.4797670000000  0.5286650000000 1.0
C      1  0.4966890000000  0.5384690000000  0.4890500000000 1.0
C      1  0.4946300000000  0.4667880000000  0.4766290000000 1.0
C      1  0.4753540000000  0.4872600000000  0.5209590000000 1.0
C      1  0.4660720000000  0.5024050000000  0.4758220000000 1.0
C      1  0.5117550000000  0.4870450000000  0.4687540000000 1.0
C      1  0.4707780000000  0.4783730000000  0.4927650000000 1.0
C      1  0.4719320000000  0.5271990000000  0.4857710000000 1.0
C      1  0.5406080000000  0.4830870000000  0.5008750000000 1.0
C      1  0.4513310000000  0.4491200000000  0.5462370000000 1.0
C      1  0.4463710000000  0.5525570000000  0.4459020000000 1.0
C      1  0.5497880000000  0.4451750000000  0.4498040000000 1.0
C      1  0.5549920000000  0.5525570000000  0.5533150000000 1.0
C      1  0.5214900000000  0.4996830000000  0.4908140000000 1.0
END
