TITL C-3201378-2706-1838 -36.1735062819604 125000 -1080.41225161367 0 0 178 (C1) n - 1
REM
REM in /home/nfs/bkarasulu/CARBON/AIRSS/Generating-Clusters/LCBOP/Higher-Symm/SD-CG/FIRE-CG
REM
REM
REM
REM
REM
REM ./C.cell (b20cbc046b6831c77cfcea5457e17084)
REM AIRSS Version 0.9.1 bugfix July 2018 build 013d7b7c2542+ Fri, 06 Jul 2018 19:26:36 +0100
REM compiler GCC version 9.2.1 20190827 (Red Hat 9.2.1-1)
REM options -cpp -mtune=generic -march=x86-64 -g -O0 -fpre-include=/usr/include/finclude/math-vector-fortran.h
REM seed -1027599133 -1568229784 1395528080 -2082128460 1198612005 -1185643087 232326310 -1304745834 -825338562 1866087807 -1903430747 -1956481229 -834731041 1693254781 1884616190 1732916229 833240816 840248777 1203077220 -1580210254 -792054599 1088597331 1630179643 929674841 175626763 -393699280 1549179555 -1187801403 1991669186 703894075 1414841823 1750047321 -1785254364
REM
CELL 1.54180   50.00000   50.00000   50.00000   90.00000   90.00000   90.00000
LATT -1
SFAC C  
C      1  0.4991310000000  0.4894740000000  0.4597260000000 1.0
C      1  0.4949440000000  0.4648450000000  0.5383040000000 1.0
C      1  0.4941700000000  0.5371380000000  0.5228390000000 1.0
C      1  0.4728400000000  0.5146690000000  0.4214340000000 1.0
C      1  0.4721910000000  0.4234190000000  0.5282920000000 1.0
C      1  0.4654330000000  0.5698660000000  0.5552780000000 1.0
C      1  0.4100240000000  0.5222220000000  0.4364130000000 1.0
C      1  0.4067470000000  0.4279700000000  0.5114290000000 1.0
C      1  0.4058670000000  0.5489560000000  0.5536980000000 1.0
C      1  0.4524690000000  0.5262880000000  0.5464380000000 1.0
C      1  0.4614410000000  0.5188700000000  0.4662130000000 1.0
C      1  0.4795440000000  0.4495840000000  0.4765390000000 1.0
C      1  0.4188350000000  0.4048040000000  0.5008860000000 1.0
C      1  0.4146350000000  0.5548750000000  0.5802640000000 1.0
C      1  0.4191650000000  0.5430380000000  0.4190970000000 1.0
C      1  0.5101530000000  0.5561580000000  0.4836550000000 1.0
C      1  0.5225680000000  0.4476590000000  0.4568090000000 1.0
C      1  0.5087690000000  0.5030590000000  0.5612950000000 1.0
C      1  0.3916660000000  0.4834520000000  0.5408220000000 1.0
C      1  0.3956490000000  0.5442730000000  0.4921330000000 1.0
C      1  0.3958700000000  0.4695840000000  0.4660640000000 1.0
C      1  0.4749590000000  0.6140800000000  0.4816260000000 1.0
C      1  0.4807140000000  0.4316350000000  0.4071200000000 1.0
C      1  0.4794310000000  0.4617360000000  0.6037760000000 1.0
C      1  0.3914470000000  0.5196060000000  0.5407990000000 1.0
C      1  0.3977840000000  0.5233790000000  0.4637100000000 1.0
C      1  0.3921270000000  0.4498450000000  0.4963050000000 1.0
C      1  0.4482870000000  0.5295190000000  0.5163770000000 1.0
C      1  0.4472590000000  0.4943070000000  0.4708870000000 1.0
C      1  0.4462500000000  0.4746650000000  0.5310220000000 1.0
C      1  0.5172230000000  0.5429900000000  0.5077760000000 1.0
C      1  0.5246940000000  0.4754510000000  0.4599270000000 1.0
C      1  0.5165700000000  0.4813970000000  0.5455950000000 1.0
C      1  0.4317370000000  0.6098690000000  0.4977020000000 1.0
C      1  0.4381360000000  0.4482330000000  0.3998330000000 1.0
C      1  0.4366180000000  0.4459130000000  0.5948990000000 1.0
C      1  0.4453510000000  0.5663150000000  0.4521590000000 1.0
C      1  0.4447700000000  0.4203720000000  0.4555350000000 1.0
C      1  0.4397200000000  0.5108630000000  0.5933420000000 1.0
C      1  0.4487090000000  0.6037100000000  0.5207090000000 1.0
C      1  0.4551170000000  0.4716150000000  0.4014430000000 1.0
C      1  0.4535930000000  0.4327550000000  0.5751760000000 1.0
C      1  0.4197160000000  0.4371690000000  0.5393330000000 1.0
C      1  0.4184070000000  0.5671990000000  0.5330190000000 1.0
C      1  0.4218410000000  0.4960350000000  0.4284760000000 1.0
C      1  0.5736300000000  0.3985590000000  0.5457500000000 1.0
C      1  0.5681070000000  0.5791070000000  0.5402780000000 1.0
C      1  0.5781840000000  0.5109770000000  0.4066300000000 1.0
C      1  0.5939450000000  0.5385850000000  0.4861810000000 1.0
C      1  0.5880330000000  0.4519850000000  0.4744710000000 1.0
C      1  0.6013100000000  0.4907490000000  0.5467500000000 1.0
C      1  0.5968000000000  0.5098160000000  0.4276980000000 1.0
C      1  0.5913990000000  0.4132930000000  0.5296810000000 1.0
C      1  0.5908110000000  0.5632410000000  0.5365340000000 1.0
C      1  0.5159980000000  0.4091480000000  0.5688750000000 1.0
C      1  0.5130360000000  0.6114660000000  0.5395750000000 1.0
C      1  0.5201100000000  0.4908650000000  0.3894510000000 1.0
C      1  0.4978310000000  0.5098320000000  0.6144950000000 1.0
C      1  0.5049670000000  0.5966900000000  0.4430770000000 1.0
C      1  0.4999590000000  0.3964830000000  0.4410850000000 1.0
C      1  0.4951040000000  0.3941050000000  0.4963300000000 1.0
C      1  0.4902350000000  0.5626040000000  0.5957730000000 1.0
C      1  0.4936160000000  0.5569080000000  0.4132600000000 1.0
C      1  0.4265770000000  0.4729580000000  0.5105890000000 1.0
C      1  0.4235920000000  0.5161100000000  0.5104690000000 1.0
C      1  0.4261060000000  0.4950380000000  0.4913130000000 1.0
C      1  0.5420370000000  0.4837140000000  0.4812490000000 1.0
C      1  0.5413550000000  0.4834100000000  0.5305930000000 1.0
C      1  0.5407200000000  0.5258050000000  0.5074550000000 1.0
C      1  0.5481150000000  0.5137330000000  0.4802780000000 1.0
C      1  0.5460510000000  0.4645700000000  0.5057900000000 1.0
C      1  0.5541840000000  0.5111550000000  0.5319560000000 1.0
C      1  0.4819140000000  0.4601660000000  0.3975710000000 1.0
C      1  0.4800170000000  0.4364630000000  0.5874870000000 1.0
C      1  0.4744200000000  0.6138630000000  0.5112520000000 1.0
C      1  0.4415720000000  0.5928670000000  0.4523220000000 1.0
C      1  0.4429630000000  0.4104200000000  0.4306200000000 1.0
C      1  0.4414530000000  0.4923310000000  0.6127780000000 1.0
C      1  0.5143550000000  0.3866260000000  0.5172850000000 1.0
C      1  0.5121770000000  0.5792350000000  0.5848910000000 1.0
C      1  0.5186900000000  0.5450450000000  0.4049230000000 1.0
C      1  0.4163720000000  0.5624730000000  0.5029470000000 1.0
C      1  0.4162440000000  0.4709250000000  0.4445170000000 1.0
C      1  0.4102490000000  0.4676300000000  0.5565190000000 1.0
C      1  0.5895290000000  0.4460970000000  0.4263910000000 1.0
C      1  0.5979360000000  0.4533670000000  0.5787930000000 1.0
C      1  0.5575120000000  0.5752990000000  0.4631360000000 1.0
C      1  0.4508150000000  0.5458060000000  0.4704230000000 1.0
C      1  0.4543350000000  0.4448180000000  0.4652620000000 1.0
C      1  0.4419710000000  0.5077570000000  0.5655040000000 1.0
C      1  0.5456050000000  0.5270310000000  0.5568960000000 1.0
C      1  0.5276680000000  0.5221140000000  0.4572180000000 1.0
C      1  0.5239700000000  0.4415620000000  0.5122890000000 1.0
C      1  0.5306730000000  0.5992720000000  0.4311040000000 1.0
C      1  0.4979390000000  0.3697890000000  0.4349300000000 1.0
C      1  0.4981860000000  0.5149890000000  0.6416760000000 1.0
C      1  0.4699070000000  0.5409330000000  0.4092960000000 1.0
C      1  0.4697920000000  0.4024680000000  0.5082180000000 1.0
C      1  0.4637270000000  0.5697180000000  0.5847510000000 1.0
C      1  0.5768460000000  0.5200030000000  0.4737040000000 1.0
C      1  0.5735400000000  0.4519200000000  0.4994070000000 1.0
C      1  0.5842820000000  0.5112040000000  0.5362210000000 1.0
C      1  0.4472030000000  0.6105800000000  0.4731330000000 1.0
C      1  0.4522610000000  0.4243890000000  0.4082250000000 1.0
C      1  0.4510930000000  0.4662730000000  0.6097210000000 1.0
C      1  0.5336850000000  0.6283110000000  0.4992130000000 1.0
C      1  0.5390700000000  0.4476500000000  0.4003650000000 1.0
C      1  0.5376720000000  0.4482490000000  0.5882410000000 1.0
C      1  0.5351520000000  0.6101670000000  0.5210720000000 1.0
C      1  0.5431710000000  0.4755280000000  0.3956710000000 1.0
C      1  0.5401860000000  0.4231210000000  0.5746820000000 1.0
C      1  0.4850280000000  0.4773620000000  0.4813410000000 1.0
C      1  0.4731940000000  0.4775600000000  0.5267090000000 1.0
C      1  0.4758830000000  0.5199650000000  0.5081470000000 1.0
C      1  0.5868860000000  0.4372180000000  0.5190120000000 1.0
C      1  0.5956120000000  0.5371130000000  0.5369090000000 1.0
C      1  0.5898690000000  0.5063630000000  0.4531520000000 1.0
C      1  0.4482940000000  0.4288900000000  0.5469170000000 1.0
C      1  0.4440280000000  0.5819190000000  0.5388320000000 1.0
C      1  0.4498020000000  0.4955620000000  0.4161510000000 1.0
C      1  0.5397730000000  0.3746760000000  0.5148610000000 1.0
C      1  0.5399230000000  0.5737000000000  0.5859890000000 1.0
C      1  0.5450550000000  0.5536260000000  0.4140170000000 1.0
C      1  0.4948970000000  0.5330520000000  0.5966610000000 1.0
C      1  0.4947330000000  0.5704270000000  0.4386370000000 1.0
C      1  0.5001750000000  0.4051830000000  0.4691040000000 1.0
C      1  0.5007150000000  0.4811540000000  0.6064000000000 1.0
C      1  0.4983330000000  0.6141010000000  0.4652990000000 1.0
C      1  0.5020970000000  0.4165400000000  0.4192130000000 1.0
C      1  0.4949970000000  0.5259260000000  0.5689960000000 1.0
C      1  0.4968190000000  0.5524710000000  0.4596480000000 1.0
C      1  0.5016470000000  0.4335440000000  0.4692250000000 1.0
C      1  0.5587840000000  0.5807100000000  0.4898680000000 1.0
C      1  0.5875670000000  0.4638270000000  0.4064470000000 1.0
C      1  0.5871560000000  0.4290020000000  0.5803830000000 1.0
C      1  0.5274290000000  0.4255320000000  0.4100790000000 1.0
C      1  0.5260200000000  0.4695230000000  0.5999730000000 1.0
C      1  0.5197740000000  0.6290890000000  0.4762800000000 1.0
C      1  0.6201300000000  0.5389760000000  0.4924000000000 1.0
C      1  0.6142850000000  0.4621650000000  0.4752980000000 1.0
C      1  0.6254490000000  0.4869170000000  0.5327460000000 1.0
C      1  0.5102450000000  0.3953110000000  0.5446980000000 1.0
C      1  0.5078250000000  0.5985140000000  0.5641740000000 1.0
C      1  0.5180240000000  0.5188970000000  0.3929200000000 1.0
C      1  0.5696940000000  0.4847670000000  0.3990020000000 1.0
C      1  0.5663010000000  0.4133600000000  0.5691790000000 1.0
C      1  0.5542570000000  0.5892450000000  0.5173350000000 1.0
C      1  0.3967450000000  0.4709690000000  0.5151410000000 1.0
C      1  0.3961830000000  0.5246700000000  0.5136110000000 1.0
C      1  0.3990900000000  0.4969270000000  0.4760910000000 1.0
C      1  0.4790340000000  0.5424320000000  0.5493050000000 1.0
C      1  0.4889360000000  0.5172520000000  0.4505370000000 1.0
C      1  0.4982260000000  0.4389130000000  0.5272400000000 1.0
C      1  0.4870650000000  0.6526930000000  0.5373990000000 1.0
C      1  0.4937090000000  0.4737000000000  0.3527950000000 1.0
C      1  0.4923800000000  0.3947500000000  0.6087120000000 1.0
C      1  0.5528100000000  0.5784750000000  0.4318760000000 1.0
C      1  0.5816410000000  0.4363550000000  0.4515840000000 1.0
C      1  0.5982140000000  0.4808630000000  0.5732760000000 1.0
C      1  0.4418900000000  0.4686060000000  0.4578060000000 1.0
C      1  0.4351850000000  0.4819230000000  0.5561360000000 1.0
C      1  0.4437500000000  0.5526130000000  0.4970620000000 1.0
C      1  0.4912500000000  0.6268980000000  0.5294960000000 1.0
C      1  0.4984290000000  0.4749080000000  0.3797850000000 1.0
C      1  0.4959650000000  0.4131190000000  0.5887610000000 1.0
C      1  0.5581070000000  0.5792280000000  0.5667780000000 1.0
C      1  0.5654320000000  0.5359670000000  0.4045650000000 1.0
C      1  0.5601820000000  0.3778430000000  0.5323260000000 1.0
C      1  0.4427070000000  0.5490320000000  0.4065950000000 1.0
C      1  0.4438060000000  0.3946960000000  0.5008580000000 1.0
C      1  0.4369170000000  0.5643750000000  0.5930530000000 1.0
C      1  0.5788050000000  0.5900210000000  0.4207930000000 1.0
C      1  0.5702100000000  0.4116560000000  0.4541950000000 1.0
C      1  0.5957330000000  0.4986460000000  0.5940110000000 1.0
C      1  0.6367950000000  0.4939130000000  0.5079580000000 1.0
C      1  0.6383630000000  0.5211700000000  0.5009340000000 1.0
C      1  0.6341260000000  0.4751430000000  0.4873520000000 1.0
C      1  0.4799950000000  0.4925730000000  0.5041950000000 1.0
END
