TITL C-3201379-3821-1454 -2.37626522810188e-05 125000 -671.953982416619 0 0 111 (C1) n - 1
REM
REM in /home/nfs/bkarasulu/CARBON/AIRSS/Generating-Clusters/LCBOP/Higher-Symm/SD-CG/FIRE-CG
REM
REM
REM
REM
REM
REM ./C.cell (b20cbc046b6831c77cfcea5457e17084)
REM AIRSS Version 0.9.1 bugfix July 2018 build 013d7b7c2542+ Fri, 06 Jul 2018 19:26:36 +0100
REM compiler GCC version 9.2.1 20190827 (Red Hat 9.2.1-1)
REM options -cpp -mtune=generic -march=x86-64 -g -O0 -fpre-include=/usr/include/finclude/math-vector-fortran.h
REM seed -1205792444 345586073 1552942545 526991241 1355386494 -804587705 -1314483203 519082072 216229394 -1723329239 1364326542 -706421467 -2093677230 -2064450011 1426073740 1616751223 720678686 353677251 -1480475739 153165496 182234762 -192131519 981113155 1410621389 -564846365 836177621 -869169544 217160933 -2051709369 1119059175 342344470 -725418471 -1276638804
REM
CELL 1.54180   50.00000   50.00000   50.00000   90.00000   90.00000   90.00000
LATT -1
SFAC C  
C      1  0.4594190000000  0.4985820000000  0.4856420000000 1.0
C      1  0.6063720000000  0.5162710000000  0.5063000000000 1.0
C      1  0.4863270000000  0.5180490000000  0.5323600000000 1.0
C      1  0.4946180000000  0.4757900000000  0.5095190000000 1.0
C      1  0.4983260000000  0.5112060000000  0.5592820000000 1.0
C      1  0.4390290000000  0.4753130000000  0.5624430000000 1.0
C      1  0.5535830000000  0.5344510000000  0.5906770000000 1.0
C      1  0.3962570000000  0.5138160000000  0.4521480000000 1.0
C      1  0.4651470000000  0.5509460000000  0.5688960000000 1.0
C      1  0.5804390000000  0.4500300000000  0.5616370000000 1.0
C      1  0.4039810000000  0.5322880000000  0.4321710000000 1.0
C      1  0.6101780000000  0.4956230000000  0.4142470000000 1.0
C      1  0.5932180000000  0.5240720000000  0.4840260000000 1.0
C      1  0.5750150000000  0.4779260000000  0.5654570000000 1.0
C      1  0.4141830000000  0.4931840000000  0.5241550000000 1.0
C      1  0.4546790000000  0.4301270000000  0.5569960000000 1.0
C      1  0.4588870000000  0.5187110000000  0.5381990000000 1.0
C      1  0.4788810000000  0.5400150000000  0.4182450000000 1.0
C      1  0.5345100000000  0.4461810000000  0.4713990000000 1.0
C      1  0.4834000000000  0.4164330000000  0.5095730000000 1.0
C      1  0.5213020000000  0.4415610000000  0.5787070000000 1.0
C      1  0.4841640000000  0.5537660000000  0.4966370000000 1.0
C      1  0.4208700000000  0.5199040000000  0.5151200000000 1.0
C      1  0.5513420000000  0.5638720000000  0.5240400000000 1.0
C      1  0.4799730000000  0.4727570000000  0.4261540000000 1.0
C      1  0.5672470000000  0.5232420000000  0.4766590000000 1.0
C      1  0.5725730000000  0.5452070000000  0.5697320000000 1.0
C      1  0.4824610000000  0.5537940000000  0.4453400000000 1.0
C      1  0.5032680000000  0.5145380000000  0.3810310000000 1.0
C      1  0.5073130000000  0.4702030000000  0.5336160000000 1.0
C      1  0.5900800000000  0.5251870000000  0.5595330000000 1.0
C      1  0.4537040000000  0.4812040000000  0.5863360000000 1.0
C      1  0.4559940000000  0.5204440000000  0.4180190000000 1.0
C      1  0.5987140000000  0.4699910000000  0.5077280000000 1.0
C      1  0.5427840000000  0.5174120000000  0.4281910000000 1.0
C      1  0.4577780000000  0.4915090000000  0.4231160000000 1.0
C      1  0.4815570000000  0.5742770000000  0.5668110000000 1.0
C      1  0.4958880000000  0.5356810000000  0.3960490000000 1.0
C      1  0.5230580000000  0.5261420000000  0.5599030000000 1.0
C      1  0.4994890000000  0.5634920000000  0.4698700000000 1.0
C      1  0.5568030000000  0.5012530000000  0.4099510000000 1.0
C      1  0.4419990000000  0.5193230000000  0.4955060000000 1.0
C      1  0.4622510000000  0.4279770000000  0.4281080000000 1.0
C      1  0.5549830000000  0.4108610000000  0.5385960000000 1.0
C      1  0.3946350000000  0.4951040000000  0.5691460000000 1.0
C      1  0.5263820000000  0.4122980000000  0.5365380000000 1.0
C      1  0.4438520000000  0.4368060000000  0.4483990000000 1.0
C      1  0.5418690000000  0.5205810000000  0.5400930000000 1.0
C      1  0.5154520000000  0.4890170000000  0.3795070000000 1.0
C      1  0.5749100000000  0.4584910000000  0.4982500000000 1.0
C      1  0.5559950000000  0.4576630000000  0.5185500000000 1.0
C      1  0.5736530000000  0.4259050000000  0.5514490000000 1.0
C      1  0.5153530000000  0.4213910000000  0.5614310000000 1.0
C      1  0.5165460000000  0.4681190000000  0.4667830000000 1.0
C      1  0.4482300000000  0.4541780000000  0.5454480000000 1.0
C      1  0.4800440000000  0.5275160000000  0.5781370000000 1.0
C      1  0.5003850000000  0.4777480000000  0.4451650000000 1.0
C      1  0.4616550000000  0.5392060000000  0.4599820000000 1.0
C      1  0.5447630000000  0.5244750000000  0.4933720000000 1.0
C      1  0.5071240000000  0.5813850000000  0.5552670000000 1.0
C      1  0.4550880000000  0.5862340000000  0.5158060000000 1.0
C      1  0.5312090000000  0.5716180000000  0.5676060000000 1.0
C      1  0.4540410000000  0.5466860000000  0.4879940000000 1.0
C      1  0.5628050000000  0.4518080000000  0.4734320000000 1.0
C      1  0.4213060000000  0.4705280000000  0.5056450000000 1.0
C      1  0.4727560000000  0.5117790000000  0.4635170000000 1.0
C      1  0.4896240000000  0.4474850000000  0.3881350000000 1.0
C      1  0.5127070000000  0.4856950000000  0.4897620000000 1.0
C      1  0.4824750000000  0.5787960000000  0.5139210000000 1.0
C      1  0.5024800000000  0.4652470000000  0.3700550000000 1.0
C      1  0.5300830000000  0.5785710000000  0.5098810000000 1.0
C      1  0.5184940000000  0.5135500000000  0.4935840000000 1.0
C      1  0.4294510000000  0.5306770000000  0.4199850000000 1.0
C      1  0.5257410000000  0.4696320000000  0.5766420000000 1.0
C      1  0.4975740000000  0.5061300000000  0.4505310000000 1.0
C      1  0.4775420000000  0.4476050000000  0.4135510000000 1.0
C      1  0.4977430000000  0.5287600000000  0.5082570000000 1.0
C      1  0.4260740000000  0.5468660000000  0.5280330000000 1.0
C      1  0.4145980000000  0.4713130000000  0.4770550000000 1.0
C      1  0.4339940000000  0.4800180000000  0.4337860000000 1.0
C      1  0.5244280000000  0.5767130000000  0.4803520000000 1.0
C      1  0.4377620000000  0.5648430000000  0.5076130000000 1.0
C      1  0.4298080000000  0.4606830000000  0.4545110000000 1.0
C      1  0.4653080000000  0.4012670000000  0.4229700000000 1.0
C      1  0.5423690000000  0.5875310000000  0.4624840000000 1.0
C      1  0.5060290000000  0.4823790000000  0.5593220000000 1.0
C      1  0.5510890000000  0.4842430000000  0.5814360000000 1.0
C      1  0.5250890000000  0.4241900000000  0.4872220000000 1.0
C      1  0.5902900000000  0.4980500000000  0.5500000000000 1.0
C      1  0.5471500000000  0.5069560000000  0.5994860000000 1.0
C      1  0.4480190000000  0.4571490000000  0.5145200000000 1.0
C      1  0.5024940000000  0.4596240000000  0.3432380000000 1.0
C      1  0.6013700000000  0.4939020000000  0.5231380000000 1.0
C      1  0.5070310000000  0.5846930000000  0.5266340000000 1.0
C      1  0.5287050000000  0.5456630000000  0.5799510000000 1.0
C      1  0.5118910000000  0.4151920000000  0.5110690000000 1.0
C      1  0.4152830000000  0.4882290000000  0.5526270000000 1.0
C      1  0.5323720000000  0.4589750000000  0.5294110000000 1.0
C      1  0.5229250000000  0.5033290000000  0.6153400000000 1.0
C      1  0.5202290000000  0.5205780000000  0.4421980000000 1.0
C      1  0.4675900000000  0.4772480000000  0.5026630000000 1.0
C      1  0.5844480000000  0.4983980000000  0.4111710000000 1.0
C      1  0.4604060000000  0.4302780000000  0.5060240000000 1.0
C      1  0.5505030000000  0.5359480000000  0.5184200000000 1.0
C      1  0.3866110000000  0.5520510000000  0.4245930000000 1.0
C      1  0.5412690000000  0.4878040000000  0.3907300000000 1.0
C      1  0.4735960000000  0.4859200000000  0.6042450000000 1.0
C      1  0.5572740000000  0.5675840000000  0.5528910000000 1.0
C      1  0.4971480000000  0.4944030000000  0.6149430000000 1.0
C      1  0.4453510000000  0.5420300000000  0.5493550000000 1.0
C      1  0.3974890000000  0.4926550000000  0.4686170000000 1.0
END
