TITL C-3201373-1215-500 -7.05450989958162e-08 125000 -456.386814342332 0 0 72 (S4) n - 1
REM
REM in /home/nfs/bkarasulu/CARBON/AIRSS/Generating-Clusters/LCBOP/Higher-Symm/SD-CG/FIRE-CG
REM
REM
REM
REM
REM
REM ./C.cell (b20cbc046b6831c77cfcea5457e17084)
REM AIRSS Version 0.9.1 bugfix July 2018 build 013d7b7c2542+ Fri, 06 Jul 2018 19:26:36 +0100
REM compiler GCC version 9.2.1 20190827 (Red Hat 9.2.1-1)
REM options -cpp -mtune=generic -march=x86-64 -g -O0 -fpre-include=/usr/include/finclude/math-vector-fortran.h
REM seed -1995292782 -479125457 1993582734 -1295039510 -1219825726 -460960069 -511164531 1806257987 -497363518 -1683035694 -223815338 882212100 -1061830377 231155698 398141835 -394181929 -1060681919 -1664615123 640019130 -1132426454 1165806793 -77199429 -915175795 -896140568 -918731799 1157509341 40135130 1891013058 959698381 -714422412 277892086 -1744195529 241419716
REM
CELL 1.54180   50.00000   50.00000   50.00000   90.00000   90.00000   90.00000
LATT -1
SFAC C  
C      1  0.4901280000000  0.5528960000000  0.4135780000000 1.0
C      1  0.5529290000000  0.5098200000000  0.5864080000000 1.0
C      1  0.5097860000000  0.4471230000000  0.4135560000000 1.0
C      1  0.4471570000000  0.4901610000000  0.5864580000000 1.0
C      1  0.5905200000000  0.4629600000000  0.4716810000000 1.0
C      1  0.4629710000000  0.4094630000000  0.5282780000000 1.0
C      1  0.4094520000000  0.5370460000000  0.4717800000000 1.0
C      1  0.5370570000000  0.5905310000000  0.5282610000000 1.0
C      1  0.4845890000000  0.5026880000000  0.4720110000000 1.0
C      1  0.5026990000000  0.5153940000000  0.5279970000000 1.0
C      1  0.5153830000000  0.4973180000000  0.4719950000000 1.0
C      1  0.4973290000000  0.4846000000000  0.5279960000000 1.0
C      1  0.5765730000000  0.4757410000000  0.4527720000000 1.0
C      1  0.4757590000000  0.4233990000000  0.5471910000000 1.0
C      1  0.4233810000000  0.5242700000000  0.4528530000000 1.0
C      1  0.5242880000000  0.5765910000000  0.5471840000000 1.0
C      1  0.4984180000000  0.4709010000000  0.5538240000000 1.0
C      1  0.4708800000000  0.5016150000000  0.4461880000000 1.0
C      1  0.5016350000000  0.5290870000000  0.5538290000000 1.0
C      1  0.5290660000000  0.4983970000000  0.4461590000000 1.0
C      1  0.4658020000000  0.4627440000000  0.4967730000000 1.0
C      1  0.4627450000000  0.5341960000000  0.5032620000000 1.0
C      1  0.5341950000000  0.5372570000000  0.4967470000000 1.0
C      1  0.5372580000000  0.4658030000000  0.5032180000000 1.0
C      1  0.5137530000000  0.5513800000000  0.4557780000000 1.0
C      1  0.5513970000000  0.4862200000000  0.5441940000000 1.0
C      1  0.4862030000000  0.4486300000000  0.4557800000000 1.0
C      1  0.4486470000000  0.5137700000000  0.5442480000000 1.0
C      1  0.5087640000000  0.5382310000000  0.4294880000000 1.0
C      1  0.5382580000000  0.4911930000000  0.5704920000000 1.0
C      1  0.4911660000000  0.4617850000000  0.4294880000000 1.0
C      1  0.4618120000000  0.5087910000000  0.5705320000000 1.0
C      1  0.5720620000000  0.5299130000000  0.5477850000000 1.0
C      1  0.5298950000000  0.4279670000000  0.4521590000000 1.0
C      1  0.4279850000000  0.4700760000000  0.5478500000000 1.0
C      1  0.4700570000000  0.5720440000000  0.4522050000000 1.0
C      1  0.4312490000000  0.4712580000000  0.5748890000000 1.0
C      1  0.4712300000000  0.5687960000000  0.4251640000000 1.0
C      1  0.5688250000000  0.5287250000000  0.5748270000000 1.0
C      1  0.5286960000000  0.4312210000000  0.4251200000000 1.0
C      1  0.5490400000000  0.5144420000000  0.5042490000000 1.0
C      1  0.5144400000000  0.4509630000000  0.4957160000000 1.0
C      1  0.4509650000000  0.4855570000000  0.5042940000000 1.0
C      1  0.4855550000000  0.5490380000000  0.4957410000000 1.0
C      1  0.4644380000000  0.5080140000000  0.4924110000000 1.0
C      1  0.5080170000000  0.5355580000000  0.5076070000000 1.0
C      1  0.5355550000000  0.4919880000000  0.4923740000000 1.0
C      1  0.4919910000000  0.4644410000000  0.5076070000000 1.0
C      1  0.4885030000000  0.4449060000000  0.5566810000000 1.0
C      1  0.4448850000000  0.5115320000000  0.4433480000000 1.0
C      1  0.5115540000000  0.5550810000000  0.5566820000000 1.0
C      1  0.5550590000000  0.4884810000000  0.4432900000000 1.0
C      1  0.5541980000000  0.4637590000000  0.5262600000000 1.0
C      1  0.4637490000000  0.4458180000000  0.4737200000000 1.0
C      1  0.4458280000000  0.5362350000000  0.5263220000000 1.0
C      1  0.5362250000000  0.5541880000000  0.4736970000000 1.0
C      1  0.4072200000000  0.5463830000000  0.4968130000000 1.0
C      1  0.5463840000000  0.5927780000000  0.5032250000000 1.0
C      1  0.5927770000000  0.4536180000000  0.4967110000000 1.0
C      1  0.4536190000000  0.4072210000000  0.5032510000000 1.0
C      1  0.4883440000000  0.4906450000000  0.4265810000000 1.0
C      1  0.4906730000000  0.5116120000000  0.5734300000000 1.0
C      1  0.5115840000000  0.5093720000000  0.4265720000000 1.0
C      1  0.5094000000000  0.4883720000000  0.5734180000000 1.0
C      1  0.4206130000000  0.5474490000000  0.5202170000000 1.0
C      1  0.5474410000000  0.5794000000000  0.4798140000000 1.0
C      1  0.5794070000000  0.4525470000000  0.5201270000000 1.0
C      1  0.4525390000000  0.4206050000000  0.4798430000000 1.0
C      1  0.5599010000000  0.5110660000000  0.5304720000000 1.0
C      1  0.5110540000000  0.4401180000000  0.4694870000000 1.0
C      1  0.4401290000000  0.4889270000000  0.5305290000000 1.0
C      1  0.4889150000000  0.5598890000000  0.4695110000000 1.0
END
