TITL C-3201373-1215-2256 -372.881938790427 125000 -425.93581070775 0 0 69 (D3h) n - 1
REM
REM in /home/nfs/bkarasulu/CARBON/AIRSS/Generating-Clusters/LCBOP/Higher-Symm/SD-CG/FIRE-CG
REM
REM
REM
REM
REM
REM ./C.cell (b20cbc046b6831c77cfcea5457e17084)
REM AIRSS Version 0.9.1 bugfix July 2018 build 013d7b7c2542+ Fri, 06 Jul 2018 19:26:36 +0100
REM compiler GCC version 9.2.1 20190827 (Red Hat 9.2.1-1)
REM options -cpp -mtune=generic -march=x86-64 -g -O0 -fpre-include=/usr/include/finclude/math-vector-fortran.h
REM seed 2089294886 1322853425 -625796687 1958925697 1663904837 -881734349 -2035941884 -970466686 -1698652560 681040278 1246271453 1611012322 -582914360 1170662260 1098943846 -1593963420 -523943087 -858682239 333845845 893304739 -256865726 1070848201 -2075269766 -1548984227 -842321334 1785141073 898547009 -721963173 1551181026 -1153929963 613228865 -1593941634 1735161620
REM
CELL 1.54180   50.00000   50.00000   50.00000   90.00000   90.00000   90.00000
LATT -1
SFAC C  
C      1  0.4731840000000  0.4756610000000  0.5142100000000 1.0
C      1  0.4731920000000  0.4998640000000  0.4718180000000 1.0
C      1  0.4731920000000  0.5244760000000  0.5139750000000 1.0
C      1  0.5242830000000  0.4756610000000  0.5142080000000 1.0
C      1  0.5242910000000  0.4998670000000  0.4718160000000 1.0
C      1  0.5242900000000  0.5244750000000  0.5139740000000 1.0
C      1  0.4731710000000  0.4757110000000  0.4857060000000 1.0
C      1  0.4731710000000  0.4997650000000  0.5281840000000 1.0
C      1  0.4731780000000  0.5245250000000  0.4861140000000 1.0
C      1  0.5243020000000  0.4757130000000  0.4857040000000 1.0
C      1  0.5243010000000  0.4997650000000  0.5281830000000 1.0
C      1  0.5243080000000  0.5245270000000  0.4861130000000 1.0
C      1  0.4726000000000  0.5156040000000  0.4270360000000 1.0
C      1  0.4726050000000  0.5553820000000  0.5500050000000 1.0
C      1  0.4725950000000  0.4290070000000  0.5229700000000 1.0
C      1  0.5248760000000  0.5156150000000  0.4270350000000 1.0
C      1  0.5248820000000  0.5553860000000  0.5499980000000 1.0
C      1  0.5248720000000  0.4290060000000  0.5229570000000 1.0
C      1  0.4726440000000  0.5157790000000  0.5729270000000 1.0
C      1  0.4726500000000  0.5552590000000  0.4498680000000 1.0
C      1  0.4726500000000  0.4289510000000  0.4772130000000 1.0
C      1  0.5248260000000  0.5157860000000  0.5729250000000 1.0
C      1  0.5248330000000  0.5552680000000  0.4498710000000 1.0
C      1  0.5248320000000  0.4289580000000  0.4771980000000 1.0
C      1  0.4846650000000  0.4988030000000  0.4454820000000 1.0
C      1  0.4846660000000  0.5478120000000  0.5262270000000 1.0
C      1  0.4846580000000  0.4533830000000  0.5282960000000 1.0
C      1  0.5128170000000  0.4988080000000  0.4454810000000 1.0
C      1  0.5128170000000  0.5478130000000  0.5262240000000 1.0
C      1  0.5128100000000  0.4533830000000  0.5282920000000 1.0
C      1  0.4846190000000  0.4986390000000  0.5545340000000 1.0
C      1  0.4846260000000  0.5479060000000  0.4739110000000 1.0
C      1  0.4846210000000  0.4534520000000  0.4715580000000 1.0
C      1  0.5128520000000  0.4986420000000  0.5545330000000 1.0
C      1  0.5128580000000  0.5479090000000  0.4739120000000 1.0
C      1  0.5128540000000  0.4534560000000  0.4715540000000 1.0
C      1  0.4296320000000  0.5511360000000  0.4729010000000 1.0
C      1  0.4296230000000  0.4979020000000  0.5578360000000 1.0
C      1  0.4296290000000  0.4509530000000  0.4692620000000 1.0
C      1  0.5678540000000  0.5511390000000  0.4728980000000 1.0
C      1  0.5678440000000  0.4978970000000  0.5578420000000 1.0
C      1  0.5678500000000  0.4509680000000  0.4692600000000 1.0
C      1  0.4296130000000  0.5512100000000  0.5270110000000 1.0
C      1  0.4296090000000  0.4977810000000  0.4421500000000 1.0
C      1  0.4296010000000  0.4510070000000  0.5308410000000 1.0
C      1  0.5678740000000  0.5512020000000  0.5270090000000 1.0
C      1  0.5678700000000  0.4977930000000  0.4421430000000 1.0
C      1  0.5678630000000  0.4510050000000  0.5308420000000 1.0
C      1  0.4450980000000  0.4326420000000  0.5147190000000 1.0
C      1  0.4451030000000  0.5209280000000  0.4343100000000 1.0
C      1  0.4451060000000  0.5464240000000  0.5509780000000 1.0
C      1  0.5523700000000  0.4326440000000  0.5147120000000 1.0
C      1  0.5523740000000  0.5209400000000  0.4343050000000 1.0
C      1  0.5523780000000  0.5464220000000  0.5509740000000 1.0
C      1  0.4451130000000  0.4326330000000  0.4854410000000 1.0
C      1  0.4451100000000  0.5210690000000  0.5656190000000 1.0
C      1  0.4451150000000  0.5462870000000  0.4489450000000 1.0
C      1  0.5523650000000  0.4326430000000  0.4854330000000 1.0
C      1  0.5523620000000  0.5210690000000  0.5656200000000 1.0
C      1  0.5523670000000  0.5462970000000  0.4489430000000 1.0
C      1  0.5714370000000  0.4737550000000  0.4546230000000 1.0
C      1  0.4260430000000  0.4737400000000  0.4546270000000 1.0
C      1  0.4260470000000  0.5524200000000  0.4999530000000 1.0
C      1  0.4260340000000  0.4738350000000  0.5454180000000 1.0
C      1  0.5714290000000  0.4738290000000  0.5454240000000 1.0
C      1  0.5714410000000  0.5524160000000  0.4999500000000 1.0
C      1  0.4987380000000  0.5416760000000  0.5731620000000 1.0
C      1  0.4987380000000  0.5425210000000  0.4273270000000 1.0
C      1  0.4987380000000  0.4158030000000  0.4995110000000 1.0
END
