TITL C-3201373-1215-1327 -5.58194213367705e-07 125000 -241.051402008975 0 0 41 (Td) n - 1
REM
REM in /home/nfs/bkarasulu/CARBON/AIRSS/Generating-Clusters/LCBOP/Higher-Symm/SD-CG/FIRE-CG
REM
REM
REM
REM
REM
REM ./C.cell (b20cbc046b6831c77cfcea5457e17084)
REM AIRSS Version 0.9.1 bugfix July 2018 build 013d7b7c2542+ Fri, 06 Jul 2018 19:26:36 +0100
REM compiler GCC version 9.2.1 20190827 (Red Hat 9.2.1-1)
REM options -cpp -mtune=generic -march=x86-64 -g -O0 -fpre-include=/usr/include/finclude/math-vector-fortran.h
REM seed -638389600 -1584374784 762771175 726207138 -791919561 236272895 -585954895 -1653974979 467327686 1371222410 99419123 -91251814 861868684 1329611876 -549833136 -1566592910 -138080565 630957364 1320035980 -1001618742 -1007480158 1412319037 -1169704319 42440780 -1215145130 -927052608 1050076157 -951054893 57656995 -158756528 1338539699 1923463481 -2086962405
REM
CELL 1.54180   50.00000   50.00000   50.00000   90.00000   90.00000   90.00000
LATT -1
SFAC C  
C      1  0.5096720000000  0.4718170000000  0.4388910000000 1.0
C      1  0.4395050000000  0.5080050000000  0.4728580000000 1.0
C      1  0.4734810000000  0.4378460000000  0.5090550000000 1.0
C      1  0.4925200000000  0.5270370000000  0.4388840000000 1.0
C      1  0.4925090000000  0.4718300000000  0.5620650000000 1.0
C      1  0.5096600000000  0.5270500000000  0.5620600000000 1.0
C      1  0.5626810000000  0.4908560000000  0.4728720000000 1.0
C      1  0.5626750000000  0.5080130000000  0.5280890000000 1.0
C      1  0.4395000000000  0.4908600000000  0.5280800000000 1.0
C      1  0.5286980000000  0.5610230000000  0.5090460000000 1.0
C      1  0.5287020000000  0.4378460000000  0.4919080000000 1.0
C      1  0.4734800000000  0.5610200000000  0.4918900000000 1.0
C      1  0.5096620000000  0.5610240000000  0.5280790000000 1.0
C      1  0.5286940000000  0.5080170000000  0.5620640000000 1.0
C      1  0.5626770000000  0.5270460000000  0.5090530000000 1.0
C      1  0.4925130000000  0.4378490000000  0.5280910000000 1.0
C      1  0.4925160000000  0.5610180000000  0.4728580000000 1.0
C      1  0.5096700000000  0.4378430000000  0.4728720000000 1.0
C      1  0.4734750000000  0.4908640000000  0.5620610000000 1.0
C      1  0.4734860000000  0.5080020000000  0.4388840000000 1.0
C      1  0.5287060000000  0.4908520000000  0.4388910000000 1.0
C      1  0.4395020000000  0.4718240000000  0.5090480000000 1.0
C      1  0.4395030000000  0.5270410000000  0.4918910000000 1.0
C      1  0.5626790000000  0.4718240000000  0.4919080000000 1.0
C      1  0.4624210000000  0.5030740000000  0.5391370000000 1.0
C      1  0.5397560000000  0.4607690000000  0.5041190000000 1.0
C      1  0.5047300000000  0.5380950000000  0.4618050000000 1.0
C      1  0.5397530000000  0.4958020000000  0.5391450000000 1.0
C      1  0.5397600000000  0.5030670000000  0.4618120000000 1.0
C      1  0.4624280000000  0.4957920000000  0.4618060000000 1.0
C      1  0.4624240000000  0.5380990000000  0.5041040000000 1.0
C      1  0.4624260000000  0.4607670000000  0.4968390000000 1.0
C      1  0.5397560000000  0.5381000000000  0.4968380000000 1.0
C      1  0.4974580000000  0.4607640000000  0.4618130000000 1.0
C      1  0.4974490000000  0.5381030000000  0.5391360000000 1.0
C      1  0.5047240000000  0.4607720000000  0.5391450000000 1.0
C      1  0.4801690000000  0.5203540000000  0.5213890000000 1.0
C      1  0.5220070000000  0.4785180000000  0.5213980000000 1.0
C      1  0.5220100000000  0.5203500000000  0.4795560000000 1.0
C      1  0.4801740000000  0.4785120000000  0.4795570000000 1.0
C      1  0.5010900000000  0.4994340000000  0.5004750000000 1.0
END
