TITL C-3201378-2706-732 -3.78734012514109e-07 125000 -538.308161584768 0 0 89 (C1) n - 1
REM
REM in /home/nfs/bkarasulu/CARBON/AIRSS/Generating-Clusters/LCBOP/Higher-Symm/SD-CG/FIRE-CG
REM
REM
REM
REM
REM
REM ./C.cell (b20cbc046b6831c77cfcea5457e17084)
REM AIRSS Version 0.9.1 bugfix July 2018 build 013d7b7c2542+ Fri, 06 Jul 2018 19:26:36 +0100
REM compiler GCC version 9.2.1 20190827 (Red Hat 9.2.1-1)
REM options -cpp -mtune=generic -march=x86-64 -g -O0 -fpre-include=/usr/include/finclude/math-vector-fortran.h
REM seed -471933749 -1491846118 -66252184 551350612 264321890 -257166043 482540640 -528928396 1534457668 206159220 -2043411622 124108105 1934023813 -1248700493 -248348285 1472152637 279866446 245954738 221163424 -869640611 232258805 1744664261 -918614608 -768640404 1589833636 -685440033 -10967050 -1509108773 -62325908 522662623 642861025 -2033069457 623279377
REM
CELL 1.54180   50.00000   50.00000   50.00000   90.00000   90.00000   90.00000
LATT -1
SFAC C  
C      1  0.5563360000000  0.5438830000000  0.4737600000000 1.0
C      1  0.5445990000000  0.6142540000000  0.5206750000000 1.0
C      1  0.5176360000000  0.4432590000000  0.5621910000000 1.0
C      1  0.4991690000000  0.4217390000000  0.4321590000000 1.0
C      1  0.3867470000000  0.4281210000000  0.5630310000000 1.0
C      1  0.6017440000000  0.4576770000000  0.4083910000000 1.0
C      1  0.4664150000000  0.5464760000000  0.5459470000000 1.0
C      1  0.5069860000000  0.5355480000000  0.4692820000000 1.0
C      1  0.4921840000000  0.4809730000000  0.5732900000000 1.0
C      1  0.4970900000000  0.4699970000000  0.4270340000000 1.0
C      1  0.5436900000000  0.4525830000000  0.5564360000000 1.0
C      1  0.4740140000000  0.4136990000000  0.4431970000000 1.0
C      1  0.5027230000000  0.5637400000000  0.4646410000000 1.0
C      1  0.4627180000000  0.5698870000000  0.5625120000000 1.0
C      1  0.5329830000000  0.4169640000000  0.4708730000000 1.0
C      1  0.4877860000000  0.4326380000000  0.5171790000000 1.0
C      1  0.5101500000000  0.5732150000000  0.4391290000000 1.0
C      1  0.4430340000000  0.5679020000000  0.5830320000000 1.0
C      1  0.4061530000000  0.4455000000000  0.5623180000000 1.0
C      1  0.5818650000000  0.4700090000000  0.4198720000000 1.0
C      1  0.5108540000000  0.5398730000000  0.5892300000000 1.0
C      1  0.4723390000000  0.5238920000000  0.4167520000000 1.0
C      1  0.4633650000000  0.5758760000000  0.4901500000000 1.0
C      1  0.5116630000000  0.5770600000000  0.5602240000000 1.0
C      1  0.4245950000000  0.4937590000000  0.6014610000000 1.0
C      1  0.5443590000000  0.5220330000000  0.4054810000000 1.0
C      1  0.4848010000000  0.5179370000000  0.4637660000000 1.0
C      1  0.4937050000000  0.5379500000000  0.5410630000000 1.0
C      1  0.4741440000000  0.4997200000000  0.5176780000000 1.0
C      1  0.5256200000000  0.4839360000000  0.4948970000000 1.0
C      1  0.5025750000000  0.4483400000000  0.6087510000000 1.0
C      1  0.5015120000000  0.4414160000000  0.3875990000000 1.0
C      1  0.4994670000000  0.4443430000000  0.4146770000000 1.0
C      1  0.5039000000000  0.4569650000000  0.5830060000000 1.0
C      1  0.4413820000000  0.5372360000000  0.4521100000000 1.0
C      1  0.5404710000000  0.5286580000000  0.5538300000000 1.0
C      1  0.4270740000000  0.4638790000000  0.5608520000000 1.0
C      1  0.5603870000000  0.4826040000000  0.4324930000000 1.0
C      1  0.5169780000000  0.4022210000000  0.4890100000000 1.0
C      1  0.4946710000000  0.4102120000000  0.5016890000000 1.0
C      1  0.4351590000000  0.4235360000000  0.4755950000000 1.0
C      1  0.5732190000000  0.4758280000000  0.5259880000000 1.0
C      1  0.5799340000000  0.4665010000000  0.5014450000000 1.0
C      1  0.4287440000000  0.4354710000000  0.4991140000000 1.0
C      1  0.4654150000000  0.4875980000000  0.5800970000000 1.0
C      1  0.5117820000000  0.4920970000000  0.4178650000000 1.0
C      1  0.4536990000000  0.5266230000000  0.3969600000000 1.0
C      1  0.5069850000000  0.5352530000000  0.6145630000000 1.0
C      1  0.4779590000000  0.4804630000000  0.4974230000000 1.0
C      1  0.5259380000000  0.4569520000000  0.4967140000000 1.0
C      1  0.5080480000000  0.4943940000000  0.5527470000000 1.0
C      1  0.4782020000000  0.4727800000000  0.4483450000000 1.0
C      1  0.4859670000000  0.5864560000000  0.5633180000000 1.0
C      1  0.4893810000000  0.5806530000000  0.4831300000000 1.0
C      1  0.4345810000000  0.5207260000000  0.5965320000000 1.0
C      1  0.5198470000000  0.5372400000000  0.4052860000000 1.0
C      1  0.5407680000000  0.4957630000000  0.4171790000000 1.0
C      1  0.4394370000000  0.4737960000000  0.5847170000000 1.0
C      1  0.4991030000000  0.5173310000000  0.4107360000000 1.0
C      1  0.4553710000000  0.5144680000000  0.5772090000000 1.0
C      1  0.5664420000000  0.4594000000000  0.4771520000000 1.0
C      1  0.4434480000000  0.4533520000000  0.5152910000000 1.0
C      1  0.4714190000000  0.4542180000000  0.5076540000000 1.0
C      1  0.5441760000000  0.4408580000000  0.4812790000000 1.0
C      1  0.5339810000000  0.5262750000000  0.4725610000000 1.0
C      1  0.4504200000000  0.5228230000000  0.5505210000000 1.0
C      1  0.5581680000000  0.4821740000000  0.4607400000000 1.0
C      1  0.4364940000000  0.4734870000000  0.5352190000000 1.0
C      1  0.5697340000000  0.5515410000000  0.4504500000000 1.0
C      1  0.5211360000000  0.6157390000000  0.5080960000000 1.0
C      1  0.5009620000000  0.4334140000000  0.5419830000000 1.0
C      1  0.5237290000000  0.4151640000000  0.4443580000000 1.0
C      1  0.4488360000000  0.5003150000000  0.5318080000000 1.0
C      1  0.5393800000000  0.4987880000000  0.4751750000000 1.0
C      1  0.5165440000000  0.5472170000000  0.5599990000000 1.0
C      1  0.4655960000000  0.5271890000000  0.4443240000000 1.0
C      1  0.5169380000000  0.5631580000000  0.4152100000000 1.0
C      1  0.4307830000000  0.5486110000000  0.5979570000000 1.0
C      1  0.5643450000000  0.5966680000000  0.5244410000000 1.0
C      1  0.5660710000000  0.5531730000000  0.4982940000000 1.0
C      1  0.5027130000000  0.6027280000000  0.4940450000000 1.0
C      1  0.5852760000000  0.5609170000000  0.4317410000000 1.0
C      1  0.4553510000000  0.4564670000000  0.4478130000000 1.0
C      1  0.5367310000000  0.4999190000000  0.5524870000000 1.0
C      1  0.5536510000000  0.4774150000000  0.5464630000000 1.0
C      1  0.4527340000000  0.4290300000000  0.4541640000000 1.0
C      1  0.4949460000000  0.5104840000000  0.5332390000000 1.0
C      1  0.4817940000000  0.4901050000000  0.4706730000000 1.0
C      1  0.5713760000000  0.5724060000000  0.5158770000000 1.0
END
