TITL C-3201375-1262-655 -230842.454045385 125000 -913.006395015884 0 0 156 (C6h) n - 1
REM
REM in /home/nfs/bkarasulu/CARBON/AIRSS/Generating-Clusters/LCBOP/Higher-Symm/SD-CG/FIRE-CG
REM
REM
REM
REM
REM
REM ./C.cell (b20cbc046b6831c77cfcea5457e17084)
REM AIRSS Version 0.9.1 bugfix July 2018 build 013d7b7c2542+ Fri, 06 Jul 2018 19:26:36 +0100
REM compiler GCC version 9.2.1 20190827 (Red Hat 9.2.1-1)
REM options -cpp -mtune=generic -march=x86-64 -g -O0 -fpre-include=/usr/include/finclude/math-vector-fortran.h
REM seed -1079065045 -1654355202 -1425483859 -2129011999 -919507172 1132063818 59010544 1885791102 1813706884 -557094986 -204868388 1099970273 -1891391694 -1953771854 142218978 795888703 778615181 1965328580 177918553 -505263377 92001385 -1213770079 -660117903 -1312287013 454115742 -941754810 1900638132 1165476359 1013965596 -1948228194 -1577359372 646344408 -1059416578
REM
CELL 1.54180   50.00000   50.00000   50.00000   90.00000   90.00000   90.00000
LATT -1
SFAC C  
C      1  0.5246560000000  0.4880960000000  0.4057650000000 1.0
C      1  0.5246570000000  0.4124380000000  0.4631920000000 1.0
C      1  0.5246560000000  0.4243430000000  0.5574270000000 1.0
C      1  0.5246560000000  0.5119050000000  0.5942350000000 1.0
C      1  0.5246560000000  0.5875620000000  0.5368080000000 1.0
C      1  0.5246570000000  0.5756570000000  0.4425730000000 1.0
C      1  0.4753430000000  0.4880950000000  0.4057650000000 1.0
C      1  0.4753440000000  0.4124380000000  0.4631920000000 1.0
C      1  0.4753430000000  0.4243430000000  0.5574270000000 1.0
C      1  0.4753430000000  0.5119050000000  0.5942350000000 1.0
C      1  0.4753430000000  0.5875620000000  0.5368070000000 1.0
C      1  0.4753440000000  0.5756570000000  0.4425730000000 1.0
C      1  0.4849870000000  0.5840590000000  0.5648830000000 1.0
C      1  0.4849880000000  0.5982200000000  0.4596440000000 1.0
C      1  0.4849870000000  0.5141610000000  0.3947610000000 1.0
C      1  0.4849880000000  0.4159410000000  0.4351170000000 1.0
C      1  0.4849880000000  0.4017800000000  0.5403560000000 1.0
C      1  0.4849870000000  0.4858390000000  0.6052390000000 1.0
C      1  0.5150120000000  0.5840590000000  0.5648830000000 1.0
C      1  0.5150130000000  0.5982200000000  0.4596440000000 1.0
C      1  0.5150120000000  0.5141610000000  0.3947610000000 1.0
C      1  0.5150130000000  0.4159410000000  0.4351170000000 1.0
C      1  0.5150130000000  0.4017800000000  0.5403560000000 1.0
C      1  0.5150120000000  0.4858390000000  0.6052390000000 1.0
C      1  0.4423170000000  0.5549610000000  0.5204120000000 1.0
C      1  0.4423170000000  0.5451580000000  0.4626090000000 1.0
C      1  0.4423170000000  0.4901970000000  0.4421960000000 1.0
C      1  0.4423170000000  0.4450390000000  0.4795880000000 1.0
C      1  0.4423170000000  0.4548420000000  0.5373910000000 1.0
C      1  0.4423170000000  0.5098020000000  0.5578030000000 1.0
C      1  0.5576830000000  0.5549610000000  0.5204130000000 1.0
C      1  0.5576830000000  0.5451580000000  0.4626080000000 1.0
C      1  0.5576830000000  0.4901970000000  0.4421960000000 1.0
C      1  0.5576830000000  0.4450400000000  0.4795880000000 1.0
C      1  0.5576830000000  0.4548430000000  0.5373920000000 1.0
C      1  0.5576830000000  0.5098030000000  0.5578040000000 1.0
C      1  0.3933540000000  0.5063510000000  0.4662790000000 1.0
C      1  0.3933540000000  0.4739720000000  0.4776400000000 1.0
C      1  0.3933540000000  0.4676210000000  0.5113610000000 1.0
C      1  0.3933550000000  0.4936500000000  0.5337230000000 1.0
C      1  0.3933550000000  0.5260290000000  0.5223620000000 1.0
C      1  0.3933540000000  0.5323790000000  0.4886400000000 1.0
C      1  0.6066460000000  0.5063500000000  0.4662790000000 1.0
C      1  0.6066460000000  0.4739710000000  0.4776400000000 1.0
C      1  0.6066450000000  0.4676200000000  0.5113610000000 1.0
C      1  0.6066460000000  0.4936480000000  0.5337210000000 1.0
C      1  0.6066460000000  0.5260280000000  0.5223600000000 1.0
C      1  0.6066450000000  0.5323790000000  0.4886390000000 1.0
C      1  0.5223470000000  0.4799030000000  0.4817870000000 1.0
C      1  0.5223480000000  0.4741790000000  0.5082980000000 1.0
C      1  0.5223480000000  0.4942750000000  0.5265110000000 1.0
C      1  0.5223480000000  0.5200970000000  0.5182130000000 1.0
C      1  0.5223480000000  0.5258210000000  0.4917020000000 1.0
C      1  0.5223480000000  0.5057250000000  0.4734890000000 1.0
C      1  0.4776520000000  0.4799030000000  0.4817870000000 1.0
C      1  0.4776530000000  0.4741790000000  0.5082980000000 1.0
C      1  0.4776530000000  0.4942750000000  0.5265110000000 1.0
C      1  0.4776530000000  0.5200970000000  0.5182130000000 1.0
C      1  0.4776530000000  0.5258210000000  0.4917020000000 1.0
C      1  0.4776530000000  0.5057250000000  0.4734890000000 1.0
C      1  0.5678600000000  0.5318490000000  0.4192190000000 1.0
C      1  0.5678610000000  0.4459670000000  0.4320280000000 1.0
C      1  0.5678600000000  0.4141170000000  0.5128070000000 1.0
C      1  0.5678590000000  0.4681500000000  0.5807810000000 1.0
C      1  0.5678600000000  0.5540330000000  0.5679730000000 1.0
C      1  0.5678610000000  0.5858820000000  0.4871930000000 1.0
C      1  0.4321400000000  0.5318500000000  0.4192200000000 1.0
C      1  0.4321410000000  0.4459670000000  0.4320260000000 1.0
C      1  0.4321400000000  0.4141170000000  0.5128080000000 1.0
C      1  0.4321400000000  0.4681500000000  0.5807800000000 1.0
C      1  0.4321390000000  0.5540330000000  0.5679720000000 1.0
C      1  0.4321400000000  0.5858830000000  0.4871920000000 1.0
C      1  0.4052280000000  0.5124990000000  0.4346000000000 1.0
C      1  0.4052280000000  0.4496110000000  0.4564760000000 1.0
C      1  0.4052290000000  0.4371120000000  0.5218760000000 1.0
C      1  0.4052290000000  0.4875010000000  0.5654010000000 1.0
C      1  0.4052310000000  0.5503900000000  0.5435260000000 1.0
C      1  0.4052280000000  0.5628880000000  0.4781240000000 1.0
C      1  0.5947720000000  0.5124990000000  0.4346000000000 1.0
C      1  0.5947710000000  0.4496110000000  0.4564750000000 1.0
C      1  0.5947710000000  0.4371120000000  0.5218760000000 1.0
C      1  0.5947720000000  0.4875010000000  0.5654000000000 1.0
C      1  0.5947710000000  0.5503880000000  0.5435250000000 1.0
C      1  0.5947700000000  0.5628880000000  0.4781240000000 1.0
C      1  0.5323940000000  0.4006520000000  0.5144720000000 1.0
C      1  0.5323930000000  0.4628590000000  0.5932750000000 1.0
C      1  0.5323940000000  0.5622070000000  0.5788030000000 1.0
C      1  0.5323950000000  0.5993480000000  0.4855280000000 1.0
C      1  0.5323940000000  0.5371420000000  0.4067250000000 1.0
C      1  0.5323940000000  0.4377930000000  0.4211970000000 1.0
C      1  0.4676060000000  0.4006510000000  0.5144720000000 1.0
C      1  0.4676050000000  0.4628590000000  0.5932740000000 1.0
C      1  0.4676040000000  0.5622070000000  0.5788020000000 1.0
C      1  0.4676070000000  0.5993490000000  0.4855280000000 1.0
C      1  0.4676060000000  0.5371410000000  0.4067260000000 1.0
C      1  0.4676060000000  0.4377930000000  0.4211970000000 1.0
C      1  0.5151550000000  0.5401040000000  0.5926090000000 1.0
C      1  0.5151560000000  0.6002530000000  0.5115740000000 1.0
C      1  0.5151560000000  0.5601500000000  0.4189640000000 1.0
C      1  0.5151560000000  0.4598970000000  0.4073910000000 1.0
C      1  0.5151560000000  0.3997470000000  0.4884260000000 1.0
C      1  0.5151560000000  0.4398500000000  0.5810350000000 1.0
C      1  0.4848430000000  0.5401040000000  0.5926090000000 1.0
C      1  0.4848440000000  0.6002540000000  0.5115740000000 1.0
C      1  0.4848440000000  0.5601500000000  0.4189650000000 1.0
C      1  0.4848440000000  0.4598970000000  0.4073910000000 1.0
C      1  0.4848440000000  0.3997460000000  0.4884260000000 1.0
C      1  0.4848440000000  0.4398500000000  0.5810350000000 1.0
C      1  0.4669860000000  0.5027610000000  0.5686790000000 1.0
C      1  0.4669870000000  0.5608580000000  0.5319470000000 1.0
C      1  0.4669870000000  0.5580970000000  0.4632690000000 1.0
C      1  0.4669860000000  0.4972390000000  0.4313210000000 1.0
C      1  0.4669870000000  0.4391420000000  0.4680520000000 1.0
C      1  0.4669860000000  0.4419030000000  0.5367300000000 1.0
C      1  0.5330130000000  0.5027610000000  0.5686790000000 1.0
C      1  0.5330140000000  0.5608580000000  0.5319490000000 1.0
C      1  0.5330140000000  0.5580970000000  0.4632690000000 1.0
C      1  0.5330140000000  0.4972390000000  0.4313210000000 1.0
C      1  0.5330130000000  0.4391420000000  0.4680520000000 1.0
C      1  0.5330130000000  0.4419030000000  0.5367310000000 1.0
C      1  0.5690230000000  0.5798510000000  0.5134870000000 1.0
C      1  0.5690220000000  0.5516050000000  0.4375890000000 1.0
C      1  0.5690230000000  0.4717540000000  0.4241030000000 1.0
C      1  0.5690230000000  0.4201490000000  0.4865130000000 1.0
C      1  0.5690220000000  0.4483950000000  0.5624110000000 1.0
C      1  0.5690220000000  0.5282460000000  0.5758970000000 1.0
C      1  0.4309780000000  0.5798520000000  0.5134860000000 1.0
C      1  0.4309780000000  0.5516060000000  0.4375900000000 1.0
C      1  0.4309780000000  0.4717540000000  0.4241030000000 1.0
C      1  0.4309770000000  0.4201480000000  0.4865130000000 1.0
C      1  0.4309770000000  0.4483940000000  0.5624100000000 1.0
C      1  0.4309770000000  0.5282450000000  0.5758970000000 1.0
C      1  0.5139150000000  0.5412740000000  0.5343060000000 1.0
C      1  0.5139150000000  0.5503470000000  0.4814080000000 1.0
C      1  0.5139150000000  0.5090730000000  0.4471020000000 1.0
C      1  0.5139140000000  0.4587260000000  0.4656940000000 1.0
C      1  0.5139140000000  0.4496530000000  0.5185910000000 1.0
C      1  0.5139150000000  0.4909270000000  0.5528980000000 1.0
C      1  0.4860860000000  0.5412740000000  0.5343060000000 1.0
C      1  0.4860860000000  0.5503470000000  0.4814090000000 1.0
C      1  0.4860860000000  0.5090730000000  0.4471020000000 1.0
C      1  0.4860850000000  0.4587260000000  0.4656940000000 1.0
C      1  0.4860850000000  0.4496530000000  0.5185910000000 1.0
C      1  0.4860860000000  0.4909270000000  0.5528980000000 1.0
C      1  0.4358660000000  0.4949070000000  0.4705330000000 1.0
C      1  0.4358650000000  0.4719340000000  0.4896770000000 1.0
C      1  0.4358650000000  0.4770270000000  0.5191440000000 1.0
C      1  0.4358660000000  0.5050930000000  0.5294660000000 1.0
C      1  0.4358660000000  0.5280650000000  0.5103220000000 1.0
C      1  0.4358660000000  0.5229720000000  0.4808560000000 1.0
C      1  0.5641350000000  0.4949070000000  0.4705330000000 1.0
C      1  0.5641340000000  0.4719350000000  0.4896780000000 1.0
C      1  0.5641340000000  0.4770280000000  0.5191440000000 1.0
C      1  0.5641350000000  0.5050930000000  0.5294670000000 1.0
C      1  0.5641350000000  0.5280660000000  0.5103230000000 1.0
C      1  0.5641350000000  0.5229720000000  0.4808560000000 1.0
END
