TITL C-3201376-6384-546 -3.69940074444257e-07 125000 -935.675352256624 0 0 150 (C1) n - 1
REM
REM in /home/nfs/bkarasulu/CARBON/AIRSS/Generating-Clusters/LCBOP/Higher-Symm/SD-CG/FIRE-CG
REM
REM
REM
REM
REM
REM ./C.cell (b20cbc046b6831c77cfcea5457e17084)
REM AIRSS Version 0.9.1 bugfix July 2018 build 013d7b7c2542+ Fri, 06 Jul 2018 19:26:36 +0100
REM compiler GCC version 9.2.1 20190827 (Red Hat 9.2.1-1)
REM options -cpp -mtune=generic -march=x86-64 -g -O0 -fpre-include=/usr/include/finclude/math-vector-fortran.h
REM seed -1006189349 -326406275 -1990658987 558619706 1574254886 -2133735012 99331910 1149489817 -142145262 -1328739011 584813293 -947591738 1571443980 569110728 2066973877 -1425131819 1391297608 1886656892 -357702294 -158885876 -1213945010 -1996908601 -1019553261 624658038 1744857693 1452359026 736483061 1467632805 -604043312 -523971049 -476497118 279347114 -505238362
REM
CELL 1.54180   50.00000   50.00000   50.00000   90.00000   90.00000   90.00000
LATT -1
SFAC C  
C      1  0.5094050000000  0.5656130000000  0.5756440000000 1.0
C      1  0.4903790000000  0.5645920000000  0.4260880000000 1.0
C      1  0.5143210000000  0.4288160000000  0.5776380000000 1.0
C      1  0.4855720000000  0.4272350000000  0.4210610000000 1.0
C      1  0.6085760000000  0.5644860000000  0.4509440000000 1.0
C      1  0.3902270000000  0.5674290000000  0.5519290000000 1.0
C      1  0.6108710000000  0.4384330000000  0.4485240000000 1.0
C      1  0.3895010000000  0.4458400000000  0.5386440000000 1.0
C      1  0.6182120000000  0.5411910000000  0.4406930000000 1.0
C      1  0.3806350000000  0.5442290000000  0.5623670000000 1.0
C      1  0.6202970000000  0.4622490000000  0.4396840000000 1.0
C      1  0.3897770000000  0.4744880000000  0.5395270000000 1.0
C      1  0.4086300000000  0.4700010000000  0.4576270000000 1.0
C      1  0.5926480000000  0.4723350000000  0.5434890000000 1.0
C      1  0.4081900000000  0.5299020000000  0.4557080000000 1.0
C      1  0.5901500000000  0.5321580000000  0.5452760000000 1.0
C      1  0.5697400000000  0.5283980000000  0.4483430000000 1.0
C      1  0.4281000000000  0.5287860000000  0.5516040000000 1.0
C      1  0.5708890000000  0.4738170000000  0.4502760000000 1.0
C      1  0.4344650000000  0.4748310000000  0.5530220000000 1.0
C      1  0.3766220000000  0.4936290000000  0.5566600000000 1.0
C      1  0.6168930000000  0.4882670000000  0.4317940000000 1.0
C      1  0.3877780000000  0.5172430000000  0.5692090000000 1.0
C      1  0.6162090000000  0.5151920000000  0.4317300000000 1.0
C      1  0.5042740000000  0.5325700000000  0.5301440000000 1.0
C      1  0.4994980000000  0.5317390000000  0.4713630000000 1.0
C      1  0.4967860000000  0.4703780000000  0.5343660000000 1.0
C      1  0.5008270000000  0.4691520000000  0.4645020000000 1.0
C      1  0.5457890000000  0.4147470000000  0.5423460000000 1.0
C      1  0.4543270000000  0.4124420000000  0.4563120000000 1.0
C      1  0.5456870000000  0.5892700000000  0.5484720000000 1.0
C      1  0.4540160000000  0.5872520000000  0.4537430000000 1.0
C      1  0.5864780000000  0.4867400000000  0.5680600000000 1.0
C      1  0.4135570000000  0.4848030000000  0.4329260000000 1.0
C      1  0.5855880000000  0.5156940000000  0.5694500000000 1.0
C      1  0.4140760000000  0.5137310000000  0.4317370000000 1.0
C      1  0.5425830000000  0.5150320000000  0.5008210000000 1.0
C      1  0.4534960000000  0.5164540000000  0.4967370000000 1.0
C      1  0.5462030000000  0.4862210000000  0.5045180000000 1.0
C      1  0.4558780000000  0.4875990000000  0.5020080000000 1.0
C      1  0.4479160000000  0.5477120000000  0.5479880000000 1.0
C      1  0.5515870000000  0.5490590000000  0.4520690000000 1.0
C      1  0.4507070000000  0.4537260000000  0.5442500000000 1.0
C      1  0.5523240000000  0.4540280000000  0.4568300000000 1.0
C      1  0.4751980000000  0.5165880000000  0.3868180000000 1.0
C      1  0.5242240000000  0.5174170000000  0.6139340000000 1.0
C      1  0.4543620000000  0.4626460000000  0.3741080000000 1.0
C      1  0.5449550000000  0.4631450000000  0.6255200000000 1.0
C      1  0.5773980000000  0.4869500000000  0.4266050000000 1.0
C      1  0.4295500000000  0.4894010000000  0.5771690000000 1.0
C      1  0.5769210000000  0.5140110000000  0.4258080000000 1.0
C      1  0.4168090000000  0.5147960000000  0.5741050000000 1.0
C      1  0.5577760000000  0.5941860000000  0.5204280000000 1.0
C      1  0.4419330000000  0.5919670000000  0.4815600000000 1.0
C      1  0.5593520000000  0.4094450000000  0.5158620000000 1.0
C      1  0.4409090000000  0.4068980000000  0.4828810000000 1.0
C      1  0.4266240000000  0.5242660000000  0.5012400000000 1.0
C      1  0.5701950000000  0.5257390000000  0.4989770000000 1.0
C      1  0.4281200000000  0.4775680000000  0.5030850000000 1.0
C      1  0.5732930000000  0.4788090000000  0.4995810000000 1.0
C      1  0.4819220000000  0.4116960000000  0.4459840000000 1.0
C      1  0.5182250000000  0.4131920000000  0.5528470000000 1.0
C      1  0.4834870000000  0.5856750000000  0.4463740000000 1.0
C      1  0.5161940000000  0.5866930000000  0.5553130000000 1.0
C      1  0.4981920000000  0.4187490000000  0.5324210000000 1.0
C      1  0.5013010000000  0.4181100000000  0.4667680000000 1.0
C      1  0.5002020000000  0.5836380000000  0.5310650000000 1.0
C      1  0.5003660000000  0.5834030000000  0.4701600000000 1.0
C      1  0.5168390000000  0.5243320000000  0.5539090000000 1.0
C      1  0.4860960000000  0.5229930000000  0.4478860000000 1.0
C      1  0.5058040000000  0.4772130000000  0.5612240000000 1.0
C      1  0.4931390000000  0.4757350000000  0.4375020000000 1.0
C      1  0.5807690000000  0.4875970000000  0.4733310000000 1.0
C      1  0.4165010000000  0.4852500000000  0.5302690000000 1.0
C      1  0.5792660000000  0.5167140000000  0.4727090000000 1.0
C      1  0.4186750000000  0.5160770000000  0.5276960000000 1.0
C      1  0.5227120000000  0.5991250000000  0.4807920000000 1.0
C      1  0.4773090000000  0.5982500000000  0.5203780000000 1.0
C      1  0.5244590000000  0.4042760000000  0.4772680000000 1.0
C      1  0.4753000000000  0.4039390000000  0.5223130000000 1.0
C      1  0.4706630000000  0.4449360000000  0.4954400000000 1.0
C      1  0.5275910000000  0.4461520000000  0.5036260000000 1.0
C      1  0.4703440000000  0.5573160000000  0.5009090000000 1.0
C      1  0.5317640000000  0.5590200000000  0.5001900000000 1.0
C      1  0.4585820000000  0.4457180000000  0.5196590000000 1.0
C      1  0.5409130000000  0.4469250000000  0.4801600000000 1.0
C      1  0.4597390000000  0.5559730000000  0.5255430000000 1.0
C      1  0.5414720000000  0.5579730000000  0.4751380000000 1.0
C      1  0.4480780000000  0.4024500000000  0.5109620000000 1.0
C      1  0.5517680000000  0.4032500000000  0.4882140000000 1.0
C      1  0.4498690000000  0.5991870000000  0.5090960000000 1.0
C      1  0.5501500000000  0.6005780000000  0.4924480000000 1.0
C      1  0.5013580000000  0.5203170000000  0.5965710000000 1.0
C      1  0.4981680000000  0.5198420000000  0.4038460000000 1.0
C      1  0.5306930000000  0.4401530000000  0.6232740000000 1.0
C      1  0.4687000000000  0.4396170000000  0.3757670000000 1.0
C      1  0.4151500000000  0.4419560000000  0.4594180000000 1.0
C      1  0.5851640000000  0.4443640000000  0.5401930000000 1.0
C      1  0.4137370000000  0.5585890000000  0.4573800000000 1.0
C      1  0.5858170000000  0.5608620000000  0.5445340000000 1.0
C      1  0.4163240000000  0.5765850000000  0.4798290000000 1.0
C      1  0.5835090000000  0.5790920000000  0.5223760000000 1.0
C      1  0.4149860000000  0.4216850000000  0.4798290000000 1.0
C      1  0.5849550000000  0.4249290000000  0.5187130000000 1.0
C      1  0.5068950000000  0.5486190000000  0.4077140000000 1.0
C      1  0.4921590000000  0.5489770000000  0.5927610000000 1.0
C      1  0.4815330000000  0.4228330000000  0.3931240000000 1.0
C      1  0.5180670000000  0.4238080000000  0.6054110000000 1.0
C      1  0.4044150000000  0.4233000000000  0.5356730000000 1.0
C      1  0.5943100000000  0.4192140000000  0.4579120000000 1.0
C      1  0.4072570000000  0.5852890000000  0.5407640000000 1.0
C      1  0.5925110000000  0.5836220000000  0.4616170000000 1.0
C      1  0.5157980000000  0.4872190000000  0.4790800000000 1.0
C      1  0.4803150000000  0.4879440000000  0.5194370000000 1.0
C      1  0.5187800000000  0.5147400000000  0.4828920000000 1.0
C      1  0.4855300000000  0.5154800000000  0.5195370000000 1.0
C      1  0.4465510000000  0.5473400000000  0.4250160000000 1.0
C      1  0.5541480000000  0.5498980000000  0.5781710000000 1.0
C      1  0.4491930000000  0.4539650000000  0.4276160000000 1.0
C      1  0.5502390000000  0.4561810000000  0.5712630000000 1.0
C      1  0.5905430000000  0.4885460000000  0.5204750000000 1.0
C      1  0.4111860000000  0.4857330000000  0.4809050000000 1.0
C      1  0.5875940000000  0.5176760000000  0.5209370000000 1.0
C      1  0.4095190000000  0.5149650000000  0.4798830000000 1.0
C      1  0.4916050000000  0.4445260000000  0.4763330000000 1.0
C      1  0.5066230000000  0.4456320000000  0.5226930000000 1.0
C      1  0.4909070000000  0.5574230000000  0.4815560000000 1.0
C      1  0.5115070000000  0.5584170000000  0.5198090000000 1.0
C      1  0.4334650000000  0.5251780000000  0.4132750000000 1.0
C      1  0.5670160000000  0.5270080000000  0.5889370000000 1.0
C      1  0.4317140000000  0.4718720000000  0.4151470000000 1.0
C      1  0.5675560000000  0.4735320000000  0.5847400000000 1.0
C      1  0.4383020000000  0.4339420000000  0.4438110000000 1.0
C      1  0.5615780000000  0.4362940000000  0.5551350000000 1.0
C      1  0.4347980000000  0.5683690000000  0.4395980000000 1.0
C      1  0.5652700000000  0.5708380000000  0.5628090000000 1.0
C      1  0.4480500000000  0.5098880000000  0.3928020000000 1.0
C      1  0.5516130000000  0.5109400000000  0.6083830000000 1.0
C      1  0.4414470000000  0.4821150000000  0.3905570000000 1.0
C      1  0.5578410000000  0.4830010000000  0.6096020000000 1.0
C      1  0.5287080000000  0.5451350000000  0.5685090000000 1.0
C      1  0.4722300000000  0.5434080000000  0.4343920000000 1.0
C      1  0.5218070000000  0.4567490000000  0.5725950000000 1.0
C      1  0.4776000000000  0.4551920000000  0.4258790000000 1.0
C      1  0.4254760000000  0.4076000000000  0.5286180000000 1.0
C      1  0.5737550000000  0.4059570000000  0.4695380000000 1.0
C      1  0.4278710000000  0.5974250000000  0.5280100000000 1.0
C      1  0.5724560000000  0.5973910000000  0.4738010000000 1.0
C      1  0.5048500000000  0.5043620000000  0.5711940000000 1.0
C      1  0.4958540000000  0.5032320000000  0.4289650000000 1.0
END
