TITL C-3201376-6384-431 0.174799882020097 125000 -702.633727011061 0 0 115 (C1) n - 1
REM
REM in /home/nfs/bkarasulu/CARBON/AIRSS/Generating-Clusters/LCBOP/Higher-Symm/SD-CG/FIRE-CG
REM
REM
REM
REM
REM
REM ./C.cell (b20cbc046b6831c77cfcea5457e17084)
REM AIRSS Version 0.9.1 bugfix July 2018 build 013d7b7c2542+ Fri, 06 Jul 2018 19:26:36 +0100
REM compiler GCC version 9.2.1 20190827 (Red Hat 9.2.1-1)
REM options -cpp -mtune=generic -march=x86-64 -g -O0 -fpre-include=/usr/include/finclude/math-vector-fortran.h
REM seed -1381190158 1044676080 1589085437 1388248201 -687251697 -1050205650 -2086571382 1411227098 675074044 -1986048100 1041882823 -1357980640 -778709240 553503167 1696167146 1585952609 -625412526 1049745265 1765038372 648095077 -879622421 38400170 1247059001 -1066453617 1052115600 -1997110065 1454319780 -547218650 -786442371 2043583679 971139370 1188322955 -1966846915
REM
CELL 1.54180   50.00000   50.00000   50.00000   90.00000   90.00000   90.00000
LATT -1
SFAC C  
C      1  0.4246860000000  0.4854670000000  0.4646560000000 1.0
C      1  0.5751760000000  0.5083100000000  0.4619420000000 1.0
C      1  0.4572180000000  0.4694740000000  0.4282800000000 1.0
C      1  0.5419720000000  0.5329920000000  0.4305680000000 1.0
C      1  0.4659230000000  0.5665270000000  0.4680470000000 1.0
C      1  0.5124040000000  0.4377730000000  0.4619880000000 1.0
C      1  0.5755290000000  0.4833750000000  0.4756310000000 1.0
C      1  0.4205240000000  0.5085020000000  0.4806570000000 1.0
C      1  0.4628280000000  0.4860730000000  0.5297220000000 1.0
C      1  0.5411670000000  0.5203610000000  0.5320120000000 1.0
C      1  0.5200410000000  0.5773460000000  0.4572650000000 1.0
C      1  0.4837890000000  0.4202380000000  0.3980110000000 1.0
C      1  0.5301310000000  0.4947290000000  0.4553060000000 1.0
C      1  0.4681680000000  0.5063250000000  0.4551200000000 1.0
C      1  0.3980390000000  0.4915010000000  0.5181270000000 1.0
C      1  0.6007910000000  0.5005440000000  0.5142980000000 1.0
C      1  0.4566510000000  0.4642500000000  0.5118190000000 1.0
C      1  0.5504060000000  0.5380340000000  0.5124000000000 1.0
C      1  0.5027000000000  0.5515390000000  0.5017670000000 1.0
C      1  0.5038480000000  0.4550740000000  0.5110510000000 1.0
C      1  0.4878310000000  0.5096730000000  0.4768500000000 1.0
C      1  0.5120780000000  0.4938690000000  0.4784300000000 1.0
C      1  0.5395400000000  0.5559600000000  0.5667100000000 1.0
C      1  0.4594440000000  0.4542850000000  0.5689240000000 1.0
C      1  0.4377260000000  0.5817720000000  0.5052220000000 1.0
C      1  0.5615050000000  0.4147500000000  0.5142430000000 1.0
C      1  0.5201850000000  0.4838100000000  0.5538140000000 1.0
C      1  0.4853530000000  0.5226640000000  0.5503600000000 1.0
C      1  0.5946680000000  0.6150620000000  0.5494630000000 1.0
C      1  0.4209550000000  0.3769580000000  0.5430230000000 1.0
C      1  0.5129930000000  0.4288290000000  0.5199420000000 1.0
C      1  0.4926670000000  0.5821890000000  0.5010980000000 1.0
C      1  0.4134430000000  0.5663780000000  0.4908930000000 1.0
C      1  0.5784180000000  0.4270930000000  0.4926090000000 1.0
C      1  0.4340660000000  0.5343720000000  0.5166830000000 1.0
C      1  0.5604120000000  0.4627250000000  0.5136290000000 1.0
C      1  0.5869880000000  0.5688360000000  0.5248640000000 1.0
C      1  0.4275040000000  0.4269250000000  0.5267790000000 1.0
C      1  0.5858130000000  0.4354780000000  0.4206230000000 1.0
C      1  0.4084140000000  0.5586470000000  0.4147890000000 1.0
C      1  0.5630760000000  0.4311100000000  0.4655420000000 1.0
C      1  0.4228930000000  0.5568890000000  0.4633630000000 1.0
C      1  0.5153040000000  0.4818600000000  0.5058560000000 1.0
C      1  0.4865800000000  0.5261840000000  0.5012760000000 1.0
C      1  0.4482870000000  0.5449310000000  0.4726690000000 1.0
C      1  0.5382970000000  0.4461750000000  0.4740770000000 1.0
C      1  0.3977580000000  0.5147420000000  0.4996630000000 1.0
C      1  0.5976410000000  0.4776750000000  0.4957880000000 1.0
C      1  0.4407900000000  0.5801300000000  0.5336860000000 1.0
C      1  0.5648620000000  0.4227070000000  0.5419550000000 1.0
C      1  0.5337720000000  0.4134780000000  0.5082090000000 1.0
C      1  0.4639220000000  0.5828470000000  0.4914590000000 1.0
C      1  0.4677840000000  0.4296970000000  0.5742310000000 1.0
C      1  0.5284270000000  0.5798880000000  0.5637200000000 1.0
C      1  0.5455670000000  0.5299000000000  0.5588590000000 1.0
C      1  0.4568100000000  0.4796410000000  0.5575950000000 1.0
C      1  0.3901030000000  0.5619250000000  0.3965400000000 1.0
C      1  0.6067760000000  0.4323860000000  0.4054540000000 1.0
C      1  0.4961980000000  0.5173960000000  0.4185580000000 1.0
C      1  0.5027170000000  0.4882930000000  0.4167260000000 1.0
C      1  0.4307000000000  0.4523590000000  0.5159070000000 1.0
C      1  0.5781250000000  0.5450730000000  0.5134730000000 1.0
C      1  0.4278340000000  0.5548660000000  0.4343030000000 1.0
C      1  0.5637970000000  0.4393410000000  0.4371530000000 1.0
C      1  0.4559930000000  0.5667890000000  0.5516800000000 1.0
C      1  0.5515930000000  0.4402050000000  0.5582710000000 1.0
C      1  0.4083870000000  0.4654930000000  0.4766690000000 1.0
C      1  0.5940580000000  0.5261160000000  0.4729810000000 1.0
C      1  0.4062500000000  0.5421880000000  0.5090290000000 1.0
C      1  0.5875550000000  0.4525250000000  0.5066090000000 1.0
C      1  0.5391700000000  0.5618020000000  0.4711400000000 1.0
C      1  0.4860050000000  0.4400970000000  0.4730750000000 1.0
C      1  0.4081370000000  0.4665910000000  0.5055250000000 1.0
C      1  0.5959640000000  0.5264220000000  0.5015130000000 1.0
C      1  0.4825990000000  0.4667460000000  0.4156470000000 1.0
C      1  0.5148790000000  0.5395630000000  0.4243500000000 1.0
C      1  0.4869410000000  0.5069030000000  0.6081050000000 1.0
C      1  0.5142920000000  0.5058980000000  0.6089870000000 1.0
C      1  0.4232980000000  0.4019010000000  0.5343720000000 1.0
C      1  0.5920480000000  0.5919910000000  0.5366820000000 1.0
C      1  0.4765190000000  0.5118970000000  0.5250600000000 1.0
C      1  0.5279190000000  0.4952110000000  0.5280470000000 1.0
C      1  0.4447040000000  0.4988080000000  0.5751660000000 1.0
C      1  0.5573690000000  0.5112830000000  0.5770830000000 1.0
C      1  0.5148070000000  0.4360150000000  0.4331470000000 1.0
C      1  0.4758760000000  0.5662740000000  0.4412570000000 1.0
C      1  0.4179420000000  0.5039080000000  0.5669040000000 1.0
C      1  0.5812320000000  0.4999230000000  0.5657090000000 1.0
C      1  0.4933820000000  0.4399880000000  0.4149910000000 1.0
C      1  0.5041540000000  0.5638680000000  0.4371780000000 1.0
C      1  0.5340040000000  0.4605190000000  0.5622370000000 1.0
C      1  0.4735590000000  0.5472340000000  0.5577270000000 1.0
C      1  0.4618600000000  0.5063600000000  0.5970780000000 1.0
C      1  0.5399630000000  0.5054760000000  0.5993620000000 1.0
C      1  0.5387210000000  0.4525680000000  0.4280710000000 1.0
C      1  0.4565690000000  0.5479130000000  0.4280930000000 1.0
C      1  0.4705420000000  0.5222770000000  0.4308190000000 1.0
C      1  0.5267600000000  0.4796770000000  0.4309350000000 1.0
C      1  0.4842660000000  0.4128140000000  0.5619120000000 1.0
C      1  0.5131360000000  0.5954950000000  0.5485470000000 1.0
C      1  0.4428020000000  0.5244280000000  0.4906530000000 1.0
C      1  0.5513380000000  0.4690010000000  0.4864430000000 1.0
C      1  0.4493270000000  0.4847890000000  0.4506660000000 1.0
C      1  0.5504410000000  0.5145250000000  0.4502120000000 1.0
C      1  0.4993040000000  0.4151690000000  0.5401980000000 1.0
C      1  0.4990460000000  0.5963500000000  0.5259790000000 1.0
C      1  0.4781890000000  0.4524400000000  0.4975540000000 1.0
C      1  0.5314010000000  0.5494690000000  0.4954010000000 1.0
C      1  0.5070880000000  0.5944270000000  0.4764300000000 1.0
C      1  0.4745590000000  0.4017270000000  0.3821590000000 1.0
C      1  0.4191540000000  0.3524900000000  0.5518350000000 1.0
C      1  0.5965960000000  0.6376980000000  0.5622500000000 1.0
C      1  0.4019670000000  0.4970950000000  0.5459460000000 1.0
C      1  0.5957800000000  0.4979970000000  0.5426420000000 1.0
C      1  0.5015450000000  0.5032670000000  0.5638260000000 1.0
END
