TITL C-3201375-1262-1428 14134.1732152957 125000 -356.853117327558 0 0 63 (C1) n - 1
REM
REM in /home/nfs/bkarasulu/CARBON/AIRSS/Generating-Clusters/LCBOP/Higher-Symm/SD-CG/FIRE-CG
REM
REM
REM
REM
REM
REM ./C.cell (b20cbc046b6831c77cfcea5457e17084)
REM AIRSS Version 0.9.1 bugfix July 2018 build 013d7b7c2542+ Fri, 06 Jul 2018 19:26:36 +0100
REM compiler GCC version 9.2.1 20190827 (Red Hat 9.2.1-1)
REM options -cpp -mtune=generic -march=x86-64 -g -O0 -fpre-include=/usr/include/finclude/math-vector-fortran.h
REM seed 287685573 -2047831384 -1682300584 -127007365 -1923399033 721082236 -1430150683 -523371425 614230442 -1874137853 1522702858 1987424508 -1440218113 356826564 1722880739 349050741 -490022816 -525895292 -426554661 1307677999 669010968 -321361849 2125922604 -527335799 1048205319 1517467259 100048902 15207422 1663295457 612193620 1573225059 -1749629270 -1166369496
REM
CELL 1.54180   50.00000   50.00000   50.00000   90.00000   90.00000   90.00000
LATT -1
SFAC C  
C      1  0.4761270000000  0.5630700000000  0.5309580000000 1.0
C      1  0.4763530000000  0.4583950000000  0.5191610000000 1.0
C      1  0.4723500000000  0.5098550000000  0.4372790000000 1.0
C      1  0.5454470000000  0.4793050000000  0.4465410000000 1.0
C      1  0.5481610000000  0.5548960000000  0.5042480000000 1.0
C      1  0.5476220000000  0.4554640000000  0.5416550000000 1.0
C      1  0.4970990000000  0.4675650000000  0.4597730000000 1.0
C      1  0.5047070000000  0.5630450000000  0.4936820000000 1.0
C      1  0.5054180000000  0.4751320000000  0.5546250000000 1.0
C      1  0.5248740000000  0.4562550000000  0.4996430000000 1.0
C      1  0.5290170000000  0.5216460000000  0.4561540000000 1.0
C      1  0.5287510000000  0.5289040000000  0.5497410000000 1.0
C      1  0.4405140000000  0.4436440000000  0.4917370000000 1.0
C      1  0.4639460000000  0.5182920000000  0.4910650000000 1.0
C      1  0.4609310000000  0.5199770000000  0.5210130000000 1.0
C      1  0.4995990000000  0.4711170000000  0.5073340000000 1.0
C      1  0.4917630000000  0.5130970000000  0.4877890000000 1.0
C      1  0.4835420000000  0.5365870000000  0.5262340000000 1.0
C      1  0.5706070000000  0.5381940000000  0.4952700000000 1.0
C      1  0.5684960000000  0.4708980000000  0.5244060000000 1.0
C      1  0.5757540000000  0.4870000000000  0.4682980000000 1.0
C      1  0.5251350000000  0.4582160000000  0.4536270000000 1.0
C      1  0.5307140000000  0.5623060000000  0.4817420000000 1.0
C      1  0.5303690000000  0.4759720000000  0.5660210000000 1.0
C      1  0.4555290000000  0.4843160000000  0.5515490000000 1.0
C      1  0.4505150000000  0.4660550000000  0.4486740000000 1.0
C      1  0.4568880000000  0.5642840000000  0.4831170000000 1.0
C      1  0.4979930000000  0.5002580000000  0.4271230000000 1.0
C      1  0.5034090000000  0.5735740000000  0.5382510000000 1.0
C      1  0.5049250000000  0.4206540000000  0.5214370000000 1.0
C      1  0.5615710000000  0.4985180000000  0.5317620000000 1.0
C      1  0.5678990000000  0.4725530000000  0.4937490000000 1.0
C      1  0.5686730000000  0.5147420000000  0.4777860000000 1.0
C      1  0.4717000000000  0.5361510000000  0.4469000000000 1.0
C      1  0.4662530000000  0.5256790000000  0.5698750000000 1.0
C      1  0.4896110000000  0.4186020000000  0.4946560000000 1.0
C      1  0.5109860000000  0.4883690000000  0.5291910000000 1.0
C      1  0.4956500000000  0.4861080000000  0.4821820000000 1.0
C      1  0.5017110000000  0.5354150000000  0.5040530000000 1.0
C      1  0.4934480000000  0.5560020000000  0.4503350000000 1.0
C      1  0.4894660000000  0.5099650000000  0.5777960000000 1.0
C      1  0.5118400000000  0.4155660000000  0.4757980000000 1.0
C      1  0.5341620000000  0.5069990000000  0.5316130000000 1.0
C      1  0.5398250000000  0.4808210000000  0.4918480000000 1.0
C      1  0.5390550000000  0.5089720000000  0.4801300000000 1.0
C      1  0.4518220000000  0.4696010000000  0.5276450000000 1.0
C      1  0.4449530000000  0.4925850000000  0.4554070000000 1.0
C      1  0.4451550000000  0.5598720000000  0.5086130000000 1.0
C      1  0.4554830000000  0.5376460000000  0.4708670000000 1.0
C      1  0.4517880000000  0.5127460000000  0.5473700000000 1.0
C      1  0.4665570000000  0.4337590000000  0.4818140000000 1.0
C      1  0.5283170000000  0.4386310000000  0.4746240000000 1.0
C      1  0.5225850000000  0.5492610000000  0.4561300000000 1.0
C      1  0.5184690000000  0.5133160000000  0.5731040000000 1.0
C      1  0.4264410000000  0.4976720000000  0.4858390000000 1.0
C      1  0.4236180000000  0.5304950000000  0.5012220000000 1.0
C      1  0.4340040000000  0.4700260000000  0.5042720000000 1.0
C      1  0.4730560000000  0.4514270000000  0.4585340000000 1.0
C      1  0.4840280000000  0.5714950000000  0.4753380000000 1.0
C      1  0.4811230000000  0.4829720000000  0.5670190000000 1.0
C      1  0.5295290000000  0.5554400000000  0.5352570000000 1.0
C      1  0.5285590000000  0.4390960000000  0.5251040000000 1.0
C      1  0.5261070000000  0.5015260000000  0.4360220000000 1.0
END
