TITL C-3201379-3821-1483 -3.91062846748091e-07 125000 -836.387479929609 0 0 134 (C1) n - 1
REM
REM in /home/nfs/bkarasulu/CARBON/AIRSS/Generating-Clusters/LCBOP/Higher-Symm/SD-CG/FIRE-CG
REM
REM
REM
REM
REM
REM ./C.cell (b20cbc046b6831c77cfcea5457e17084)
REM AIRSS Version 0.9.1 bugfix July 2018 build 013d7b7c2542+ Fri, 06 Jul 2018 19:26:36 +0100
REM compiler GCC version 9.2.1 20190827 (Red Hat 9.2.1-1)
REM options -cpp -mtune=generic -march=x86-64 -g -O0 -fpre-include=/usr/include/finclude/math-vector-fortran.h
REM seed -381559870 1988574744 -1582175450 999351887 -2138776827 908702341 1199607222 172212048 -1424303471 -1036717470 -1598106317 1645118381 -535589224 1346895794 -428950228 128764748 1476325848 1831594351 1857061021 1504570647 -881529026 1545555366 -1260967242 1677292601 418362798 854317009 -1732724537 1430921009 1441625191 -850253118 1766008527 1061141950 -2130175490
REM
CELL 1.54180   50.00000   50.00000   50.00000   90.00000   90.00000   90.00000
LATT -1
SFAC C  
C      1  0.5007820000000  0.5508870000000  0.4118060000000 1.0
C      1  0.4911550000000  0.5531670000000  0.5887390000000 1.0
C      1  0.4419700000000  0.4892240000000  0.3915820000000 1.0
C      1  0.4302990000000  0.5069380000000  0.5949070000000 1.0
C      1  0.5238970000000  0.5954100000000  0.4633860000000 1.0
C      1  0.5190990000000  0.6011250000000  0.5415020000000 1.0
C      1  0.5097410000000  0.5772730000000  0.5836450000000 1.0
C      1  0.5193060000000  0.5716510000000  0.4217460000000 1.0
C      1  0.5578440000000  0.3975970000000  0.5179820000000 1.0
C      1  0.5476630000000  0.4129310000000  0.4649060000000 1.0
C      1  0.5315720000000  0.4049410000000  0.5242790000000 1.0
C      1  0.5198500000000  0.4100630000000  0.4645900000000 1.0
C      1  0.5175590000000  0.4455480000000  0.4071160000000 1.0
C      1  0.5452120000000  0.4558800000000  0.5706930000000 1.0
C      1  0.5141150000000  0.4728290000000  0.6061470000000 1.0
C      1  0.5141830000000  0.4844090000000  0.3782450000000 1.0
C      1  0.4485080000000  0.4597760000000  0.4554200000000 1.0
C      1  0.4554780000000  0.4656750000000  0.5451020000000 1.0
C      1  0.4843630000000  0.4921900000000  0.4151210000000 1.0
C      1  0.4710360000000  0.4810660000000  0.5859550000000 1.0
C      1  0.4953750000000  0.4770660000000  0.4374220000000 1.0
C      1  0.5277960000000  0.4851090000000  0.5352660000000 1.0
C      1  0.4336530000000  0.4055690000000  0.4706500000000 1.0
C      1  0.4456970000000  0.4127740000000  0.5421820000000 1.0
C      1  0.4080500000000  0.4450460000000  0.5205300000000 1.0
C      1  0.4057170000000  0.4447280000000  0.4919350000000 1.0
C      1  0.4599560000000  0.5241630000000  0.4781580000000 1.0
C      1  0.4530610000000  0.5245360000000  0.5072130000000 1.0
C      1  0.5062070000000  0.5513780000000  0.5189810000000 1.0
C      1  0.5085580000000  0.5597460000000  0.4924710000000 1.0
C      1  0.5803330000000  0.5949100000000  0.5167830000000 1.0
C      1  0.5837890000000  0.5916810000000  0.4900300000000 1.0
C      1  0.5211870000000  0.4590580000000  0.3841930000000 1.0
C      1  0.5344620000000  0.4596320000000  0.5948560000000 1.0
C      1  0.5587550000000  0.5256450000000  0.5329700000000 1.0
C      1  0.5605590000000  0.5187910000000  0.4812100000000 1.0
C      1  0.4598630000000  0.5783110000000  0.5093440000000 1.0
C      1  0.4609100000000  0.5791760000000  0.4816470000000 1.0
C      1  0.5766110000000  0.4145140000000  0.5055690000000 1.0
C      1  0.5697400000000  0.4236150000000  0.4785950000000 1.0
C      1  0.5638120000000  0.5766260000000  0.5309940000000 1.0
C      1  0.5690420000000  0.5717080000000  0.4760850000000 1.0
C      1  0.5460110000000  0.5212670000000  0.4100720000000 1.0
C      1  0.5370890000000  0.5162120000000  0.5989020000000 1.0
C      1  0.4535180000000  0.5534640000000  0.4719030000000 1.0
C      1  0.4505510000000  0.5521230000000  0.5157850000000 1.0
C      1  0.5069400000000  0.5923790000000  0.4384930000000 1.0
C      1  0.4990290000000  0.5964670000000  0.5632380000000 1.0
C      1  0.4296350000000  0.5533220000000  0.5353420000000 1.0
C      1  0.4313430000000  0.5548360000000  0.4547350000000 1.0
C      1  0.4593370000000  0.3960380000000  0.5219030000000 1.0
C      1  0.4566250000000  0.4020030000000  0.4911190000000 1.0
C      1  0.5290280000000  0.5440790000000  0.5611500000000 1.0
C      1  0.5294700000000  0.5382040000000  0.4533640000000 1.0
C      1  0.5839390000000  0.4989620000000  0.5682000000000 1.0
C      1  0.5917670000000  0.5101580000000  0.4422130000000 1.0
C      1  0.4462860000000  0.5460020000000  0.5593630000000 1.0
C      1  0.4454280000000  0.5462320000000  0.4294240000000 1.0
C      1  0.5477950000000  0.5019930000000  0.5227730000000 1.0
C      1  0.5558760000000  0.4953750000000  0.4968820000000 1.0
C      1  0.3811610000000  0.5585850000000  0.5275010000000 1.0
C      1  0.3811390000000  0.5567990000000  0.4699620000000 1.0
C      1  0.4060660000000  0.5558990000000  0.5173970000000 1.0
C      1  0.4059420000000  0.5559440000000  0.4797850000000 1.0
C      1  0.4943390000000  0.4160720000000  0.5514730000000 1.0
C      1  0.4759520000000  0.4054610000000  0.4478110000000 1.0
C      1  0.4859290000000  0.4746180000000  0.4838490000000 1.0
C      1  0.4873770000000  0.4805700000000  0.5115520000000 1.0
C      1  0.4420050000000  0.5070430000000  0.4588360000000 1.0
C      1  0.4458640000000  0.5078180000000  0.5293560000000 1.0
C      1  0.5646190000000  0.5495140000000  0.5191440000000 1.0
C      1  0.5669240000000  0.5460810000000  0.4907030000000 1.0
C      1  0.4746100000000  0.4604990000000  0.5259780000000 1.0
C      1  0.4679820000000  0.4537200000000  0.4750610000000 1.0
C      1  0.5437070000000  0.5864780000000  0.5491390000000 1.0
C      1  0.5491430000000  0.5804880000000  0.4577380000000 1.0
C      1  0.4949880000000  0.4922610000000  0.5980310000000 1.0
C      1  0.5030060000000  0.5028670000000  0.3963860000000 1.0
C      1  0.4721980000000  0.5883550000000  0.5577140000000 1.0
C      1  0.4785510000000  0.5870570000000  0.4374890000000 1.0
C      1  0.4208560000000  0.4243340000000  0.5353980000000 1.0
C      1  0.4107580000000  0.4201030000000  0.4787710000000 1.0
C      1  0.5589510000000  0.4532150000000  0.5208230000000 1.0
C      1  0.5585200000000  0.4671840000000  0.4946940000000 1.0
C      1  0.5094790000000  0.3914450000000  0.5117060000000 1.0
C      1  0.5058050000000  0.3924610000000  0.4835680000000 1.0
C      1  0.5831840000000  0.4371500000000  0.5225050000000 1.0
C      1  0.5743410000000  0.4518740000000  0.4759690000000 1.0
C      1  0.4648790000000  0.5966950000000  0.4603110000000 1.0
C      1  0.4625540000000  0.5946070000000  0.5318920000000 1.0
C      1  0.4309340000000  0.4807960000000  0.4631770000000 1.0
C      1  0.4349790000000  0.4826900000000  0.5358590000000 1.0
C      1  0.4793700000000  0.4360920000000  0.5154240000000 1.0
C      1  0.4673440000000  0.4308520000000  0.4912840000000 1.0
C      1  0.4593020000000  0.5181300000000  0.5550750000000 1.0
C      1  0.4455300000000  0.5168960000000  0.4311710000000 1.0
C      1  0.5079330000000  0.5397220000000  0.4716210000000 1.0
C      1  0.5066950000000  0.5392830000000  0.5440730000000 1.0
C      1  0.5015170000000  0.4946360000000  0.5313960000000 1.0
C      1  0.4943270000000  0.4912280000000  0.4629940000000 1.0
C      1  0.4648040000000  0.4558080000000  0.5707000000000 1.0
C      1  0.4428730000000  0.4392230000000  0.4369440000000 1.0
C      1  0.4479840000000  0.4126920000000  0.4455010000000 1.0
C      1  0.4694130000000  0.4270170000000  0.5633180000000 1.0
C      1  0.6064780000000  0.4529580000000  0.5245070000000 1.0
C      1  0.6006210000000  0.4619430000000  0.4740510000000 1.0
C      1  0.4874180000000  0.3942310000000  0.5306380000000 1.0
C      1  0.4789500000000  0.3896140000000  0.4733200000000 1.0
C      1  0.5366970000000  0.4550590000000  0.5415800000000 1.0
C      1  0.5041970000000  0.4484870000000  0.4322320000000 1.0
C      1  0.5390130000000  0.5610120000000  0.4393190000000 1.0
C      1  0.5343940000000  0.5697840000000  0.5709560000000 1.0
C      1  0.6070780000000  0.4819030000000  0.5189420000000 1.0
C      1  0.6079230000000  0.4866760000000  0.4882700000000 1.0
C      1  0.4900400000000  0.5165170000000  0.5461840000000 1.0
C      1  0.4887570000000  0.5187630000000  0.4698580000000 1.0
C      1  0.6055350000000  0.5063940000000  0.4662880000000 1.0
C      1  0.5983800000000  0.4954840000000  0.5442560000000 1.0
C      1  0.5003590000000  0.4229530000000  0.4461130000000 1.0
C      1  0.5211230000000  0.4270270000000  0.5414850000000 1.0
C      1  0.4090930000000  0.4698950000000  0.4779830000000 1.0
C      1  0.4101470000000  0.4709320000000  0.5316940000000 1.0
C      1  0.5168580000000  0.5265220000000  0.4041480000000 1.0
C      1  0.5057710000000  0.5211630000000  0.5970120000000 1.0
C      1  0.5137740000000  0.5883170000000  0.4892840000000 1.0
C      1  0.5144600000000  0.6035910000000  0.5134360000000 1.0
C      1  0.4569000000000  0.4992280000000  0.4121830000000 1.0
C      1  0.4524980000000  0.5020470000000  0.5797110000000 1.0
C      1  0.5488250000000  0.5186080000000  0.4559550000000 1.0
C      1  0.5517010000000  0.5291080000000  0.5589750000000 1.0
C      1  0.5644480000000  0.5142550000000  0.4323040000000 1.0
C      1  0.5600560000000  0.5122790000000  0.5801660000000 1.0
C      1  0.4658810000000  0.5630580000000  0.5723650000000 1.0
C      1  0.4723670000000  0.5604540000000  0.4228940000000 1.0
END
