TITL C-3201379-3821-1920 1.75347213793214e-07 125000 -140.903093184953 0 0 24 (Cs) n - 1
REM
REM in /home/nfs/bkarasulu/CARBON/AIRSS/Generating-Clusters/LCBOP/Higher-Symm/SD-CG/FIRE-CG
REM
REM
REM
REM
REM
REM ./C.cell (b20cbc046b6831c77cfcea5457e17084)
REM AIRSS Version 0.9.1 bugfix July 2018 build 013d7b7c2542+ Fri, 06 Jul 2018 19:26:36 +0100
REM compiler GCC version 9.2.1 20190827 (Red Hat 9.2.1-1)
REM options -cpp -mtune=generic -march=x86-64 -g -O0 -fpre-include=/usr/include/finclude/math-vector-fortran.h
REM seed 920549970 -953685638 859567137 448195265 -307425589 -959399644 923739717 922411708 -2003888135 74440902 -844341521 2045334475 -1482242945 1834543461 -1754767744 850361498 1646194997 -1793481129 -2068927736 -1051759593 1156370043 1729371382 1446397749 295978472 -1088479901 -168763010 -1010612043 1168138214 1318945503 454047750 1268038041 440930798 -1622313909
REM
CELL 1.54180   50.00000   50.00000   50.00000   90.00000   90.00000   90.00000
LATT -1
SFAC C  
C      1  0.5185750000000  0.5572270000000  0.5319550000000 1.0
C      1  0.4450510000000  0.4877660000000  0.5357730000000 1.0
C      1  0.5363700000000  0.4563060000000  0.5341170000000 1.0
C      1  0.5026870000000  0.5326780000000  0.4654460000000 1.0
C      1  0.4606690000000  0.4855830000000  0.4651270000000 1.0
C      1  0.5364830000000  0.4793740000000  0.4651510000000 1.0
C      1  0.4493120000000  0.5026690000000  0.5112760000000 1.0
C      1  0.5228770000000  0.4552310000000  0.5083990000000 1.0
C      1  0.5275090000000  0.5418350000000  0.5090630000000 1.0
C      1  0.5032900000000  0.5401410000000  0.4922490000000 1.0
C      1  0.4594910000000  0.4821030000000  0.4926870000000 1.0
C      1  0.5370620000000  0.4757500000000  0.4927110000000 1.0
C      1  0.4571200000000  0.5293540000000  0.5091900000000 1.0
C      1  0.4958420000000  0.4492510000000  0.5050150000000 1.0
C      1  0.5470790000000  0.5219860000000  0.5092180000000 1.0
C      1  0.5008500000000  0.5101850000000  0.4486890000000 1.0
C      1  0.4757270000000  0.4977530000000  0.4466660000000 1.0
C      1  0.5236170000000  0.4938310000000  0.4466810000000 1.0
C      1  0.4796590000000  0.5457530000000  0.5090490000000 1.0
C      1  0.4701380000000  0.4595500000000  0.5083830000000 1.0
C      1  0.5504400000000  0.4943870000000  0.5113080000000 1.0
C      1  0.5522040000000  0.4789910000000  0.5358070000000 1.0
C      1  0.4909640000000  0.5594880000000  0.5319460000000 1.0
C      1  0.4569840000000  0.4628070000000  0.5340930000000 1.0
END
