TITL C-3201374-830-455 -83923.1181921331 125000 -625.240600530799 0 0 108 (C1) n - 1
REM
REM in /home/nfs/bkarasulu/CARBON/AIRSS/Generating-Clusters/LCBOP/Higher-Symm/SD-CG/FIRE-CG
REM
REM
REM
REM
REM
REM ./C.cell (b20cbc046b6831c77cfcea5457e17084)
REM AIRSS Version 0.9.1 bugfix July 2018 build 013d7b7c2542+ Fri, 06 Jul 2018 19:26:36 +0100
REM compiler GCC version 9.2.1 20190827 (Red Hat 9.2.1-1)
REM options -cpp -mtune=generic -march=x86-64 -g -O0 -fpre-include=/usr/include/finclude/math-vector-fortran.h
REM seed 1310943875 -575448514 -1746262888 -2117773467 -1154812641 -1763665636 -284652563 61868158 -848521580 1414313657 -478875579 -354340532 370814091 -604849646 114738595 228825408 135565729 -610788764 -1943442023 1709714242 -780631792 1398456918 -649935985 -6931904 1049640502 -1494385124 -110945412 -1215758709 2036007363 -212148662 2051746923 981654825 1849302098
REM
CELL 1.54180   50.00000   50.00000   50.00000   90.00000   90.00000   90.00000
LATT -1
SFAC C  
C      1  0.4621490000000  0.5322890000000  0.5027730000000 1.0
C      1  0.5212640000000  0.5324090000000  0.5314660000000 1.0
C      1  0.5167310000000  0.5323390000000  0.4657630000000 1.0
C      1  0.4621540000000  0.4677160000000  0.4972310000000 1.0
C      1  0.5212780000000  0.4676620000000  0.4684060000000 1.0
C      1  0.5166340000000  0.4677870000000  0.5342410000000 1.0
C      1  0.4784020000000  0.5026850000000  0.4098630000000 1.0
C      1  0.4367580000000  0.5014080000000  0.5660250000000 1.0
C      1  0.5888220000000  0.5014820000000  0.5217550000000 1.0
C      1  0.4784350000000  0.4973370000000  0.5901330000000 1.0
C      1  0.4367450000000  0.4985520000000  0.4339890000000 1.0
C      1  0.5888590000000  0.4972650000000  0.4736190000000 1.0
C      1  0.4400370000000  0.5007770000000  0.5373160000000 1.0
C      1  0.5623060000000  0.5008430000000  0.5332500000000 1.0
C      1  0.4977930000000  0.5006350000000  0.4292940000000 1.0
C      1  0.4400290000000  0.4992210000000  0.4627010000000 1.0
C      1  0.5623380000000  0.4993500000000  0.4665400000000 1.0
C      1  0.4978350000000  0.4994090000000  0.5707110000000 1.0
C      1  0.5209100000000  0.5966990000000  0.5517940000000 1.0
C      1  0.5340820000000  0.5967060000000  0.4558430000000 1.0
C      1  0.4448560000000  0.5966500000000  0.4920040000000 1.0
C      1  0.5211650000000  0.4032700000000  0.4484340000000 1.0
C      1  0.5341950000000  0.4033260000000  0.5438720000000 1.0
C      1  0.4448630000000  0.4033330000000  0.5079970000000 1.0
C      1  0.4672890000000  0.4922870000000  0.5346260000000 1.0
C      1  0.5463870000000  0.4923050000000  0.5110130000000 1.0
C      1  0.4863140000000  0.4918490000000  0.4536850000000 1.0
C      1  0.4672720000000  0.5077300000000  0.4653810000000 1.0
C      1  0.5469650000000  0.5081650000000  0.4886730000000 1.0
C      1  0.4863490000000  0.5081830000000  0.5462980000000 1.0
C      1  0.5534430000000  0.5324490000000  0.5700420000000 1.0
C      1  0.5336610000000  0.5324830000000  0.4185640000000 1.0
C      1  0.4126570000000  0.5324330000000  0.5111300000000 1.0
C      1  0.5536660000000  0.4674830000000  0.4301290000000 1.0
C      1  0.5337900000000  0.4675100000000  0.5813050000000 1.0
C      1  0.4126650000000  0.4675540000000  0.4888810000000 1.0
C      1  0.5482880000000  0.5296060000000  0.3958840000000 1.0
C      1  0.3857080000000  0.5294720000000  0.5098910000000 1.0
C      1  0.5656850000000  0.5294920000000  0.5940820000000 1.0
C      1  0.5483930000000  0.4703620000000  0.6040030000000 1.0
C      1  0.3857150000000  0.4705020000000  0.4901190000000 1.0
C      1  0.5659630000000  0.4703270000000  0.4061020000000 1.0
C      1  0.5221200000000  0.4295620000000  0.4366260000000 1.0
C      1  0.4342650000000  0.4296650000000  0.5131880000000 1.0
C      1  0.5439600000000  0.4296640000000  0.5505000000000 1.0
C      1  0.5218310000000  0.5704140000000  0.5636000000000 1.0
C      1  0.4342520000000  0.5703210000000  0.4868260000000 1.0
C      1  0.5438180000000  0.5704130000000  0.4491090000000 1.0
C      1  0.4943360000000  0.4219490000000  0.5255230000000 1.0
C      1  0.5249010000000  0.4219500000000  0.4921220000000 1.0
C      1  0.4805430000000  0.4216660000000  0.4821760000000 1.0
C      1  0.4943870000000  0.5780560000000  0.4745040000000 1.0
C      1  0.5251160000000  0.5783390000000  0.5079650000000 1.0
C      1  0.4805520000000  0.5783390000000  0.5178210000000 1.0
C      1  0.5328850000000  0.4504230000000  0.4897730000000 1.0
C      1  0.4745120000000  0.4501530000000  0.4764990000000 1.0
C      1  0.4924000000000  0.4504180000000  0.5336260000000 1.0
C      1  0.5330610000000  0.5498520000000  0.5103340000000 1.0
C      1  0.4744970000000  0.5498600000000  0.5235020000000 1.0
C      1  0.4924320000000  0.5495890000000  0.4663980000000 1.0
C      1  0.5649880000000  0.5596860000000  0.4691560000000 1.0
C      1  0.4413190000000  0.5596630000000  0.4585030000000 1.0
C      1  0.4939270000000  0.5596920000000  0.5718050000000 1.0
C      1  0.5650890000000  0.4403230000000  0.5302330000000 1.0
C      1  0.4413400000000  0.4403060000000  0.5415270000000 1.0
C      1  0.4941580000000  0.4402800000000  0.4283110000000 1.0
C      1  0.5243490000000  0.4431260000000  0.5703990000000 1.0
C      1  0.5490060000000  0.4430920000000  0.4437830000000 1.0
C      1  0.4267120000000  0.4430980000000  0.4863480000000 1.0
C      1  0.5241830000000  0.5568850000000  0.4294140000000 1.0
C      1  0.5486980000000  0.5569170000000  0.5565920000000 1.0
C      1  0.4266930000000  0.5568950000000  0.5136580000000 1.0
C      1  0.5094460000000  0.4007470000000  0.5330850000000 1.0
C      1  0.5239820000000  0.4007260000000  0.4752840000000 1.0
C      1  0.4664220000000  0.4006070000000  0.4917710000000 1.0
C      1  0.5094390000000  0.5992680000000  0.4668650000000 1.0
C      1  0.5239490000000  0.5994040000000  0.5249850000000 1.0
C      1  0.4664250000000  0.5993890000000  0.5082140000000 1.0
C      1  0.4891180000000  0.5541270000000  0.4362890000000 1.0
C      1  0.4495900000000  0.5543850000000  0.5408740000000 1.0
C      1  0.5606310000000  0.5543750000000  0.5231330000000 1.0
C      1  0.4891890000000  0.4458760000000  0.5637040000000 1.0
C      1  0.4496190000000  0.4456280000000  0.4591210000000 1.0
C      1  0.5606040000000  0.4458800000000  0.4775910000000 1.0
C      1  0.4537940000000  0.5224720000000  0.5789650000000 1.0
C      1  0.5914910000000  0.5224890000000  0.5004490000000 1.0
C      1  0.4521180000000  0.5227260000000  0.4217350000000 1.0
C      1  0.4538240000000  0.4775060000000  0.4210400000000 1.0
C      1  0.5917210000000  0.4772690000000  0.5023660000000 1.0
C      1  0.4521590000000  0.4772630000000  0.5782760000000 1.0
C      1  0.5247890000000  0.5107510000000  0.4361580000000 1.0
C      1  0.4323960000000  0.5107540000000  0.5104680000000 1.0
C      1  0.5429410000000  0.5107870000000  0.5533200000000 1.0
C      1  0.5248330000000  0.4892690000000  0.5637660000000 1.0
C      1  0.4323930000000  0.4892410000000  0.4895440000000 1.0
C      1  0.5428870000000  0.4892310000000  0.4466030000000 1.0
C      1  0.5773960000000  0.4515140000000  0.5026680000000 1.0
C      1  0.4617060000000  0.4520290000000  0.4322350000000 1.0
C      1  0.4590920000000  0.4514890000000  0.5657980000000 1.0
C      1  0.5778230000000  0.5479530000000  0.4991960000000 1.0
C      1  0.4616430000000  0.5479630000000  0.5677820000000 1.0
C      1  0.4590430000000  0.5484880000000  0.4342530000000 1.0
C      1  0.4728170000000  0.5311210000000  0.4788040000000 1.0
C      1  0.4951680000000  0.5315670000000  0.5346310000000 1.0
C      1  0.5324260000000  0.5315220000000  0.4868710000000 1.0
C      1  0.4727730000000  0.4688660000000  0.5212210000000 1.0
C      1  0.4951580000000  0.4684640000000  0.4653190000000 1.0
C      1  0.5320120000000  0.4689110000000  0.5129640000000 1.0
END
