TITL C-3201379-3821-909 -1.09782632624932e-07 125000 -541.854560173744 0 0 89 (C1) n - 1
REM
REM in /home/nfs/bkarasulu/CARBON/AIRSS/Generating-Clusters/LCBOP/Higher-Symm/SD-CG/FIRE-CG
REM
REM
REM
REM
REM
REM ./C.cell (b20cbc046b6831c77cfcea5457e17084)
REM AIRSS Version 0.9.1 bugfix July 2018 build 013d7b7c2542+ Fri, 06 Jul 2018 19:26:36 +0100
REM compiler GCC version 9.2.1 20190827 (Red Hat 9.2.1-1)
REM options -cpp -mtune=generic -march=x86-64 -g -O0 -fpre-include=/usr/include/finclude/math-vector-fortran.h
REM seed -953339009 179250758 -1645268165 -1597785798 -1471450434 472810969 -161683890 -1352094981 1080369390 -381552375 -1720402729 1592188622 1399579488 70317876 2028951183 -1890749882 -1160241510 -479472825 1960450993 -264373351 1096987027 -438335241 1932638989 -1556819348 1866617386 -1897372873 869356445 -2000303967 -208323199 1259983660 1969252293 383130023 -584531872
REM
CELL 1.54180   50.00000   50.00000   50.00000   90.00000   90.00000   90.00000
LATT -1
SFAC C  
C      1  0.4716490000000  0.5680700000000  0.5070890000000 1.0
C      1  0.4538920000000  0.4225230000000  0.5109650000000 1.0
C      1  0.4353200000000  0.4633880000000  0.5115830000000 1.0
C      1  0.4402360000000  0.5366620000000  0.4863610000000 1.0
C      1  0.4426040000000  0.4581720000000  0.5387520000000 1.0
C      1  0.4411230000000  0.5404610000000  0.4571550000000 1.0
C      1  0.4466920000000  0.5539820000000  0.5090420000000 1.0
C      1  0.4294420000000  0.4371000000000  0.5005630000000 1.0
C      1  0.4638780000000  0.4379890000000  0.5353840000000 1.0
C      1  0.4893520000000  0.5604790000000  0.4865650000000 1.0
C      1  0.4964120000000  0.5311500000000  0.3714840000000 1.0
C      1  0.5101770000000  0.5207980000000  0.6050510000000 1.0
C      1  0.4377030000000  0.5484510000000  0.5365960000000 1.0
C      1  0.4008640000000  0.4407810000000  0.4953190000000 1.0
C      1  0.4854900000000  0.4643860000000  0.4784950000000 1.0
C      1  0.4743380000000  0.5042430000000  0.5021370000000 1.0
C      1  0.5034810000000  0.5994210000000  0.5274260000000 1.0
C      1  0.4935760000000  0.4008970000000  0.4814340000000 1.0
C      1  0.4217120000000  0.5241410000000  0.5388280000000 1.0
C      1  0.3875080000000  0.4652010000000  0.5003870000000 1.0
C      1  0.4853400000000  0.4612630000000  0.5723180000000 1.0
C      1  0.5005240000000  0.5440470000000  0.4422030000000 1.0
C      1  0.4585910000000  0.5305020000000  0.5799150000000 1.0
C      1  0.4780770000000  0.4814650000000  0.4282170000000 1.0
C      1  0.5186380000000  0.5437570000000  0.5901150000000 1.0
C      1  0.5485930000000  0.4616660000000  0.3839290000000 1.0
C      1  0.5484360000000  0.5250860000000  0.5598660000000 1.0
C      1  0.5508350000000  0.4648720000000  0.4348860000000 1.0
C      1  0.5194060000000  0.4926980000000  0.4675130000000 1.0
C      1  0.5226280000000  0.4904260000000  0.5285660000000 1.0
C      1  0.4934470000000  0.5288980000000  0.4195090000000 1.0
C      1  0.4859390000000  0.4846170000000  0.5878510000000 1.0
C      1  0.5284740000000  0.5915610000000  0.5344430000000 1.0
C      1  0.5177870000000  0.4058860000000  0.4706180000000 1.0
C      1  0.5564000000000  0.5225890000000  0.4988270000000 1.0
C      1  0.5312290000000  0.4466840000000  0.4903630000000 1.0
C      1  0.4700970000000  0.4743560000000  0.4557160000000 1.0
C      1  0.4675400000000  0.5106820000000  0.5309650000000 1.0
C      1  0.5090100000000  0.5591090000000  0.5663240000000 1.0
C      1  0.5236690000000  0.4575420000000  0.3750430000000 1.0
C      1  0.4992070000000  0.4578620000000  0.3857700000000 1.0
C      1  0.4824380000000  0.5648430000000  0.5546930000000 1.0
C      1  0.4508520000000  0.5178650000000  0.4419110000000 1.0
C      1  0.4381030000000  0.4795810000000  0.5556110000000 1.0
C      1  0.5365140000000  0.4270610000000  0.4698960000000 1.0
C      1  0.5315410000000  0.5665280000000  0.5472200000000 1.0
C      1  0.5671140000000  0.5244360000000  0.3531080000000 1.0
C      1  0.5851630000000  0.4936760000000  0.5909960000000 1.0
C      1  0.5367400000000  0.4568250000000  0.5696380000000 1.0
C      1  0.5506280000000  0.5382650000000  0.4216530000000 1.0
C      1  0.5387110000000  0.4880390000000  0.4468010000000 1.0
C      1  0.5326300000000  0.5029890000000  0.5520230000000 1.0
C      1  0.5612470000000  0.4850520000000  0.5995700000000 1.0
C      1  0.5527630000000  0.5288780000000  0.3744040000000 1.0
C      1  0.4873600000000  0.4524060000000  0.5454600000000 1.0
C      1  0.4990990000000  0.5401500000000  0.4699650000000 1.0
C      1  0.5410900000000  0.4466090000000  0.5446970000000 1.0
C      1  0.5594560000000  0.5372800000000  0.4467490000000 1.0
C      1  0.5394340000000  0.4439390000000  0.5175910000000 1.0
C      1  0.5612180000000  0.5301270000000  0.4723300000000 1.0
C      1  0.4578430000000  0.5505520000000  0.5592370000000 1.0
C      1  0.4849160000000  0.4647570000000  0.4071290000000 1.0
C      1  0.6008850000000  0.5049550000000  0.5724890000000 1.0
C      1  0.5681050000000  0.5381350000000  0.5198110000000 1.0
C      1  0.5462510000000  0.5366930000000  0.5853340000000 1.0
C      1  0.5592710000000  0.4657510000000  0.4081360000000 1.0
C      1  0.5374200000000  0.5327650000000  0.3974890000000 1.0
C      1  0.5355060000000  0.4767140000000  0.5909150000000 1.0
C      1  0.6048490000000  0.5185430000000  0.5497460000000 1.0
C      1  0.5941920000000  0.5317630000000  0.5288920000000 1.0
C      1  0.5392290000000  0.5012400000000  0.5072540000000 1.0
C      1  0.5140260000000  0.4657710000000  0.4773440000000 1.0
C      1  0.4505980000000  0.4953810000000  0.4612620000000 1.0
C      1  0.4426450000000  0.5049950000000  0.5448730000000 1.0
C      1  0.4824710000000  0.5806690000000  0.5301750000000 1.0
C      1  0.4715090000000  0.4066860000000  0.4956070000000 1.0
C      1  0.5115460000000  0.4927770000000  0.5977350000000 1.0
C      1  0.5089080000000  0.5307990000000  0.3958760000000 1.0
C      1  0.3983630000000  0.5134760000000  0.5256950000000 1.0
C      1  0.3990330000000  0.4916630000000  0.5068190000000 1.0
C      1  0.5009710000000  0.5136330000000  0.4791720000000 1.0
C      1  0.4993150000000  0.4714880000000  0.5268420000000 1.0
C      1  0.5490510000000  0.4392090000000  0.4475320000000 1.0
C      1  0.5502360000000  0.5459240000000  0.5403580000000 1.0
C      1  0.4725200000000  0.5101560000000  0.4240920000000 1.0
C      1  0.4666320000000  0.5058110000000  0.5878540000000 1.0
C      1  0.4270410000000  0.4877550000000  0.5009350000000 1.0
C      1  0.4467730000000  0.5064010000000  0.4889640000000 1.0
C      1  0.4817280000000  0.4759580000000  0.5044780000000 1.0
END
