TITL C-3201373-1215-1172 267.472263909499 125000 -1136.92656932136 0 0 186 (C1) n - 1
REM
REM in /home/nfs/bkarasulu/CARBON/AIRSS/Generating-Clusters/LCBOP/Higher-Symm/SD-CG/FIRE-CG
REM
REM
REM
REM
REM
REM ./C.cell (b20cbc046b6831c77cfcea5457e17084)
REM AIRSS Version 0.9.1 bugfix July 2018 build 013d7b7c2542+ Fri, 06 Jul 2018 19:26:36 +0100
REM compiler GCC version 9.2.1 20190827 (Red Hat 9.2.1-1)
REM options -cpp -mtune=generic -march=x86-64 -g -O0 -fpre-include=/usr/include/finclude/math-vector-fortran.h
REM seed 1816626465 1697003480 -878666441 1500715567 -820112176 1898764144 1306955437 -2093591713 1408634513 -952059298 -1969054941 -430180634 1739224625 -1900175837 -26273397 -867397321 -1703998301 -239789214 1622032226 -1866263541 -1352700644 -1150279152 2058272064 -765412545 496324284 -1258050113 -49189712 -1541661984 -648314749 1365698807 2119271086 -332459949 -1306893166
REM
CELL 1.54180   50.00000   50.00000   50.00000   90.00000   90.00000   90.00000
LATT -1
SFAC C  
C      1  0.5515410000000  0.4193050000000  0.5669070000000 1.0
C      1  0.4928470000000  0.3980090000000  0.5969100000000 1.0
C      1  0.4070760000000  0.4126160000000  0.4722200000000 1.0
C      1  0.5045320000000  0.4094430000000  0.4003970000000 1.0
C      1  0.5772060000000  0.4125750000000  0.4878630000000 1.0
C      1  0.4385660000000  0.4712290000000  0.5820020000000 1.0
C      1  0.4032930000000  0.4744440000000  0.4687780000000 1.0
C      1  0.5054550000000  0.4700610000000  0.3901500000000 1.0
C      1  0.6016290000000  0.4666510000000  0.4763920000000 1.0
C      1  0.5554060000000  0.4765190000000  0.5814640000000 1.0
C      1  0.4851070000000  0.4827690000000  0.5676770000000 1.0
C      1  0.4227580000000  0.4762990000000  0.5159910000000 1.0
C      1  0.4680990000000  0.4774520000000  0.4413740000000 1.0
C      1  0.5286540000000  0.4872510000000  0.4401310000000 1.0
C      1  0.5578720000000  0.4842470000000  0.5268890000000 1.0
C      1  0.4849150000000  0.3732020000000  0.5977640000000 1.0
C      1  0.4100870000000  0.4267750000000  0.4492190000000 1.0
C      1  0.5233140000000  0.4243880000000  0.3876030000000 1.0
C      1  0.5864390000000  0.4246070000000  0.5143260000000 1.0
C      1  0.5297420000000  0.4307330000000  0.5860480000000 1.0
C      1  0.5948110000000  0.4780580000000  0.4229800000000 1.0
C      1  0.6056350000000  0.4949960000000  0.5678310000000 1.0
C      1  0.4690820000000  0.4906010000000  0.6223020000000 1.0
C      1  0.3728260000000  0.5371730000000  0.4831170000000 1.0
C      1  0.4571650000000  0.4839230000000  0.3841590000000 1.0
C      1  0.5459310000000  0.5880960000000  0.6088490000000 1.0
C      1  0.4180300000000  0.5841500000000  0.5770420000000 1.0
C      1  0.4042940000000  0.5836320000000  0.4363970000000 1.0
C      1  0.5263970000000  0.5837760000000  0.4009900000000 1.0
C      1  0.6107950000000  0.5854320000000  0.4823980000000 1.0
C      1  0.4248470000000  0.4941900000000  0.4231570000000 1.0
C      1  0.5497270000000  0.4937090000000  0.3980460000000 1.0
C      1  0.6035740000000  0.5002190000000  0.5150380000000 1.0
C      1  0.5167430000000  0.5026190000000  0.6034280000000 1.0
C      1  0.3985940000000  0.4957150000000  0.5528630000000 1.0
C      1  0.4843680000000  0.4187060000000  0.4184360000000 1.0
C      1  0.5598640000000  0.4220270000000  0.4645440000000 1.0
C      1  0.5776250000000  0.4261170000000  0.5442870000000 1.0
C      1  0.5011010000000  0.4247220000000  0.5945880000000 1.0
C      1  0.4131040000000  0.4219590000000  0.4984580000000 1.0
C      1  0.5111930000000  0.5509940000000  0.6163080000000 1.0
C      1  0.3948700000000  0.5484980000000  0.5481310000000 1.0
C      1  0.4279690000000  0.5460460000000  0.4111000000000 1.0
C      1  0.5605250000000  0.5445480000000  0.4006060000000 1.0
C      1  0.6117050000000  0.5512440000000  0.5202880000000 1.0
C      1  0.4041040000000  0.5371000000000  0.4248900000000 1.0
C      1  0.5369310000000  0.5385950000000  0.3848550000000 1.0
C      1  0.6194310000000  0.5398350000000  0.4945730000000 1.0
C      1  0.5386870000000  0.5418880000000  0.6168280000000 1.0
C      1  0.4027320000000  0.5387730000000  0.5742360000000 1.0
C      1  0.4246350000000  0.4656010000000  0.4170930000000 1.0
C      1  0.5537220000000  0.4643810000000  0.3967080000000 1.0
C      1  0.6105990000000  0.4734830000000  0.5234180000000 1.0
C      1  0.5161650000000  0.4753220000000  0.6127020000000 1.0
C      1  0.3943410000000  0.4664890000000  0.5565850000000 1.0
C      1  0.5508930000000  0.4990630000000  0.4259710000000 1.0
C      1  0.5782460000000  0.5070940000000  0.5260910000000 1.0
C      1  0.4949100000000  0.5064370000000  0.5851040000000 1.0
C      1  0.4101760000000  0.5011390000000  0.5268920000000 1.0
C      1  0.4522520000000  0.4997040000000  0.4286710000000 1.0
C      1  0.4466960000000  0.6007530000000  0.5414410000000 1.0
C      1  0.4440030000000  0.5972020000000  0.4604580000000 1.0
C      1  0.5325700000000  0.5891650000000  0.4510590000000 1.0
C      1  0.5654430000000  0.5994920000000  0.4904150000000 1.0
C      1  0.5236900000000  0.6063740000000  0.5700860000000 1.0
C      1  0.6222160000000  0.5613110000000  0.4761800000000 1.0
C      1  0.5559960000000  0.5642350000000  0.6175130000000 1.0
C      1  0.4114170000000  0.5608600000000  0.5898270000000 1.0
C      1  0.3902110000000  0.5602830000000  0.4337550000000 1.0
C      1  0.5215190000000  0.5627650000000  0.3837800000000 1.0
C      1  0.5498500000000  0.5833580000000  0.4734820000000 1.0
C      1  0.5232880000000  0.5934810000000  0.5449400000000 1.0
C      1  0.4716500000000  0.5876500000000  0.5416530000000 1.0
C      1  0.4470790000000  0.5830430000000  0.4830520000000 1.0
C      1  0.5057260000000  0.5803410000000  0.4532290000000 1.0
C      1  0.5691940000000  0.5145950000000  0.4421770000000 1.0
C      1  0.5746210000000  0.5279300000000  0.5464500000000 1.0
C      1  0.4756330000000  0.5262290000000  0.5881390000000 1.0
C      1  0.4115400000000  0.5230130000000  0.5082950000000 1.0
C      1  0.4686280000000  0.5200760000000  0.4165680000000 1.0
C      1  0.4932080000000  0.4223000000000  0.4462690000000 1.0
C      1  0.5346640000000  0.4320770000000  0.4767190000000 1.0
C      1  0.5275640000000  0.4357860000000  0.5298240000000 1.0
C      1  0.4797440000000  0.4365410000000  0.5338700000000 1.0
C      1  0.4412190000000  0.4307150000000  0.5017890000000 1.0
C      1  0.3953100000000  0.5213420000000  0.4842980000000 1.0
C      1  0.4764600000000  0.5066050000000  0.3908430000000 1.0
C      1  0.5948790000000  0.5006650000000  0.4431130000000 1.0
C      1  0.5830710000000  0.5143930000000  0.5717660000000 1.0
C      1  0.4554470000000  0.5110290000000  0.6035940000000 1.0
C      1  0.5092950000000  0.5387040000000  0.5217320000000 1.0
C      1  0.4597520000000  0.5024920000000  0.5003700000000 1.0
C      1  0.4856380000000  0.4925810000000  0.4599160000000 1.0
C      1  0.5250660000000  0.5144370000000  0.4809460000000 1.0
C      1  0.5303580000000  0.5217340000000  0.5090280000000 1.0
C      1  0.5895120000000  0.5895380000000  0.5014950000000 1.0
C      1  0.5219980000000  0.5909880000000  0.5933050000000 1.0
C      1  0.4233530000000  0.5869700000000  0.5488850000000 1.0
C      1  0.4329970000000  0.5855500000000  0.4374980000000 1.0
C      1  0.5423270000000  0.5821130000000  0.4249620000000 1.0
C      1  0.4693460000000  0.5596400000000  0.5494440000000 1.0
C      1  0.4451160000000  0.5551130000000  0.4875150000000 1.0
C      1  0.4986670000000  0.5535910000000  0.4468920000000 1.0
C      1  0.5552240000000  0.5547090000000  0.4772900000000 1.0
C      1  0.5370170000000  0.5672740000000  0.5449390000000 1.0
C      1  0.5267090000000  0.4951180000000  0.5557660000000 1.0
C      1  0.4649490000000  0.5124910000000  0.5268200000000 1.0
C      1  0.4696810000000  0.5124360000000  0.4763920000000 1.0
C      1  0.5060540000000  0.5073650000000  0.4404290000000 1.0
C      1  0.5568030000000  0.4751340000000  0.4782450000000 1.0
C      1  0.4212600000000  0.4535930000000  0.4449820000000 1.0
C      1  0.5291330000000  0.4521700000000  0.3872310000000 1.0
C      1  0.5935650000000  0.4548820000000  0.5054910000000 1.0
C      1  0.5304880000000  0.4612340000000  0.5893530000000 1.0
C      1  0.4215380000000  0.4585580000000  0.5636150000000 1.0
C      1  0.5608340000000  0.4647810000000  0.5055670000000 1.0
C      1  0.5118960000000  0.4691290000000  0.5645110000000 1.0
C      1  0.4333730000000  0.4563760000000  0.5379810000000 1.0
C      1  0.4496450000000  0.4570880000000  0.4561190000000 1.0
C      1  0.5158830000000  0.4604680000000  0.4335240000000 1.0
C      1  0.4696250000000  0.5456970000000  0.4381480000000 1.0
C      1  0.5518100000000  0.5395700000000  0.4501300000000 1.0
C      1  0.5635240000000  0.5547790000000  0.5324610000000 1.0
C      1  0.4904650000000  0.5516480000000  0.5701490000000 1.0
C      1  0.4311720000000  0.5466990000000  0.5141680000000 1.0
C      1  0.4466700000000  0.5628690000000  0.4256410000000 1.0
C      1  0.5570020000000  0.5574380000000  0.4258110000000 1.0
C      1  0.5890920000000  0.5693760000000  0.5227150000000 1.0
C      1  0.5038130000000  0.5679960000000  0.5942250000000 1.0
C      1  0.4137920000000  0.5644650000000  0.5330530000000 1.0
C      1  0.5055170000000  0.4442130000000  0.5468470000000 1.0
C      1  0.4510500000000  0.4358270000000  0.5295460000000 1.0
C      1  0.4499360000000  0.4534760000000  0.4843920000000 1.0
C      1  0.5112580000000  0.4444460000000  0.4585660000000 1.0
C      1  0.5402650000000  0.4415800000000  0.5050640000000 1.0
C      1  0.4817820000000  0.4935600000000  0.5392120000000 1.0
C      1  0.4465400000000  0.4781930000000  0.4985970000000 1.0
C      1  0.5044520000000  0.4707010000000  0.4753290000000 1.0
C      1  0.5314130000000  0.4859900000000  0.4708250000000 1.0
C      1  0.5304290000000  0.4965180000000  0.5267320000000 1.0
C      1  0.5861610000000  0.4517740000000  0.5548640000000 1.0
C      1  0.4814010000000  0.4468460000000  0.6003020000000 1.0
C      1  0.3934030000000  0.4412880000000  0.5097040000000 1.0
C      1  0.4703690000000  0.4421520000000  0.4080220000000 1.0
C      1  0.5702930000000  0.4417370000000  0.4442960000000 1.0
C      1  0.5299550000000  0.5108550000000  0.3845380000000 1.0
C      1  0.6131280000000  0.5122590000000  0.4910040000000 1.0
C      1  0.5416730000000  0.5167240000000  0.6045930000000 1.0
C      1  0.4100140000000  0.5112540000000  0.5751280000000 1.0
C      1  0.4058970000000  0.5108900000000  0.4360150000000 1.0
C      1  0.5526550000000  0.5430280000000  0.5043890000000 1.0
C      1  0.5148660000000  0.5473760000000  0.5491120000000 1.0
C      1  0.4555470000000  0.5390330000000  0.5329690000000 1.0
C      1  0.4586410000000  0.5373760000000  0.4676140000000 1.0
C      1  0.5196600000000  0.5310030000000  0.4542610000000 1.0
C      1  0.5622460000000  0.5038910000000  0.5893600000000 1.0
C      1  0.4328220000000  0.4991970000000  0.5890990000000 1.0
C      1  0.3999390000000  0.5023390000000  0.4629220000000 1.0
C      1  0.5038660000000  0.4986900000000  0.3842490000000 1.0
C      1  0.6087370000000  0.4947570000000  0.4685140000000 1.0
C      1  0.3833220000000  0.4482610000000  0.5362400000000 1.0
C      1  0.4475280000000  0.4591910000000  0.3989390000000 1.0
C      1  0.5739830000000  0.4558520000000  0.4175480000000 1.0
C      1  0.6084970000000  0.4701020000000  0.5520300000000 1.0
C      1  0.4890090000000  0.4678570000000  0.6198450000000 1.0
C      1  0.4016330000000  0.4657180000000  0.4957280000000 1.0
C      1  0.4905630000000  0.4636910000000  0.4168460000000 1.0
C      1  0.5767290000000  0.4632540000000  0.4624370000000 1.0
C      1  0.5639720000000  0.4699740000000  0.5550950000000 1.0
C      1  0.4662440000000  0.4632460000000  0.5810610000000 1.0
C      1  0.4948540000000  0.6283580000000  0.5239440000000 1.0
C      1  0.5025790000000  0.4841380000000  0.5203260000000 1.0
C      1  0.4976500000000  0.5568650000000  0.5037220000000 1.0
C      1  0.4890310000000  0.6800750000000  0.5140350000000 1.0
C      1  0.4947440000000  0.2826760000000  0.4677580000000 1.0
C      1  0.4974110000000  0.4639810000000  0.5015810000000 1.0
C      1  0.4890570000000  0.4370720000000  0.5061620000000 1.0
C      1  0.4903940000000  0.4120320000000  0.4939590000000 1.0
C      1  0.4915660000000  0.3598980000000  0.4844810000000 1.0
C      1  0.4983610000000  0.5836860000000  0.5035370000000 1.0
C      1  0.4920290000000  0.6542130000000  0.5190030000000 1.0
C      1  0.4936630000000  0.3081360000000  0.4732620000000 1.0
C      1  0.4860740000000  0.7055130000000  0.5091510000000 1.0
C      1  0.4976130000000  0.5992950000000  0.5288060000000 1.0
C      1  0.4907310000000  0.3858430000000  0.4897780000000 1.0
C      1  0.4925830000000  0.3340220000000  0.4788620000000 1.0
END
