TITL C-3201372-1405-2142 3.44560922455841e-07 125000 -686.065307979877 0 0 111 (C1) n - 1
REM
REM in /home/nfs/bkarasulu/CARBON/AIRSS/Generating-Clusters/LCBOP/Higher-Symm/SD-CG/FIRE-CG
REM
REM
REM
REM
REM
REM ./C.cell (b20cbc046b6831c77cfcea5457e17084)
REM AIRSS Version 0.9.1 bugfix July 2018 build 013d7b7c2542+ Fri, 06 Jul 2018 19:26:36 +0100
REM compiler GCC version 9.2.1 20190827 (Red Hat 9.2.1-1)
REM options -cpp -mtune=generic -march=x86-64 -g -O0 -fpre-include=/usr/include/finclude/math-vector-fortran.h
REM seed -891489510 -815851683 937248464 175276897 -415346096 1050973198 -1002068120 -1785177243 -2051036796 -1633876908 -901270410 1123600937 -1566065907 1606186549 -901178470 -1243037183 -1417253749 1161638197 -383782047 -526066065 1126804382 23822293 -124317820 -1037688541 -1944898357 1479267584 -231357878 -1305381853 1403312645 318764490 696785143 1167403513 -1392875365
REM
CELL 1.54180   50.00000   50.00000   50.00000   90.00000   90.00000   90.00000
LATT -1
SFAC C  
C      1  0.5313240000000  0.5382480000000  0.5356410000000 1.0
C      1  0.5313040000000  0.4640420000000  0.5376200000000 1.0
C      1  0.5312190000000  0.4624750000000  0.4633050000000 1.0
C      1  0.5310790000000  0.5367080000000  0.4613550000000 1.0
C      1  0.4698190000000  0.4622470000000  0.5357760000000 1.0
C      1  0.4699190000000  0.5365160000000  0.5374250000000 1.0
C      1  0.4697840000000  0.5384130000000  0.4631440000000 1.0
C      1  0.4699630000000  0.4642230000000  0.4614760000000 1.0
C      1  0.5224760000000  0.4812350000000  0.4096280000000 1.0
C      1  0.5224970000000  0.5901410000000  0.4801590000000 1.0
C      1  0.5222890000000  0.5195600000000  0.5894160000000 1.0
C      1  0.5222870000000  0.4104090000000  0.5187250000000 1.0
C      1  0.4785620000000  0.5195410000000  0.4095440000000 1.0
C      1  0.4786590000000  0.4106520000000  0.4802020000000 1.0
C      1  0.4787000000000  0.4810250000000  0.5893880000000 1.0
C      1  0.4789340000000  0.5902900000000  0.5187550000000 1.0
C      1  0.5054920000000  0.4180630000000  0.4718690000000 1.0
C      1  0.5053340000000  0.5280460000000  0.4169540000000 1.0
C      1  0.5057010000000  0.5827030000000  0.5270670000000 1.0
C      1  0.5054980000000  0.4726780000000  0.5819290000000 1.0
C      1  0.4956320000000  0.5827810000000  0.4718280000000 1.0
C      1  0.4957000000000  0.4727540000000  0.4170420000000 1.0
C      1  0.4955180000000  0.4179110000000  0.5270890000000 1.0
C      1  0.4955290000000  0.5278950000000  0.5818450000000 1.0
C      1  0.5857030000000  0.4729270000000  0.4489250000000 1.0
C      1  0.5855230000000  0.5506630000000  0.4707700000000 1.0
C      1  0.5857080000000  0.5291850000000  0.5508880000000 1.0
C      1  0.5856640000000  0.4489130000000  0.5282200000000 1.0
C      1  0.4147750000000  0.5280530000000  0.4481950000000 1.0
C      1  0.4160990000000  0.4506220000000  0.4710910000000 1.0
C      1  0.4148170000000  0.4713200000000  0.5512610000000 1.0
C      1  0.4160270000000  0.5513380000000  0.5281640000000 1.0
C      1  0.5259340000000  0.4904950000000  0.5928960000000 1.0
C      1  0.5259430000000  0.4070800000000  0.4896480000000 1.0
C      1  0.5258550000000  0.5103290000000  0.4059620000000 1.0
C      1  0.5261530000000  0.5936320000000  0.5092430000000 1.0
C      1  0.4750520000000  0.5101060000000  0.5927730000000 1.0
C      1  0.4752280000000  0.5937300000000  0.4896940000000 1.0
C      1  0.4751900000000  0.4904330000000  0.4059750000000 1.0
C      1  0.4750520000000  0.4070200000000  0.5092650000000 1.0
C      1  0.4744530000000  0.4601020000000  0.4897040000000 1.0
C      1  0.4745300000000  0.5102560000000  0.4589110000000 1.0
C      1  0.4745610000000  0.5407990000000  0.5092730000000 1.0
C      1  0.4745690000000  0.4903740000000  0.5397820000000 1.0
C      1  0.5264990000000  0.5408670000000  0.4895580000000 1.0
C      1  0.5264980000000  0.4906170000000  0.4590030000000 1.0
C      1  0.5265930000000  0.4600870000000  0.5094560000000 1.0
C      1  0.5267120000000  0.5100870000000  0.5398090000000 1.0
C      1  0.5462460000000  0.4145830000000  0.5336840000000 1.0
C      1  0.5466100000000  0.4666090000000  0.4142490000000 1.0
C      1  0.5465120000000  0.5855960000000  0.4653110000000 1.0
C      1  0.5462400000000  0.5345190000000  0.5851970000000 1.0
C      1  0.4550130000000  0.5860600000000  0.5337480000000 1.0
C      1  0.4544120000000  0.5341830000000  0.4140410000000 1.0
C      1  0.4546400000000  0.4152840000000  0.4653980000000 1.0
C      1  0.4547230000000  0.4660820000000  0.5851740000000 1.0
C      1  0.4089330000000  0.5283200000000  0.5160750000000 1.0
C      1  0.4066080000000  0.4834720000000  0.5286430000000 1.0
C      1  0.4092960000000  0.4727030000000  0.4823060000000 1.0
C      1  0.4067590000000  0.5162940000000  0.4695590000000 1.0
C      1  0.5932860000000  0.4717390000000  0.5160980000000 1.0
C      1  0.5934190000000  0.5170520000000  0.5281000000000 1.0
C      1  0.5929000000000  0.5287300000000  0.4819020000000 1.0
C      1  0.5931260000000  0.4847350000000  0.4704890000000 1.0
C      1  0.4481680000000  0.5915530000000  0.4813720000000 1.0
C      1  0.4480180000000  0.5184450000000  0.5904700000000 1.0
C      1  0.4480200000000  0.4091690000000  0.5176680000000 1.0
C      1  0.4482190000000  0.4818720000000  0.4081430000000 1.0
C      1  0.5529830000000  0.4093680000000  0.4813030000000 1.0
C      1  0.5529790000000  0.4821360000000  0.5907770000000 1.0
C      1  0.5531910000000  0.5913860000000  0.5175970000000 1.0
C      1  0.5528270000000  0.5188930000000  0.4081190000000 1.0
C      1  0.4315400000000  0.4642330000000  0.5712850000000 1.0
C      1  0.4317930000000  0.4298000000000  0.4637920000000 1.0
C      1  0.4312830000000  0.5356270000000  0.4281190000000 1.0
C      1  0.4320270000000  0.5718500000000  0.5354980000000 1.0
C      1  0.5693250000000  0.5363540000000  0.5711560000000 1.0
C      1  0.5694590000000  0.5712490000000  0.4636170000000 1.0
C      1  0.5696070000000  0.4652380000000  0.4285550000000 1.0
C      1  0.5693350000000  0.4286280000000  0.5354650000000 1.0
C      1  0.4562830000000  0.4553040000000  0.5115950000000 1.0
C      1  0.4564050000000  0.4883340000000  0.4542910000000 1.0
C      1  0.4563440000000  0.5453740000000  0.4873750000000 1.0
C      1  0.4564610000000  0.5122850000000  0.5443690000000 1.0
C      1  0.5447750000000  0.5452880000000  0.5114280000000 1.0
C      1  0.5446130000000  0.5125610000000  0.4542820000000 1.0
C      1  0.5446950000000  0.4555130000000  0.4875070000000 1.0
C      1  0.5448410000000  0.4882180000000  0.5446250000000 1.0
C      1  0.5114110000000  0.5583730000000  0.5439580000000 1.0
C      1  0.5113100000000  0.4557620000000  0.5576640000000 1.0
C      1  0.5113640000000  0.4423090000000  0.4549920000000 1.0
C      1  0.5111660000000  0.5449740000000  0.4412130000000 1.0
C      1  0.4897730000000  0.4421630000000  0.5440320000000 1.0
C      1  0.4898410000000  0.5447870000000  0.5575420000000 1.0
C      1  0.4896760000000  0.5585790000000  0.4548610000000 1.0
C      1  0.4898700000000  0.4558960000000  0.4413510000000 1.0
C      1  0.4376950000000  0.4342000000000  0.5151970000000 1.0
C      1  0.4378930000000  0.4845020000000  0.4331480000000 1.0
C      1  0.4378070000000  0.5665330000000  0.4838400000000 1.0
C      1  0.4377990000000  0.5158030000000  0.5654170000000 1.0
C      1  0.5634350000000  0.5663300000000  0.5150390000000 1.0
C      1  0.5631440000000  0.5163330000000  0.4331370000000 1.0
C      1  0.5632750000000  0.4343990000000  0.4839170000000 1.0
C      1  0.5633620000000  0.4846610000000  0.5657780000000 1.0
C      1  0.5005130000000  0.4693670000000  0.4997040000000 1.0
C      1  0.5005350000000  0.5316190000000  0.4994390000000 1.0
C      1  0.5005090000000  0.5004320000000  0.4682240000000 1.0
C      1  0.5006510000000  0.5001340000000  0.5305020000000 1.0
C      1  0.5935070000000  0.4998610000000  0.5010390000000 1.0
C      1  0.4075550000000  0.5006330000000  0.5018260000000 1.0
C      1  0.5005500000000  0.5008640000000  0.4989940000000 1.0
END
