TITL C-3201376-6384-1354 -0.105304771025119 125000 -503.107726190475 0 0 84 (C1) n - 1
REM
REM in /home/nfs/bkarasulu/CARBON/AIRSS/Generating-Clusters/LCBOP/Higher-Symm/SD-CG/FIRE-CG
REM
REM
REM
REM
REM
REM ./C.cell (b20cbc046b6831c77cfcea5457e17084)
REM AIRSS Version 0.9.1 bugfix July 2018 build 013d7b7c2542+ Fri, 06 Jul 2018 19:26:36 +0100
REM compiler GCC version 9.2.1 20190827 (Red Hat 9.2.1-1)
REM options -cpp -mtune=generic -march=x86-64 -g -O0 -fpre-include=/usr/include/finclude/math-vector-fortran.h
REM seed -1619864397 1088058738 1547452362 1244013591 1269211227 528350823 -705057907 303958331 -1914828464 -833213631 -1376216318 -1084580852 -2026837880 -1323668289 -722746529 -1492305041 -2034842397 -1827961761 -721925954 -1467581658 1840322490 -1023326918 1386111616 -1357374482 -798214096 -1047176969 -1085992840 -43558262 1828980991 -416855633 -1994250387 -592440912 -1658687020
REM
CELL 1.54180   50.00000   50.00000   50.00000   90.00000   90.00000   90.00000
LATT -1
SFAC C  
C      1  0.4640320000000  0.5836810000000  0.4668580000000 1.0
C      1  0.4864630000000  0.4009850000000  0.4872710000000 1.0
C      1  0.4734390000000  0.5994980000000  0.4893080000000 1.0
C      1  0.4164710000000  0.5148580000000  0.5058500000000 1.0
C      1  0.5273080000000  0.4635410000000  0.4707380000000 1.0
C      1  0.4862260000000  0.5070570000000  0.4415750000000 1.0
C      1  0.4883600000000  0.5599200000000  0.5263830000000 1.0
C      1  0.4619170000000  0.5480530000000  0.3528050000000 1.0
C      1  0.5107340000000  0.4729150000000  0.5707040000000 1.0
C      1  0.4547050000000  0.5998950000000  0.5116350000000 1.0
C      1  0.5758180000000  0.5025220000000  0.4743760000000 1.0
C      1  0.4756310000000  0.4953410000000  0.5230520000000 1.0
C      1  0.5084010000000  0.5037080000000  0.4837800000000 1.0
C      1  0.5018270000000  0.6033570000000  0.4907780000000 1.0
C      1  0.4735220000000  0.4225400000000  0.5318580000000 1.0
C      1  0.5020070000000  0.4515740000000  0.5061060000000 1.0
C      1  0.4636390000000  0.4520840000000  0.5658230000000 1.0
C      1  0.5805410000000  0.4746260000000  0.4854500000000 1.0
C      1  0.4349820000000  0.5091170000000  0.4584890000000 1.0
C      1  0.5195300000000  0.5562850000000  0.4699730000000 1.0
C      1  0.5718590000000  0.4477350000000  0.4795310000000 1.0
C      1  0.4566290000000  0.4654340000000  0.4322150000000 1.0
C      1  0.5288710000000  0.5287590000000  0.5331680000000 1.0
C      1  0.4848650000000  0.4731330000000  0.5075260000000 1.0
C      1  0.5138750000000  0.4414920000000  0.4821280000000 1.0
C      1  0.4462500000000  0.5365990000000  0.4580570000000 1.0
C      1  0.4654410000000  0.5087690000000  0.4224810000000 1.0
C      1  0.5375660000000  0.4678100000000  0.5778690000000 1.0
C      1  0.4755990000000  0.5197990000000  0.5093510000000 1.0
C      1  0.5931280000000  0.4610930000000  0.5329120000000 1.0
C      1  0.5523540000000  0.5150820000000  0.4627560000000 1.0
C      1  0.4409360000000  0.5048990000000  0.5577550000000 1.0
C      1  0.4704050000000  0.5472540000000  0.5084180000000 1.0
C      1  0.4512820000000  0.4890540000000  0.5367340000000 1.0
C      1  0.5391240000000  0.4993330000000  0.4420670000000 1.0
C      1  0.4272570000000  0.5351840000000  0.5231810000000 1.0
C      1  0.4674220000000  0.5566070000000  0.4581310000000 1.0
C      1  0.5910540000000  0.5160340000000  0.5642750000000 1.0
C      1  0.4539640000000  0.5802100000000  0.5586640000000 1.0
C      1  0.6022510000000  0.5182670000000  0.5400220000000 1.0
C      1  0.6015530000000  0.5066870000000  0.5146550000000 1.0
C      1  0.5754040000000  0.4992630000000  0.5782650000000 1.0
C      1  0.5049030000000  0.5004960000000  0.5658850000000 1.0
C      1  0.5123680000000  0.6265280000000  0.5007430000000 1.0
C      1  0.4856830000000  0.4967190000000  0.4680000000000 1.0
C      1  0.4416530000000  0.4746460000000  0.4929870000000 1.0
C      1  0.5391000000000  0.5334670000000  0.5084300000000 1.0
C      1  0.4531880000000  0.4427310000000  0.5388790000000 1.0
C      1  0.5685290000000  0.4371410000000  0.4533150000000 1.0
C      1  0.5528030000000  0.4299200000000  0.4325380000000 1.0
C      1  0.5802010000000  0.4576750000000  0.5561250000000 1.0
C      1  0.5247200000000  0.4218030000000  0.5376680000000 1.0
C      1  0.5621060000000  0.4319060000000  0.5014220000000 1.0
C      1  0.5110020000000  0.4560480000000  0.4265060000000 1.0
C      1  0.4630640000000  0.5348340000000  0.3752460000000 1.0
C      1  0.5049770000000  0.4160430000000  0.4746200000000 1.0
C      1  0.4383900000000  0.5321920000000  0.5504950000000 1.0
C      1  0.4591370000000  0.5516340000000  0.5599680000000 1.0
C      1  0.4485450000000  0.4662010000000  0.5848740000000 1.0
C      1  0.5187780000000  0.5824230000000  0.4814220000000 1.0
C      1  0.4449240000000  0.4921710000000  0.4356320000000 1.0
C      1  0.5645850000000  0.4736160000000  0.5733580000000 1.0
C      1  0.4987650000000  0.4288370000000  0.5464460000000 1.0
C      1  0.5947460000000  0.4785180000000  0.5111050000000 1.0
C      1  0.4580860000000  0.6001830000000  0.5401450000000 1.0
C      1  0.4642130000000  0.5215050000000  0.3981110000000 1.0
C      1  0.5462090000000  0.4235570000000  0.5215080000000 1.0
C      1  0.4929700000000  0.4510500000000  0.5650380000000 1.0
C      1  0.4820930000000  0.4561060000000  0.4265670000000 1.0
C      1  0.5289910000000  0.4346710000000  0.4201040000000 1.0
C      1  0.5387080000000  0.5363460000000  0.4793100000000 1.0
C      1  0.4692260000000  0.4770720000000  0.4825780000000 1.0
C      1  0.5280460000000  0.4856760000000  0.4887000000000 1.0
C      1  0.4342280000000  0.5807490000000  0.5054440000000 1.0
C      1  0.5937450000000  0.5192410000000  0.4901400000000 1.0
C      1  0.5258870000000  0.4737350000000  0.4439070000000 1.0
C      1  0.4731530000000  0.4044760000000  0.5104150000000 1.0
C      1  0.4876360000000  0.5463240000000  0.5522220000000 1.0
C      1  0.4384180000000  0.4911490000000  0.5820620000000 1.0
C      1  0.4416330000000  0.4647350000000  0.5223470000000 1.0
C      1  0.4263140000000  0.4980480000000  0.4845160000000 1.0
C      1  0.4952840000000  0.5498080000000  0.4563740000000 1.0
C      1  0.5079910000000  0.5257720000000  0.5532220000000 1.0
C      1  0.4423600000000  0.5541930000000  0.5086530000000 1.0
END
