TITL C-3201373-1215-603 -283.007560419266 125000 -1139.3807054627 0 0 186 (C1) n - 1
REM
REM in /home/nfs/bkarasulu/CARBON/AIRSS/Generating-Clusters/LCBOP/Higher-Symm/SD-CG/FIRE-CG
REM
REM
REM
REM
REM
REM ./C.cell (b20cbc046b6831c77cfcea5457e17084)
REM AIRSS Version 0.9.1 bugfix July 2018 build 013d7b7c2542+ Fri, 06 Jul 2018 19:26:36 +0100
REM compiler GCC version 9.2.1 20190827 (Red Hat 9.2.1-1)
REM options -cpp -mtune=generic -march=x86-64 -g -O0 -fpre-include=/usr/include/finclude/math-vector-fortran.h
REM seed 1099729557 1416266514 -2129897194 1296504720 -1215547877 1995080264 -1462926388 1528011006 238227588 -943411721 2098327966 -1339494838 1218857784 -586357070 -1524520698 -711766940 -779439433 499737915 -1773168040 92030047 -1406690393 -919850364 182781575 428335125 554569077 -1076638085 1595764933 936757072 -1159368864 -1086378992 1837079266 -2058953746 1561502759
REM
CELL 1.54180   50.00000   50.00000   50.00000   90.00000   90.00000   90.00000
LATT -1
SFAC C  
C      1  0.5415890000000  0.5368660000000  0.5444970000000 1.0
C      1  0.5167740000000  0.4461550000000  0.4501250000000 1.0
C      1  0.5240650000000  0.5480760000000  0.4483840000000 1.0
C      1  0.5196320000000  0.4648770000000  0.5422400000000 1.0
C      1  0.5217490000000  0.4753320000000  0.6587730000000 1.0
C      1  0.5219220000000  0.5239680000000  0.3400280000000 1.0
C      1  0.5145120000000  0.5194410000000  0.3650700000000 1.0
C      1  0.5157930000000  0.4788630000000  0.6331920000000 1.0
C      1  0.5190150000000  0.4839360000000  0.4796920000000 1.0
C      1  0.5461890000000  0.5198110000000  0.5039230000000 1.0
C      1  0.5379390000000  0.4777150000000  0.4999170000000 1.0
C      1  0.5235910000000  0.5276480000000  0.4899170000000 1.0
C      1  0.4803410000000  0.5609990000000  0.5265140000000 1.0
C      1  0.4610830000000  0.4404790000000  0.4726400000000 1.0
C      1  0.4707890000000  0.5652400000000  0.4630510000000 1.0
C      1  0.4596420000000  0.4401670000000  0.5318710000000 1.0
C      1  0.4327450000000  0.4652180000000  0.4004150000000 1.0
C      1  0.4386470000000  0.5244810000000  0.5990100000000 1.0
C      1  0.4339340000000  0.4642270000000  0.6038690000000 1.0
C      1  0.4324550000000  0.5262120000000  0.3993360000000 1.0
C      1  0.5178150000000  0.5393100000000  0.5600900000000 1.0
C      1  0.4973950000000  0.4650030000000  0.4404110000000 1.0
C      1  0.4992030000000  0.5387720000000  0.4340800000000 1.0
C      1  0.4973580000000  0.4698060000000  0.5607580000000 1.0
C      1  0.5606420000000  0.5799960000000  0.4061090000000 1.0
C      1  0.5433470000000  0.4265320000000  0.5976600000000 1.0
C      1  0.5549300000000  0.5894400000000  0.5889660000000 1.0
C      1  0.5556360000000  0.4118200000000  0.4144230000000 1.0
C      1  0.5735380000000  0.4339010000000  0.4112670000000 1.0
C      1  0.5704090000000  0.5660730000000  0.5922690000000 1.0
C      1  0.5581650000000  0.4506850000000  0.5980490000000 1.0
C      1  0.5760150000000  0.5563710000000  0.4093650000000 1.0
C      1  0.5880440000000  0.4504120000000  0.5613950000000 1.0
C      1  0.5891160000000  0.5505000000000  0.4552090000000 1.0
C      1  0.5858170000000  0.4470330000000  0.4551990000000 1.0
C      1  0.6018700000000  0.5625260000000  0.5557320000000 1.0
C      1  0.5732690000000  0.4228520000000  0.5220400000000 1.0
C      1  0.5854940000000  0.5893830000000  0.4836460000000 1.0
C      1  0.5746260000000  0.4183240000000  0.4932980000000 1.0
C      1  0.5878430000000  0.5878230000000  0.5131630000000 1.0
C      1  0.4945630000000  0.3996190000000  0.4748100000000 1.0
C      1  0.5053370000000  0.6043590000000  0.5201090000000 1.0
C      1  0.4938670000000  0.4017550000000  0.5327110000000 1.0
C      1  0.5022840000000  0.6046300000000  0.4630260000000 1.0
C      1  0.4412770000000  0.4182320000000  0.4634430000000 1.0
C      1  0.4525900000000  0.5712410000000  0.5343580000000 1.0
C      1  0.4420240000000  0.4165570000000  0.5425320000000 1.0
C      1  0.4439800000000  0.5755980000000  0.4602930000000 1.0
C      1  0.4392800000000  0.5074150000000  0.5484810000000 1.0
C      1  0.4527040000000  0.4881950000000  0.4547490000000 1.0
C      1  0.4529020000000  0.5179390000000  0.4547920000000 1.0
C      1  0.4391410000000  0.4782990000000  0.5551470000000 1.0
C      1  0.5499500000000  0.4148210000000  0.4774540000000 1.0
C      1  0.5626820000000  0.5832500000000  0.5259660000000 1.0
C      1  0.5481160000000  0.4191270000000  0.5349750000000 1.0
C      1  0.5581870000000  0.5918370000000  0.4682870000000 1.0
C      1  0.4117690000000  0.5092610000000  0.3877730000000 1.0
C      1  0.4125730000000  0.4829610000000  0.6092960000000 1.0
C      1  0.4146880000000  0.5104200000000  0.6069540000000 1.0
C      1  0.4118660000000  0.4815110000000  0.3883990000000 1.0
C      1  0.5095970000000  0.5163950000000  0.5747420000000 1.0
C      1  0.5093130000000  0.4907560000000  0.4331620000000 1.0
C      1  0.5034300000000  0.5145200000000  0.4179310000000 1.0
C      1  0.5044480000000  0.4891750000000  0.5812210000000 1.0
C      1  0.5582390000000  0.5555280000000  0.5271660000000 1.0
C      1  0.5396910000000  0.4397590000000  0.4654400000000 1.0
C      1  0.5445380000000  0.5653610000000  0.4628790000000 1.0
C      1  0.5293690000000  0.4401180000000  0.5342230000000 1.0
C      1  0.4557040000000  0.5093020000000  0.4009380000000 1.0
C      1  0.4583760000000  0.4792490000000  0.6062720000000 1.0
C      1  0.4605900000000  0.5065380000000  0.6038120000000 1.0
C      1  0.4561830000000  0.4819140000000  0.4013060000000 1.0
C      1  0.4946720000000  0.4946880000000  0.4880820000000 1.0
C      1  0.4633250000000  0.5128560000000  0.5319200000000 1.0
C      1  0.4724880000000  0.4863720000000  0.5263810000000 1.0
C      1  0.4969460000000  0.5218090000000  0.4976160000000 1.0
C      1  0.6114700000000  0.4554200000000  0.5202940000000 1.0
C      1  0.6275890000000  0.5590870000000  0.4854780000000 1.0
C      1  0.6178580000000  0.4457730000000  0.4926360000000 1.0
C      1  0.6246840000000  0.5546720000000  0.5142450000000 1.0
C      1  0.3728480000000  0.4554350000000  0.5248880000000 1.0
C      1  0.3782130000000  0.5320380000000  0.4743040000000 1.0
C      1  0.3818430000000  0.4614720000000  0.4712260000000 1.0
C      1  0.3679850000000  0.5265300000000  0.5324830000000 1.0
C      1  0.5265670000000  0.5918260000000  0.5918090000000 1.0
C      1  0.5277360000000  0.4115140000000  0.4074910000000 1.0
C      1  0.5328490000000  0.5800970000000  0.3992600000000 1.0
C      1  0.5150180000000  0.4245790000000  0.6007860000000 1.0
C      1  0.5147000000000  0.5931610000000  0.4151150000000 1.0
C      1  0.4996850000000  0.4118320000000  0.5820480000000 1.0
C      1  0.5114240000000  0.6005830000000  0.5706000000000 1.0
C      1  0.5085790000000  0.4025380000000  0.4250970000000 1.0
C      1  0.3745700000000  0.4323610000000  0.5084860000000 1.0
C      1  0.3731380000000  0.5536720000000  0.4917510000000 1.0
C      1  0.3795930000000  0.4354100000000  0.4819360000000 1.0
C      1  0.3675580000000  0.5509610000000  0.5181740000000 1.0
C      1  0.4276020000000  0.5283630000000  0.4663480000000 1.0
C      1  0.4195390000000  0.4639820000000  0.5380380000000 1.0
C      1  0.4155020000000  0.5218290000000  0.5419520000000 1.0
C      1  0.4293300000000  0.4755510000000  0.4683360000000 1.0
C      1  0.4288310000000  0.5343270000000  0.4935450000000 1.0
C      1  0.4359910000000  0.4539900000000  0.5157120000000 1.0
C      1  0.4183300000000  0.5352500000000  0.5176610000000 1.0
C      1  0.4394960000000  0.4575690000000  0.4885960000000 1.0
C      1  0.3945470000000  0.5135660000000  0.4336460000000 1.0
C      1  0.3826920000000  0.4741360000000  0.5678260000000 1.0
C      1  0.3813580000000  0.5009000000000  0.5708020000000 1.0
C      1  0.3964670000000  0.4867740000000  0.4340920000000 1.0
C      1  0.4381400000000  0.5832330000000  0.5124080000000 1.0
C      1  0.4326130000000  0.4045370000000  0.4887500000000 1.0
C      1  0.4338190000000  0.5850270000000  0.4854510000000 1.0
C      1  0.4328610000000  0.4035270000000  0.5168430000000 1.0
C      1  0.6078880000000  0.5718720000000  0.5290190000000 1.0
C      1  0.5966540000000  0.4314800000000  0.4783620000000 1.0
C      1  0.6047970000000  0.5710030000000  0.4704400000000 1.0
C      1  0.5928250000000  0.4399020000000  0.5356680000000 1.0
C      1  0.5800700000000  0.4942140000000  0.5827600000000 1.0
C      1  0.5888470000000  0.5097600000000  0.4239890000000 1.0
C      1  0.5891140000000  0.4823910000000  0.4214670000000 1.0
C      1  0.5857280000000  0.5206050000000  0.5798340000000 1.0
C      1  0.4321150000000  0.5685300000000  0.4347950000000 1.0
C      1  0.4342330000000  0.4212140000000  0.5698160000000 1.0
C      1  0.4438180000000  0.5636480000000  0.5607470000000 1.0
C      1  0.4321920000000  0.4236060000000  0.4365890000000 1.0
C      1  0.3640760000000  0.5084840000000  0.4804220000000 1.0
C      1  0.3605310000000  0.4780390000000  0.5126060000000 1.0
C      1  0.3562010000000  0.5044580000000  0.5199730000000 1.0
C      1  0.3656810000000  0.4810900000000  0.4837950000000 1.0
C      1  0.5293120000000  0.5285690000000  0.3154550000000 1.0
C      1  0.5278370000000  0.4715290000000  0.6838340000000 1.0
C      1  0.5103800000000  0.4809930000000  0.6073300000000 1.0
C      1  0.5077920000000  0.5160400000000  0.3904600000000 1.0
C      1  0.4004590000000  0.5290700000000  0.4562730000000 1.0
C      1  0.3922060000000  0.4609060000000  0.5447860000000 1.0
C      1  0.3885550000000  0.5200190000000  0.5514700000000 1.0
C      1  0.4036650000000  0.4716400000000  0.4566030000000 1.0
C      1  0.5656030000000  0.5479560000000  0.4722740000000 1.0
C      1  0.5632900000000  0.4736430000000  0.4890340000000 1.0
C      1  0.5681690000000  0.5390500000000  0.5015870000000 1.0
C      1  0.5615870000000  0.4576040000000  0.4662580000000 1.0
C      1  0.5661190000000  0.6030330000000  0.4226270000000 1.0
C      1  0.5523340000000  0.4051770000000  0.5805080000000 1.0
C      1  0.5631990000000  0.6063970000000  0.5673040000000 1.0
C      1  0.5593100000000  0.3930620000000  0.4362120000000 1.0
C      1  0.5417850000000  0.3945280000000  0.4591310000000 1.0
C      1  0.5498940000000  0.6019070000000  0.5423640000000 1.0
C      1  0.5388610000000  0.4015310000000  0.5554630000000 1.0
C      1  0.5494880000000  0.6074690000000  0.4457540000000 1.0
C      1  0.5129470000000  0.3964440000000  0.4527990000000 1.0
C      1  0.5210710000000  0.6036480000000  0.5437040000000 1.0
C      1  0.5092290000000  0.4019110000000  0.5569910000000 1.0
C      1  0.5203830000000  0.6045590000000  0.4407490000000 1.0
C      1  0.4304150000000  0.5509530000000  0.4137800000000 1.0
C      1  0.4323640000000  0.4390680000000  0.5903860000000 1.0
C      1  0.4406080000000  0.5477540000000  0.5826120000000 1.0
C      1  0.4305940000000  0.4410630000000  0.4156210000000 1.0
C      1  0.5031910000000  0.6283640000000  0.5052380000000 1.0
C      1  0.4917800000000  0.3764470000000  0.4912560000000 1.0
C      1  0.5010880000000  0.6286050000000  0.4782940000000 1.0
C      1  0.4924150000000  0.3773390000000  0.5182470000000 1.0
C      1  0.5872180000000  0.5491100000000  0.5765960000000 1.0
C      1  0.5866870000000  0.4538290000000  0.4273210000000 1.0
C      1  0.5867790000000  0.5384320000000  0.4289490000000 1.0
C      1  0.5757160000000  0.4659150000000  0.5816040000000 1.0
C      1  0.6092270000000  0.4890450000000  0.4745900000000 1.0
C      1  0.5951990000000  0.5262700000000  0.4997590000000 1.0
C      1  0.5881920000000  0.4839300000000  0.4948750000000 1.0
C      1  0.6116400000000  0.5168200000000  0.4766000000000 1.0
C      1  0.4900480000000  0.5816310000000  0.4771490000000 1.0
C      1  0.4820810000000  0.4244980000000  0.5176340000000 1.0
C      1  0.4932410000000  0.5810410000000  0.5068940000000 1.0
C      1  0.4826850000000  0.4238500000000  0.4877230000000 1.0
C      1  0.4745900000000  0.5393620000000  0.4500500000000 1.0
C      1  0.4685180000000  0.4667210000000  0.5486910000000 1.0
C      1  0.4980980000000  0.5571100000000  0.5507790000000 1.0
C      1  0.4713690000000  0.4641360000000  0.4524060000000 1.0
C      1  0.6107750000000  0.5188700000000  0.5215830000000 1.0
C      1  0.6277170000000  0.4674480000000  0.4759920000000 1.0
C      1  0.6332810000000  0.5343730000000  0.4719480000000 1.0
C      1  0.6045830000000  0.4844510000000  0.5198830000000 1.0
C      1  0.5329320000000  0.4849050000000  0.5275940000000 1.0
C      1  0.5290740000000  0.5237560000000  0.4624770000000 1.0
C      1  0.5267100000000  0.4968920000000  0.4550120000000 1.0
C      1  0.5420230000000  0.5111320000000  0.5310360000000 1.0
C      1  0.4783270000000  0.5323400000000  0.5166550000000 1.0
C      1  0.4777580000000  0.4783990000000  0.5011650000000 1.0
END
