TITL C-3201376-6384-2024 -759.334317968047 125000 -1019.10958301862 0 0 168 (C2) n - 1
REM
REM in /home/nfs/bkarasulu/CARBON/AIRSS/Generating-Clusters/LCBOP/Higher-Symm/SD-CG/FIRE-CG
REM
REM
REM
REM
REM
REM ./C.cell (b20cbc046b6831c77cfcea5457e17084)
REM AIRSS Version 0.9.1 bugfix July 2018 build 013d7b7c2542+ Fri, 06 Jul 2018 19:26:36 +0100
REM compiler GCC version 9.2.1 20190827 (Red Hat 9.2.1-1)
REM options -cpp -mtune=generic -march=x86-64 -g -O0 -fpre-include=/usr/include/finclude/math-vector-fortran.h
REM seed 1765134450 -1045924424 -1194747497 2135486737 -1521705132 1091297330 -1780269720 1967991127 43249138 -59175193 1168090071 2068103060 1126903067 405786100 -474678622 1249974202 -136813393 2133153232 -1187287704 -927178362 -1505591144 1825670300 443862939 -939697992 -53009490 650731893 -1240960504 915536196 -1034199277 -1139277902 -1780688523 265077911 1346143081
REM
CELL 1.54180   50.00000   50.00000   50.00000   90.00000   90.00000   90.00000
LATT -1
SFAC C  
C      1  0.5527780000000  0.5633890000000  0.4940600000000 1.0
C      1  0.4739040000000  0.5710360000000  0.5455340000000 1.0
C      1  0.4744030000000  0.5665970000000  0.4636010000000 1.0
C      1  0.4556710000000  0.4334090000000  0.4960230000000 1.0
C      1  0.5212320000000  0.4366050000000  0.5486750000000 1.0
C      1  0.5263810000000  0.4289640000000  0.4546310000000 1.0
C      1  0.4887320000000  0.4409710000000  0.4179980000000 1.0
C      1  0.5706960000000  0.4370180000000  0.5315970000000 1.0
C      1  0.4406550000000  0.4387140000000  0.5474980000000 1.0
C      1  0.5114770000000  0.5612890000000  0.4248630000000 1.0
C      1  0.4233540000000  0.5590360000000  0.5312390000000 1.0
C      1  0.5627150000000  0.5629710000000  0.5454370000000 1.0
C      1  0.4872600000000  0.4783180000000  0.5881750000000 1.0
C      1  0.4322210000000  0.4748640000000  0.4453120000000 1.0
C      1  0.5808230000000  0.4704560000000  0.4689450000000 1.0
C      1  0.5135130000000  0.5295360000000  0.5855260000000 1.0
C      1  0.5700000000000  0.5216770000000  0.4448880000000 1.0
C      1  0.4187550000000  0.5251480000000  0.4686390000000 1.0
C      1  0.5119600000000  0.4904560000000  0.4136420000000 1.0
C      1  0.5662420000000  0.4904540000000  0.5531150000000 1.0
C      1  0.4208530000000  0.4882830000000  0.5325420000000 1.0
C      1  0.4886190000000  0.5117250000000  0.4151850000000 1.0
C      1  0.4311870000000  0.5095480000000  0.5535300000000 1.0
C      1  0.5791180000000  0.5095340000000  0.5308180000000 1.0
C      1  0.6048430000000  0.4996570000000  0.5183340000000 1.0
C      1  0.4317450000000  0.5011350000000  0.5818870000000 1.0
C      1  0.4634850000000  0.5052790000000  0.4009060000000 1.0
C      1  0.3959220000000  0.4947330000000  0.5179130000000 1.0
C      1  0.5682910000000  0.5003290000000  0.5816360000000 1.0
C      1  0.5367990000000  0.4988680000000  0.3999490000000 1.0
C      1  0.4764600000000  0.4320200000000  0.5158870000000 1.0
C      1  0.4978430000000  0.4237860000000  0.4613890000000 1.0
C      1  0.5243850000000  0.4285550000000  0.5206010000000 1.0
C      1  0.5300410000000  0.5714400000000  0.5108250000000 1.0
C      1  0.5020000000000  0.5679820000000  0.4716750000000 1.0
C      1  0.4654910000000  0.5762170000000  0.5174390000000 1.0
C      1  0.4450580000000  0.5566750000000  0.5119980000000 1.0
C      1  0.5180920000000  0.5537180000000  0.4527490000000 1.0
C      1  0.5352210000000  0.5581380000000  0.5356810000000 1.0
C      1  0.5485020000000  0.4418550000000  0.5126620000000 1.0
C      1  0.4829180000000  0.4433310000000  0.4464150000000 1.0
C      1  0.4681150000000  0.4462840000000  0.5392870000000 1.0
C      1  0.5284670000000  0.4127700000000  0.4293390000000 1.0
C      1  0.5371650000000  0.4148460000000  0.5614270000000 1.0
C      1  0.4381150000000  0.4116820000000  0.5067510000000 1.0
C      1  0.4749200000000  0.5883250000000  0.4430340000000 1.0
C      1  0.4530440000000  0.5872310000000  0.5599860000000 1.0
C      1  0.5717900000000  0.5851450000000  0.5014850000000 1.0
C      1  0.5258580000000  0.5985600000000  0.4993300000000 1.0
C      1  0.4575810000000  0.6041840000000  0.5181960000000 1.0
C      1  0.5082100000000  0.5964310000000  0.4770280000000 1.0
C      1  0.4841970000000  0.4035700000000  0.5185880000000 1.0
C      1  0.5123340000000  0.4014370000000  0.5227230000000 1.0
C      1  0.4945400000000  0.3958200000000  0.4541580000000 1.0
C      1  0.5264580000000  0.4803100000000  0.4458780000000 1.0
C      1  0.5343390000000  0.4851440000000  0.5505800000000 1.0
C      1  0.4422440000000  0.4827030000000  0.5041140000000 1.0
C      1  0.4746920000000  0.5173030000000  0.4479240000000 1.0
C      1  0.4663550000000  0.5196910000000  0.5499720000000 1.0
C      1  0.5609740000000  0.5148490000000  0.5044560000000 1.0
C      1  0.5893900000000  0.5087680000000  0.4014930000000 1.0
C      1  0.5396090000000  0.5136940000000  0.6247930000000 1.0
C      1  0.3739320000000  0.5039450000000  0.4702230000000 1.0
C      1  0.4111870000000  0.4960720000000  0.4057010000000 1.0
C      1  0.4593710000000  0.4912280000000  0.6266630000000 1.0
C      1  0.6278800000000  0.4862930000000  0.4719170000000 1.0
C      1  0.4989970000000  0.5119500000000  0.4648020000000 1.0
C      1  0.5323690000000  0.5141000000000  0.5153000000000 1.0
C      1  0.4696250000000  0.5162690000000  0.5203880000000 1.0
C      1  0.5024710000000  0.4837330000000  0.4634990000000 1.0
C      1  0.4690130000000  0.4880520000000  0.5167270000000 1.0
C      1  0.5294310000000  0.4858950000000  0.5203840000000 1.0
C      1  0.5455590000000  0.5044750000000  0.4566200000000 1.0
C      1  0.5153700000000  0.5108730000000  0.5599390000000 1.0
C      1  0.4404010000000  0.5073010000000  0.4831550000000 1.0
C      1  0.4556160000000  0.4927070000000  0.4568030000000 1.0
C      1  0.4852050000000  0.4955220000000  0.5611430000000 1.0
C      1  0.5595940000000  0.4891210000000  0.4833460000000 1.0
C      1  0.4612470000000  0.5427990000000  0.4564200000000 1.0
C      1  0.5637540000000  0.5388850000000  0.4876840000000 1.0
C      1  0.4787780000000  0.5459930000000  0.5576780000000 1.0
C      1  0.5393390000000  0.4540060000000  0.4527830000000 1.0
C      1  0.4428780000000  0.4572090000000  0.4882200000000 1.0
C      1  0.5212000000000  0.4611080000000  0.5613700000000 1.0
C      1  0.5311750000000  0.3397070000000  0.5609730000000 1.0
C      1  0.4479820000000  0.3383800000000  0.5212490000000 1.0
C      1  0.5183850000000  0.3414420000000  0.4077870000000 1.0
C      1  0.4293470000000  0.6585620000000  0.5620330000000 1.0
C      1  0.5684110000000  0.6602850000000  0.4965300000000 1.0
C      1  0.4924180000000  0.6616240000000  0.4443370000000 1.0
C      1  0.4469440000000  0.5285330000000  0.3966880000000 1.0
C      1  0.6203020000000  0.5208400000000  0.5060150000000 1.0
C      1  0.4336450000000  0.5230670000000  0.6004410000000 1.0
C      1  0.5538140000000  0.4769340000000  0.3923180000000 1.0
C      1  0.3839970000000  0.4714810000000  0.5056940000000 1.0
C      1  0.5653470000000  0.4791450000000  0.6011820000000 1.0
C      1  0.4333570000000  0.5664670000000  0.5653750000000 1.0
C      1  0.4806290000000  0.5709410000000  0.4187070000000 1.0
C      1  0.5877990000000  0.5702330000000  0.5203640000000 1.0
C      1  0.5615210000000  0.4297550000000  0.5658550000000 1.0
C      1  0.5232950000000  0.4335370000000  0.4095950000000 1.0
C      1  0.4199020000000  0.4290670000000  0.5238580000000 1.0
C      1  0.5484050000000  0.4501090000000  0.4034360000000 1.0
C      1  0.5576310000000  0.4511750000000  0.5928580000000 1.0
C      1  0.3985570000000  0.4448130000000  0.5057930000000 1.0
C      1  0.4543110000000  0.5551990000000  0.4092500000000 1.0
C      1  0.4405720000000  0.5498910000000  0.5901990000000 1.0
C      1  0.6092380000000  0.5488120000000  0.5034950000000 1.0
C      1  0.4487990000000  0.6116360000000  0.5449030000000 1.0
C      1  0.4916220000000  0.6091860000000  0.4561520000000 1.0
C      1  0.5540180000000  0.6086030000000  0.4996220000000 1.0
C      1  0.5266640000000  0.3913910000000  0.5469640000000 1.0
C      1  0.5132790000000  0.3883670000000  0.4332000000000 1.0
C      1  0.4578230000000  0.3908190000000  0.5146570000000 1.0
C      1  0.4767170000000  0.4591920000000  0.3999840000000 1.0
C      1  0.5928490000000  0.4547050000000  0.5303680000000 1.0
C      1  0.4290250000000  0.4551400000000  0.5679790000000 1.0
C      1  0.5233980000000  0.5448630000000  0.4045500000000 1.0
C      1  0.4017440000000  0.5408180000000  0.5298370000000 1.0
C      1  0.5727230000000  0.5452810000000  0.5652360000000 1.0
C      1  0.3689270000000  0.4798700000000  0.4825460000000 1.0
C      1  0.5808240000000  0.4859860000000  0.3888500000000 1.0
C      1  0.5539650000000  0.4902540000000  0.6252860000000 1.0
C      1  0.6354860000000  0.5097310000000  0.4841060000000 1.0
C      1  0.4193600000000  0.5201470000000  0.3952080000000 1.0
C      1  0.4441430000000  0.5140120000000  0.6255660000000 1.0
C      1  0.4548450000000  0.4774960000000  0.4031450000000 1.0
C      1  0.6043760000000  0.4715500000000  0.5103760000000 1.0
C      1  0.4400410000000  0.4735550000000  0.5869040000000 1.0
C      1  0.5452940000000  0.5264470000000  0.4046280000000 1.0
C      1  0.3935450000000  0.5225160000000  0.5093140000000 1.0
C      1  0.5611690000000  0.5284370000000  0.5852120000000 1.0
C      1  0.6062200000000  0.4702140000000  0.4816850000000 1.0
C      1  0.4635950000000  0.4752650000000  0.6032710000000 1.0
C      1  0.4295100000000  0.4770590000000  0.4170320000000 1.0
C      1  0.3929070000000  0.5229550000000  0.4804290000000 1.0
C      1  0.5372430000000  0.5297750000000  0.6011520000000 1.0
C      1  0.5712440000000  0.5247320000000  0.4168460000000 1.0
C      1  0.5443410000000  0.4687530000000  0.5026120000000 1.0
C      1  0.4769620000000  0.4734130000000  0.5399150000000 1.0
C      1  0.4789800000000  0.4692780000000  0.4581150000000 1.0
C      1  0.4532200000000  0.5307270000000  0.5027360000000 1.0
C      1  0.5244330000000  0.5312410000000  0.5370990000000 1.0
C      1  0.5230560000000  0.5265870000000  0.4600950000000 1.0
C      1  0.4058940000000  0.5266740000000  0.5543660000000 1.0
C      1  0.5000040000000  0.5316640000000  0.3951240000000 1.0
C      1  0.5912120000000  0.5302890000000  0.5495590000000 1.0
C      1  0.5885160000000  0.4696960000000  0.5542190000000 1.0
C      1  0.5000370000000  0.4733340000000  0.3913170000000 1.0
C      1  0.4091680000000  0.4683440000000  0.5524310000000 1.0
C      1  0.4323980000000  0.5440750000000  0.4520090000000 1.0
C      1  0.5812030000000  0.5379480000000  0.4648950000000 1.0
C      1  0.4901230000000  0.5457920000000  0.5844310000000 1.0
C      1  0.5681810000000  0.4542030000000  0.4492350000000 1.0
C      1  0.4246360000000  0.4559370000000  0.4654390000000 1.0
C      1  0.5101860000000  0.4620450000000  0.5878750000000 1.0
C      1  0.5293580000000  0.3648450000000  0.5543490000000 1.0
C      1  0.4523090000000  0.3638520000000  0.5178490000000 1.0
C      1  0.5158740000000  0.3641830000000  0.4202640000000 1.0
C      1  0.4388950000000  0.6358200000000  0.5536190000000 1.0
C      1  0.5617630000000  0.6351480000000  0.4982650000000 1.0
C      1  0.4916330000000  0.6361520000000  0.4497820000000 1.0
C      1  0.5300810000000  0.4490610000000  0.6036710000000 1.0
C      1  0.4029720000000  0.4407510000000  0.4764270000000 1.0
C      1  0.5709240000000  0.4449490000000  0.4222560000000 1.0
C      1  0.4681300000000  0.5550480000000  0.6002950000000 1.0
C      1  0.6048310000000  0.5509280000000  0.4742290000000 1.0
C      1  0.4310860000000  0.5592630000000  0.4277550000000 1.0
END
