TITL C-3201376-6384-842 1.81221543785093e-06 125000 -810.51329547056 0 0 126 (C1) n - 1
REM
REM in /home/nfs/bkarasulu/CARBON/AIRSS/Generating-Clusters/LCBOP/Higher-Symm/SD-CG/FIRE-CG
REM
REM
REM
REM
REM
REM ./C.cell (b20cbc046b6831c77cfcea5457e17084)
REM AIRSS Version 0.9.1 bugfix July 2018 build 013d7b7c2542+ Fri, 06 Jul 2018 19:26:36 +0100
REM compiler GCC version 9.2.1 20190827 (Red Hat 9.2.1-1)
REM options -cpp -mtune=generic -march=x86-64 -g -O0 -fpre-include=/usr/include/finclude/math-vector-fortran.h
REM seed -328947181 195198096 1598043916 665009765 1393841390 1079356832 1366649045 275214271 -559609310 -2031697312 -490549966 -1432622488 -1196102215 -2143154252 418369606 -2071920425 726664037 -2085868210 1158468970 -119858857 443579853 -844535206 1273300432 1958765026 1525639320 1419093976 2141712006 740560498 -2094099179 468767848 1081971347 1680468577 -501147723
REM
CELL 1.54180   50.00000   50.00000   50.00000   90.00000   90.00000   90.00000
LATT -1
SFAC C  
C      1  0.5721900000000  0.5093440000000  0.5420600000000 1.0
C      1  0.5147240000000  0.4258790000000  0.5461770000000 1.0
C      1  0.4245940000000  0.4863310000000  0.5447470000000 1.0
C      1  0.4897180000000  0.5728690000000  0.5429420000000 1.0
C      1  0.5721940000000  0.4908230000000  0.4571850000000 1.0
C      1  0.5125290000000  0.5743440000000  0.4543970000000 1.0
C      1  0.4236420000000  0.5132820000000  0.4553880000000 1.0
C      1  0.4879940000000  0.4267570000000  0.4551010000000 1.0
C      1  0.5471510000000  0.4744830000000  0.4184780000000 1.0
C      1  0.4753040000000  0.4539540000000  0.4165730000000 1.0
C      1  0.4544540000000  0.5249190000000  0.4164260000000 1.0
C      1  0.5256030000000  0.5461240000000  0.4154040000000 1.0
C      1  0.5466260000000  0.5256620000000  0.5805490000000 1.0
C      1  0.4745740000000  0.5458720000000  0.5803470000000 1.0
C      1  0.4544730000000  0.4735130000000  0.5811880000000 1.0
C      1  0.5265820000000  0.4542900000000  0.5839790000000 1.0
C      1  0.5366690000000  0.5006800000000  0.5885270000000 1.0
C      1  0.5006660000000  0.4639300000000  0.5887060000000 1.0
C      1  0.4640540000000  0.4996350000000  0.5871230000000 1.0
C      1  0.5003940000000  0.5363470000000  0.5870090000000 1.0
C      1  0.5371340000000  0.4997250000000  0.4103690000000 1.0
C      1  0.5003270000000  0.5356860000000  0.4092520000000 1.0
C      1  0.4647260000000  0.4998010000000  0.4097940000000 1.0
C      1  0.5011410000000  0.4634790000000  0.4108480000000 1.0
C      1  0.4141060000000  0.5130620000000  0.5503370000000 1.0
C      1  0.5152980000000  0.5849470000000  0.5487980000000 1.0
C      1  0.5827020000000  0.4824150000000  0.5451720000000 1.0
C      1  0.4884100000000  0.4140490000000  0.5504570000000 1.0
C      1  0.4166620000000  0.4836680000000  0.4539120000000 1.0
C      1  0.5143490000000  0.4151420000000  0.4506630000000 1.0
C      1  0.5816990000000  0.5182410000000  0.4545130000000 1.0
C      1  0.4838600000000  0.5828270000000  0.4531540000000 1.0
C      1  0.4888000000000  0.5434470000000  0.4768060000000 1.0
C      1  0.5354040000000  0.5140140000000  0.4703780000000 1.0
C      1  0.5100500000000  0.4635090000000  0.4714180000000 1.0
C      1  0.4554230000000  0.4911710000000  0.4771540000000 1.0
C      1  0.4883460000000  0.4544630000000  0.5222330000000 1.0
C      1  0.5358400000000  0.4845710000000  0.5279750000000 1.0
C      1  0.5121270000000  0.5357960000000  0.5275220000000 1.0
C      1  0.4545610000000  0.5106490000000  0.5232040000000 1.0
C      1  0.4397550000000  0.5592540000000  0.4452060000000 1.0
C      1  0.5593430000000  0.5620540000000  0.4446670000000 1.0
C      1  0.5610870000000  0.4430240000000  0.4535630000000 1.0
C      1  0.4410750000000  0.4398840000000  0.4459800000000 1.0
C      1  0.4408740000000  0.4407370000000  0.5469500000000 1.0
C      1  0.5611210000000  0.4387130000000  0.5552530000000 1.0
C      1  0.5611290000000  0.5570700000000  0.5459510000000 1.0
C      1  0.4426380000000  0.5598980000000  0.5457070000000 1.0
C      1  0.5671170000000  0.4691100000000  0.4392000000000 1.0
C      1  0.4679920000000  0.4337350000000  0.4362190000000 1.0
C      1  0.4332460000000  0.5319290000000  0.4356410000000 1.0
C      1  0.5320310000000  0.5675640000000  0.4345040000000 1.0
C      1  0.5668260000000  0.5308910000000  0.5599780000000 1.0
C      1  0.4684150000000  0.5658900000000  0.5601940000000 1.0
C      1  0.4340400000000  0.4660900000000  0.5619150000000 1.0
C      1  0.5341690000000  0.4332950000000  0.5652690000000 1.0
C      1  0.5265640000000  0.4535790000000  0.4193620000000 1.0
C      1  0.4544690000000  0.4747630000000  0.4168990000000 1.0
C      1  0.4750620000000  0.5458740000000  0.4163690000000 1.0
C      1  0.5468550000000  0.5255890000000  0.4163420000000 1.0
C      1  0.5261160000000  0.5464210000000  0.5795880000000 1.0
C      1  0.4538740000000  0.5251470000000  0.5797140000000 1.0
C      1  0.4755280000000  0.4530810000000  0.5808490000000 1.0
C      1  0.5473020000000  0.4752060000000  0.5831250000000 1.0
C      1  0.5016190000000  0.4830190000000  0.4540530000000 1.0
C      1  0.4754190000000  0.4948230000000  0.4592410000000 1.0
C      1  0.4865090000000  0.5235630000000  0.4583240000000 1.0
C      1  0.5154000000000  0.5100960000000  0.4521390000000 1.0
C      1  0.5032030000000  0.5163340000000  0.5446790000000 1.0
C      1  0.4759100000000  0.5060320000000  0.5392580000000 1.0
C      1  0.4864020000000  0.4757780000000  0.5393540000000 1.0
C      1  0.5152150000000  0.4889650000000  0.5455950000000 1.0
C      1  0.5508890000000  0.5080620000000  0.5229240000000 1.0
C      1  0.5144690000000  0.4427290000000  0.5229030000000 1.0
C      1  0.4395350000000  0.4863030000000  0.5202330000000 1.0
C      1  0.4917620000000  0.5544220000000  0.5215700000000 1.0
C      1  0.5500450000000  0.4903720000000  0.4758220000000 1.0
C      1  0.5147040000000  0.5558310000000  0.4766160000000 1.0
C      1  0.4394790000000  0.5154690000000  0.4797510000000 1.0
C      1  0.4891540000000  0.4449150000000  0.4769550000000 1.0
C      1  0.5340980000000  0.4682020000000  0.4851210000000 1.0
C      1  0.4731770000000  0.4528790000000  0.4990380000000 1.0
C      1  0.4519890000000  0.5288060000000  0.5021290000000 1.0
C      1  0.5338990000000  0.5369660000000  0.4861670000000 1.0
C      1  0.5355530000000  0.5303910000000  0.5132960000000 1.0
C      1  0.4746670000000  0.5458750000000  0.5003800000000 1.0
C      1  0.4528590000000  0.4728990000000  0.4981200000000 1.0
C      1  0.5334280000000  0.4615070000000  0.5123130000000 1.0
C      1  0.5931710000000  0.4708430000000  0.5197600000000 1.0
C      1  0.4842610000000  0.3913050000000  0.5341850000000 1.0
C      1  0.3906520000000  0.5179810000000  0.5352540000000 1.0
C      1  0.5194620000000  0.6085460000000  0.5339880000000 1.0
C      1  0.5923550000000  0.5299110000000  0.4797250000000 1.0
C      1  0.4719930000000  0.5937380000000  0.4789770000000 1.0
C      1  0.4056950000000  0.4709700000000  0.4797070000000 1.0
C      1  0.5187930000000  0.3924060000000  0.4668260000000 1.0
C      1  0.4308550000000  0.5711790000000  0.4693610000000 1.0
C      1  0.5702640000000  0.5708300000000  0.4694920000000 1.0
C      1  0.5737480000000  0.4401530000000  0.4804260000000 1.0
C      1  0.4290740000000  0.4302660000000  0.4697470000000 1.0
C      1  0.4266790000000  0.4383570000000  0.5199350000000 1.0
C      1  0.5716780000000  0.4298920000000  0.5303240000000 1.0
C      1  0.5734640000000  0.5603020000000  0.5191760000000 1.0
C      1  0.4401590000000  0.5740560000000  0.5191460000000 1.0
C      1  0.3872460000000  0.4864970000000  0.4948310000000 1.0
C      1  0.4877860000000  0.6119490000000  0.4938810000000 1.0
C      1  0.6093350000000  0.5127460000000  0.4941910000000 1.0
C      1  0.5088540000000  0.3810870000000  0.4891060000000 1.0
C      1  0.3815920000000  0.5051240000000  0.5132960000000 1.0
C      1  0.4943240000000  0.3806380000000  0.5116300000000 1.0
C      1  0.6096590000000  0.4882660000000  0.5050190000000 1.0
C      1  0.5064620000000  0.6176560000000  0.5122070000000 1.0
C      1  0.4331440000000  0.4669750000000  0.4361410000000 1.0
C      1  0.4667600000000  0.5671360000000  0.4352440000000 1.0
C      1  0.5674440000000  0.5348850000000  0.4354330000000 1.0
C      1  0.5347750000000  0.4332460000000  0.4401260000000 1.0
C      1  0.4329380000000  0.5334960000000  0.5595910000000 1.0
C      1  0.4675820000000  0.4319210000000  0.5606080000000 1.0
C      1  0.5686190000000  0.4659870000000  0.5644450000000 1.0
C      1  0.5352180000000  0.5668850000000  0.5594600000000 1.0
C      1  0.4468980000000  0.5820890000000  0.4906750000000 1.0
C      1  0.5806700000000  0.5546040000000  0.4909020000000 1.0
C      1  0.5814490000000  0.4461240000000  0.5086280000000 1.0
C      1  0.4177560000000  0.4456930000000  0.4914170000000 1.0
C      1  0.5013130000000  0.4991760000000  0.4066970000000 1.0
C      1  0.4998460000000  0.4999370000000  0.5911340000000 1.0
END
