TITL C-3201373-1215-1430 -1.83859582461031e-06 125000 -831.800346263442 0 0 136 (C1) n - 1
REM
REM in /home/nfs/bkarasulu/CARBON/AIRSS/Generating-Clusters/LCBOP/Higher-Symm/SD-CG/FIRE-CG
REM
REM
REM
REM
REM
REM ./C.cell (b20cbc046b6831c77cfcea5457e17084)
REM AIRSS Version 0.9.1 bugfix July 2018 build 013d7b7c2542+ Fri, 06 Jul 2018 19:26:36 +0100
REM compiler GCC version 9.2.1 20190827 (Red Hat 9.2.1-1)
REM options -cpp -mtune=generic -march=x86-64 -g -O0 -fpre-include=/usr/include/finclude/math-vector-fortran.h
REM seed 235466711 130776111 -977833995 -1785458306 1071057816 1039216255 -116906864 -17562466 1581345675 -949278375 -1499497868 -1127347515 -1862477853 1074000501 -2008521671 -1302208963 1083248625 -1797831183 -1155275605 789020315 -1175779743 -934520912 -1559432502 -400973862 2004253646 1245587188 -1555993187 1353767972 1986547965 -547328233 -361301683 1256984050 -527428848
REM
CELL 1.54180   50.00000   50.00000   50.00000   90.00000   90.00000   90.00000
LATT -1
SFAC C  
C      1  0.5336180000000  0.4109340000000  0.4896380000000 1.0
C      1  0.5108540000000  0.4272650000000  0.4800430000000 1.0
C      1  0.4940280000000  0.4368410000000  0.5020630000000 1.0
C      1  0.5852370000000  0.4246810000000  0.4167730000000 1.0
C      1  0.4274400000000  0.4440930000000  0.4371280000000 1.0
C      1  0.4831670000000  0.4423340000000  0.5903890000000 1.0
C      1  0.3309560000000  0.5264600000000  0.4778280000000 1.0
C      1  0.4669090000000  0.5654250000000  0.6617650000000 1.0
C      1  0.6511430000000  0.5482350000000  0.4144950000000 1.0
C      1  0.5964450000000  0.4761080000000  0.4145980000000 1.0
C      1  0.3908720000000  0.4652570000000  0.4632310000000 1.0
C      1  0.4835490000000  0.4901850000000  0.6144000000000 1.0
C      1  0.4006890000000  0.5174970000000  0.4210330000000 1.0
C      1  0.4576050000000  0.5396550000000  0.5727150000000 1.0
C      1  0.5908130000000  0.5084880000000  0.4735360000000 1.0
C      1  0.5244330000000  0.4117740000000  0.5724140000000 1.0
C      1  0.5473010000000  0.3909310000000  0.4297060000000 1.0
C      1  0.4196470000000  0.4308130000000  0.4856970000000 1.0
C      1  0.5001120000000  0.5211930000000  0.5618340000000 1.0
C      1  0.5509390000000  0.5155240000000  0.4480740000000 1.0
C      1  0.4394020000000  0.5107860000000  0.4520750000000 1.0
C      1  0.5345200000000  0.6048650000000  0.5058040000000 1.0
C      1  0.5227280000000  0.5962400000000  0.4815300000000 1.0
C      1  0.5169040000000  0.6033910000000  0.5277320000000 1.0
C      1  0.5121310000000  0.4925820000000  0.5198260000000 1.0
C      1  0.5161050000000  0.4830650000000  0.4703020000000 1.0
C      1  0.4777250000000  0.5114960000000  0.4852530000000 1.0
C      1  0.4716730000000  0.5544920000000  0.6353270000000 1.0
C      1  0.6278740000000  0.5348770000000  0.4256240000000 1.0
C      1  0.3572780000000  0.5225640000000  0.4662620000000 1.0
C      1  0.4765450000000  0.4474650000000  0.4141550000000 1.0
C      1  0.4443380000000  0.4515940000000  0.5522440000000 1.0
C      1  0.5547600000000  0.4673640000000  0.5225170000000 1.0
C      1  0.4646810000000  0.5387870000000  0.5206410000000 1.0
C      1  0.5580870000000  0.5219660000000  0.5087370000000 1.0
C      1  0.5642320000000  0.5644020000000  0.4557360000000 1.0
C      1  0.4805470000000  0.5253080000000  0.5810050000000 1.0
C      1  0.5780530000000  0.5064660000000  0.4481690000000 1.0
C      1  0.4136710000000  0.5050670000000  0.4426430000000 1.0
C      1  0.4902620000000  0.5587450000000  0.4814030000000 1.0
C      1  0.5194650000000  0.5557280000000  0.5276940000000 1.0
C      1  0.5798490000000  0.5964920000000  0.4916490000000 1.0
C      1  0.4426800000000  0.5789880000000  0.6622260000000 1.0
C      1  0.6696790000000  0.5533960000000  0.4345060000000 1.0
C      1  0.3134040000000  0.5360500000000  0.4585540000000 1.0
C      1  0.4401360000000  0.4104490000000  0.4924670000000 1.0
C      1  0.5412610000000  0.4092660000000  0.5508740000000 1.0
C      1  0.5209390000000  0.3905310000000  0.4344760000000 1.0
C      1  0.5223050000000  0.4537260000000  0.4701770000000 1.0
C      1  0.4837420000000  0.4626560000000  0.4964180000000 1.0
C      1  0.5265970000000  0.4669110000000  0.5224420000000 1.0
C      1  0.5109570000000  0.5000420000000  0.5482270000000 1.0
C      1  0.5320220000000  0.4948560000000  0.4487200000000 1.0
C      1  0.4521700000000  0.5030360000000  0.4757020000000 1.0
C      1  0.5649500000000  0.5563060000000  0.3942140000000 1.0
C      1  0.4098390000000  0.5537750000000  0.5024800000000 1.0
C      1  0.5363910000000  0.5642520000000  0.6040630000000 1.0
C      1  0.4220040000000  0.4962980000000  0.5558320000000 1.0
C      1  0.5489720000000  0.4928840000000  0.6307760000000 1.0
C      1  0.4855440000000  0.4974580000000  0.4083880000000 1.0
C      1  0.3820350000000  0.5142780000000  0.4770720000000 1.0
C      1  0.4929290000000  0.5397860000000  0.6241500000000 1.0
C      1  0.6041420000000  0.5258170000000  0.4134630000000 1.0
C      1  0.3962170000000  0.5322950000000  0.4938380000000 1.0
C      1  0.5178050000000  0.5520850000000  0.6189390000000 1.0
C      1  0.5875050000000  0.5425460000000  0.3981600000000 1.0
C      1  0.5659530000000  0.4498510000000  0.4813650000000 1.0
C      1  0.4675960000000  0.4393210000000  0.4589890000000 1.0
C      1  0.4894750000000  0.4388440000000  0.5457040000000 1.0
C      1  0.4446660000000  0.5548700000000  0.5923280000000 1.0
C      1  0.6163110000000  0.5200170000000  0.4732090000000 1.0
C      1  0.3758930000000  0.5278830000000  0.4196940000000 1.0
C      1  0.5578900000000  0.4231630000000  0.5315780000000 1.0
C      1  0.4989050000000  0.4080730000000  0.4347720000000 1.0
C      1  0.4538040000000  0.4151810000000  0.5184590000000 1.0
C      1  0.3268530000000  0.5386840000000  0.4343940000000 1.0
C      1  0.4308980000000  0.5775680000000  0.6371130000000 1.0
C      1  0.6598700000000  0.5440280000000  0.4587290000000 1.0
C      1  0.4341810000000  0.4317970000000  0.5329660000000 1.0
C      1  0.5656580000000  0.4494250000000  0.5417470000000 1.0
C      1  0.4958000000000  0.4246080000000  0.4115280000000 1.0
C      1  0.5683620000000  0.4734570000000  0.4986420000000 1.0
C      1  0.4556280000000  0.4440940000000  0.4335750000000 1.0
C      1  0.4691450000000  0.4452420000000  0.5650530000000 1.0
C      1  0.5683390000000  0.5969830000000  0.5396920000000 1.0
C      1  0.5081160000000  0.5772840000000  0.4394210000000 1.0
C      1  0.4745020000000  0.5828450000000  0.5306050000000 1.0
C      1  0.5512740000000  0.5759900000000  0.5852280000000 1.0
C      1  0.5413070000000  0.5671020000000  0.4003860000000 1.0
C      1  0.4269070000000  0.5728540000000  0.5107400000000 1.0
C      1  0.5621590000000  0.6019800000000  0.5125980000000 1.0
C      1  0.5061670000000  0.5778470000000  0.4675540000000 1.0
C      1  0.5026840000000  0.5792270000000  0.5317350000000 1.0
C      1  0.3959420000000  0.4935650000000  0.4623040000000 1.0
C      1  0.4855560000000  0.5174950000000  0.6078010000000 1.0
C      1  0.5926760000000  0.5020310000000  0.4243750000000 1.0
C      1  0.4179740000000  0.4452300000000  0.5111960000000 1.0
C      1  0.5632200000000  0.4585160000000  0.5683740000000 1.0
C      1  0.5208570000000  0.4360690000000  0.4023990000000 1.0
C      1  0.6336790000000  0.5320390000000  0.4549890000000 1.0
C      1  0.3545000000000  0.5304720000000  0.4374140000000 1.0
C      1  0.4477630000000  0.5624240000000  0.6189770000000 1.0
C      1  0.5231860000000  0.4629680000000  0.4125430000000 1.0
C      1  0.4281930000000  0.4728720000000  0.5117680000000 1.0
C      1  0.5421090000000  0.4734400000000  0.5806320000000 1.0
C      1  0.5185480000000  0.4765530000000  0.5648010000000 1.0
C      1  0.5412050000000  0.4703980000000  0.4337200000000 1.0
C      1  0.4428700000000  0.4790740000000  0.4879890000000 1.0
C      1  0.4785220000000  0.5374970000000  0.4960490000000 1.0
C      1  0.5396230000000  0.5396380000000  0.5184490000000 1.0
C      1  0.5789420000000  0.5818380000000  0.4693690000000 1.0
C      1  0.5739460000000  0.5015390000000  0.4953130000000 1.0
C      1  0.5488760000000  0.5430360000000  0.4513210000000 1.0
C      1  0.4535730000000  0.5392980000000  0.5449930000000 1.0
C      1  0.4943250000000  0.4713700000000  0.4121310000000 1.0
C      1  0.4346350000000  0.4769090000000  0.5403860000000 1.0
C      1  0.5449620000000  0.4843390000000  0.6060220000000 1.0
C      1  0.5696310000000  0.4039890000000  0.4230850000000 1.0
C      1  0.4116360000000  0.4450260000000  0.4613400000000 1.0
C      1  0.5053840000000  0.4233860000000  0.5884450000000 1.0
C      1  0.4792900000000  0.5221560000000  0.4029250000000 1.0
C      1  0.4042930000000  0.5095050000000  0.5696910000000 1.0
C      1  0.5517140000000  0.5015150000000  0.6552210000000 1.0
C      1  0.4901210000000  0.4205660000000  0.4589840000000 1.0
C      1  0.4810020000000  0.4236230000000  0.5229330000000 1.0
C      1  0.5562090000000  0.4228710000000  0.5015090000000 1.0
C      1  0.4822570000000  0.4639940000000  0.6085040000000 1.0
C      1  0.5940720000000  0.4495870000000  0.4131810000000 1.0
C      1  0.3648380000000  0.4566610000000  0.4655430000000 1.0
C      1  0.5630700000000  0.5873080000000  0.5640800000000 1.0
C      1  0.5209850000000  0.5742720000000  0.4161920000000 1.0
C      1  0.4493220000000  0.5839050000000  0.5208880000000 1.0
C      1  0.5129930000000  0.4549750000000  0.5455740000000 1.0
C      1  0.5485290000000  0.4528630000000  0.4571990000000 1.0
C      1  0.4614970000000  0.4585640000000  0.4793630000000 1.0
C      1  0.4975700000000  0.4903500000000  0.4930510000000 1.0
END
