TITL C-3201376-6384-2188 7372.75967692286 125000 -470.77847670651 0 0 80 (C1) n - 1
REM
REM in /home/nfs/bkarasulu/CARBON/AIRSS/Generating-Clusters/LCBOP/Higher-Symm/SD-CG/FIRE-CG
REM
REM
REM
REM
REM
REM ./C.cell (b20cbc046b6831c77cfcea5457e17084)
REM AIRSS Version 0.9.1 bugfix July 2018 build 013d7b7c2542+ Fri, 06 Jul 2018 19:26:36 +0100
REM compiler GCC version 9.2.1 20190827 (Red Hat 9.2.1-1)
REM options -cpp -mtune=generic -march=x86-64 -g -O0 -fpre-include=/usr/include/finclude/math-vector-fortran.h
REM seed 1091828558 -1000182505 -1520038957 -1298259295 -1735653817 -1981100968 -650487599 1768943616 1063921791 -1118276477 -826707997 84098181 1635123005 -1118960530 -375356218 -1684431858 -2053006629 -1750046258 1635729682 -980867879 57638743 -1406954601 413239149 -1447864464 -1139120163 357007589 -166344834 1565750205 20308611 -727210242 -1699841761 538878195 -72006736
REM
CELL 1.54180   50.00000   50.00000   50.00000   90.00000   90.00000   90.00000
LATT -1
SFAC C  
C      1  0.4010920000000  0.5278500000000  0.5016660000000 1.0
C      1  0.4878930000000  0.4695460000000  0.4429320000000 1.0
C      1  0.4745570000000  0.4290560000000  0.4880210000000 1.0
C      1  0.5701450000000  0.5233360000000  0.4685970000000 1.0
C      1  0.4323850000000  0.5229790000000  0.5385080000000 1.0
C      1  0.5600580000000  0.4821370000000  0.5320480000000 1.0
C      1  0.5080160000000  0.5153800000000  0.4307100000000 1.0
C      1  0.4789090000000  0.5339720000000  0.5633190000000 1.0
C      1  0.5086130000000  0.4593160000000  0.5734390000000 1.0
C      1  0.5317980000000  0.5680410000000  0.4847670000000 1.0
C      1  0.4912810000000  0.5569060000000  0.5045560000000 1.0
C      1  0.5476420000000  0.4262110000000  0.5090110000000 1.0
C      1  0.4069470000000  0.5293640000000  0.5281650000000 1.0
C      1  0.4824100000000  0.4602750000000  0.5626330000000 1.0
C      1  0.4851630000000  0.4254300000000  0.5150790000000 1.0
C      1  0.5635200000000  0.5101840000000  0.5330670000000 1.0
C      1  0.4214640000000  0.5224050000000  0.4832960000000 1.0
C      1  0.5730490000000  0.4957960000000  0.4773910000000 1.0
C      1  0.5081180000000  0.5330370000000  0.5673660000000 1.0
C      1  0.4805450000000  0.5214110000000  0.4322490000000 1.0
C      1  0.5161010000000  0.4720980000000  0.4435210000000 1.0
C      1  0.5107970000000  0.5763610000000  0.5014290000000 1.0
C      1  0.4751360000000  0.5545840000000  0.4820920000000 1.0
C      1  0.5502180000000  0.4265240000000  0.4798950000000 1.0
C      1  0.5181090000000  0.5086060000000  0.5539500000000 1.0
C      1  0.5169940000000  0.5183590000000  0.5248130000000 1.0
C      1  0.5447760000000  0.5211910000000  0.5133950000000 1.0
C      1  0.4804510000000  0.4837220000000  0.5446140000000 1.0
C      1  0.5274940000000  0.4911310000000  0.4636640000000 1.0
C      1  0.4732510000000  0.5109230000000  0.4574490000000 1.0
C      1  0.5032170000000  0.4472770000000  0.5216970000000 1.0
C      1  0.5242800000000  0.4333730000000  0.4651920000000 1.0
C      1  0.4677850000000  0.5279300000000  0.4774710000000 1.0
C      1  0.4897390000000  0.4736240000000  0.5181870000000 1.0
C      1  0.5477710000000  0.4838170000000  0.4831200000000 1.0
C      1  0.4476550000000  0.5202140000000  0.4947870000000 1.0
C      1  0.5215220000000  0.5183080000000  0.4565740000000 1.0
C      1  0.5245840000000  0.5447690000000  0.4680370000000 1.0
C      1  0.5606570000000  0.5362240000000  0.4931220000000 1.0
C      1  0.4812270000000  0.4861740000000  0.4657970000000 1.0
C      1  0.5258970000000  0.4825540000000  0.5652440000000 1.0
C      1  0.4676060000000  0.5059490000000  0.5589320000000 1.0
C      1  0.4976830000000  0.4411870000000  0.4761320000000 1.0
C      1  0.5302200000000  0.4490240000000  0.5134450000000 1.0
C      1  0.4912250000000  0.5321870000000  0.5189920000000 1.0
C      1  0.4899140000000  0.4752540000000  0.4893710000000 1.0
C      1  0.5452030000000  0.4726960000000  0.5088740000000 1.0
C      1  0.4554690000000  0.5240640000000  0.5207360000000 1.0
C      1  0.5560540000000  0.5638060000000  0.4993540000000 1.0
C      1  0.5510660000000  0.4695230000000  0.5556820000000 1.0
C      1  0.4646720000000  0.5578310000000  0.5512350000000 1.0
C      1  0.4484980000000  0.4451090000000  0.4855070000000 1.0
C      1  0.5579760000000  0.4224580000000  0.5358520000000 1.0
C      1  0.4428880000000  0.5767310000000  0.5040190000000 1.0
C      1  0.4385210000000  0.5030470000000  0.5575110000000 1.0
C      1  0.5611550000000  0.5220510000000  0.4390830000000 1.0
C      1  0.4296550000000  0.4885340000000  0.4525410000000 1.0
C      1  0.5256860000000  0.4359160000000  0.5735250000000 1.0
C      1  0.4634900000000  0.4554470000000  0.4387230000000 1.0
C      1  0.5103810000000  0.5582050000000  0.4238270000000 1.0
C      1  0.5574800000000  0.5701570000000  0.5274960000000 1.0
C      1  0.5649200000000  0.4881400000000  0.4323680000000 1.0
C      1  0.4757200000000  0.5484750000000  0.4294690000000 1.0
C      1  0.4363850000000  0.4498080000000  0.5118030000000 1.0
C      1  0.5712820000000  0.4402650000000  0.4631870000000 1.0
C      1  0.4508670000000  0.5684540000000  0.4764710000000 1.0
C      1  0.4266590000000  0.5193120000000  0.4547400000000 1.0
C      1  0.5691890000000  0.5303230000000  0.5522910000000 1.0
C      1  0.4270990000000  0.4775040000000  0.5526300000000 1.0
C      1  0.5327100000000  0.4496870000000  0.4416670000000 1.0
C      1  0.4598100000000  0.4436560000000  0.5568040000000 1.0
C      1  0.5283650000000  0.5535540000000  0.5662420000000 1.0
C      1  0.4381240000000  0.4540500000000  0.5404720000000 1.0
C      1  0.4438310000000  0.5504420000000  0.4468970000000 1.0
C      1  0.5609720000000  0.4583270000000  0.4416870000000 1.0
C      1  0.5386300000000  0.5457220000000  0.4255510000000 1.0
C      1  0.5500850000000  0.4397040000000  0.5579820000000 1.0
C      1  0.4515940000000  0.5716890000000  0.5304540000000 1.0
C      1  0.5535070000000  0.5548280000000  0.5517550000000 1.0
C      1  0.4426740000000  0.4612160000000  0.4590830000000 1.0
END
