TITL C-3201377-4638-435 0.109509484941293 125000 -519.165479393353 0 0 86 (C1) n - 1
REM
REM in /home/nfs/bkarasulu/CARBON/AIRSS/Generating-Clusters/LCBOP/Higher-Symm/SD-CG/FIRE-CG
REM
REM
REM
REM
REM
REM ./C.cell (b20cbc046b6831c77cfcea5457e17084)
REM AIRSS Version 0.9.1 bugfix July 2018 build 013d7b7c2542+ Fri, 06 Jul 2018 19:26:36 +0100
REM compiler GCC version 9.2.1 20190827 (Red Hat 9.2.1-1)
REM options -cpp -mtune=generic -march=x86-64 -g -O0 -fpre-include=/usr/include/finclude/math-vector-fortran.h
REM seed 121452070 -1529763498 -1073747104 40789549 -1412266625 -1700852452 -142841389 1947780187 -2051561886 -1144240630 1519624265 -1098770445 2033891600 -961196046 363668871 -1173185153 -580410080 -1296565283 -1629342824 -1153147662 -1123996435 -667880576 -956141391 767996316 1334714094 -902410396 239709437 -236922726 826461506 1880065153 1038038896 1671036724 232862003
REM
CELL 1.54180   50.00000   50.00000   50.00000   90.00000   90.00000   90.00000
LATT -1
SFAC C  
C      1  0.5231010000000  0.5053750000000  0.4651340000000 1.0
C      1  0.5047460000000  0.5185500000000  0.4465900000000 1.0
C      1  0.5229760000000  0.5260350000000  0.5901400000000 1.0
C      1  0.4544030000000  0.5027570000000  0.5721490000000 1.0
C      1  0.4973140000000  0.3863130000000  0.4837760000000 1.0
C      1  0.4815560000000  0.6044360000000  0.4427400000000 1.0
C      1  0.5323590000000  0.5955790000000  0.4432430000000 1.0
C      1  0.4668350000000  0.4026250000000  0.4472170000000 1.0
C      1  0.5733480000000  0.5346400000000  0.4733990000000 1.0
C      1  0.4315780000000  0.4690460000000  0.4500680000000 1.0
C      1  0.5326190000000  0.4231360000000  0.5016150000000 1.0
C      1  0.4550980000000  0.5815450000000  0.4825490000000 1.0
C      1  0.5507430000000  0.4110880000000  0.4383310000000 1.0
C      1  0.4095330000000  0.5282510000000  0.4885710000000 1.0
C      1  0.4892810000000  0.4660730000000  0.5236930000000 1.0
C      1  0.5182970000000  0.5316210000000  0.5345870000000 1.0
C      1  0.4411860000000  0.4037740000000  0.4354330000000 1.0
C      1  0.5514980000000  0.5831710000000  0.4267160000000 1.0
C      1  0.4615510000000  0.3726760000000  0.5644920000000 1.0
C      1  0.5375690000000  0.6233200000000  0.5436200000000 1.0
C      1  0.4284020000000  0.4744430000000  0.5376380000000 1.0
C      1  0.5635620000000  0.5453810000000  0.5645070000000 1.0
C      1  0.4554560000000  0.5551110000000  0.5410430000000 1.0
C      1  0.5230250000000  0.4612460000000  0.5693270000000 1.0
C      1  0.4115530000000  0.5345020000000  0.5435010000000 1.0
C      1  0.6122410000000  0.4085610000000  0.4773040000000 1.0
C      1  0.4563570000000  0.3486290000000  0.5731160000000 1.0
C      1  0.5520840000000  0.6441710000000  0.5377790000000 1.0
C      1  0.5236840000000  0.6012730000000  0.5484740000000 1.0
C      1  0.4668570000000  0.3970570000000  0.5555530000000 1.0
C      1  0.4934690000000  0.4733200000000  0.4539470000000 1.0
C      1  0.5148670000000  0.5475880000000  0.4815880000000 1.0
C      1  0.5223880000000  0.5203300000000  0.4892100000000 1.0
C      1  0.4835400000000  0.4987380000000  0.4434150000000 1.0
C      1  0.4353120000000  0.4968670000000  0.4469010000000 1.0
C      1  0.5750090000000  0.5068670000000  0.4789060000000 1.0
C      1  0.5437040000000  0.4637670000000  0.4743660000000 1.0
C      1  0.4655140000000  0.5378050000000  0.4631510000000 1.0
C      1  0.4723810000000  0.4209100000000  0.5454320000000 1.0
C      1  0.5121570000000  0.5774960000000  0.5503190000000 1.0
C      1  0.4792210000000  0.4434400000000  0.5332500000000 1.0
C      1  0.5030680000000  0.5514200000000  0.5470440000000 1.0
C      1  0.4500070000000  0.5532600000000  0.4811820000000 1.0
C      1  0.5455910000000  0.4359740000000  0.4795620000000 1.0
C      1  0.5072140000000  0.6049370000000  0.4352750000000 1.0
C      1  0.4782470000000  0.3840020000000  0.4649220000000 1.0
C      1  0.4337950000000  0.5417360000000  0.5280590000000 1.0
C      1  0.5875350000000  0.4136460000000  0.4692030000000 1.0
C      1  0.5369410000000  0.4321280000000  0.5279260000000 1.0
C      1  0.4568550000000  0.5927430000000  0.5083300000000 1.0
C      1  0.5355240000000  0.5901210000000  0.4708500000000 1.0
C      1  0.4804010000000  0.4273410000000  0.4472520000000 1.0
C      1  0.4296170000000  0.4635090000000  0.5134800000000 1.0
C      1  0.5721780000000  0.5519730000000  0.5401710000000 1.0
C      1  0.4190480000000  0.4497830000000  0.4336180000000 1.0
C      1  0.5773520000000  0.5444100000000  0.4471510000000 1.0
C      1  0.5656870000000  0.4815480000000  0.4790910000000 1.0
C      1  0.4586620000000  0.5122630000000  0.4502140000000 1.0
C      1  0.4770520000000  0.5427540000000  0.5550980000000 1.0
C      1  0.5090120000000  0.4817220000000  0.5792430000000 1.0
C      1  0.4770560000000  0.5192010000000  0.5717290000000 1.0
C      1  0.5019640000000  0.5089200000000  0.5822810000000 1.0
C      1  0.4580210000000  0.5821660000000  0.5330090000000 1.0
C      1  0.5337810000000  0.4447780000000  0.5512330000000 1.0
C      1  0.5951700000000  0.5827660000000  0.5115890000000 1.0
C      1  0.4343730000000  0.4195390000000  0.4956360000000 1.0
C      1  0.3896570000000  0.5312260000000  0.5572620000000 1.0
C      1  0.6365290000000  0.4036660000000  0.4854140000000 1.0
C      1  0.4383230000000  0.4465250000000  0.4929870000000 1.0
C      1  0.5765580000000  0.5628650000000  0.5146600000000 1.0
C      1  0.4376350000000  0.4865230000000  0.5594250000000 1.0
C      1  0.5462100000000  0.5372160000000  0.5830710000000 1.0
C      1  0.5046910000000  0.4872880000000  0.5197970000000 1.0
C      1  0.5172320000000  0.5117160000000  0.5151780000000 1.0
C      1  0.5687440000000  0.5627550000000  0.4295880000000 1.0
C      1  0.4236020000000  0.4234300000000  0.4295020000000 1.0
C      1  0.4315920000000  0.5407400000000  0.4993170000000 1.0
C      1  0.5613000000000  0.4199830000000  0.4619530000000 1.0
C      1  0.5365540000000  0.5656500000000  0.4844180000000 1.0
C      1  0.4758060000000  0.4522610000000  0.4588860000000 1.0
C      1  0.4495250000000  0.4570930000000  0.4691950000000 1.0
C      1  0.5620590000000  0.5539410000000  0.4918760000000 1.0
C      1  0.5205640000000  0.4767410000000  0.4643910000000 1.0
C      1  0.4944290000000  0.5428570000000  0.4608290000000 1.0
C      1  0.4629670000000  0.5960500000000  0.4599220000000 1.0
C      1  0.5155000000000  0.4013200000000  0.4963920000000 1.0
END
