TITL C-3201376-6384-1911 1.02454519913447e-05 125000 -105.97254007392 0 0 23 (S10) n - 1
REM
REM in /home/nfs/bkarasulu/CARBON/AIRSS/Generating-Clusters/LCBOP/Higher-Symm/SD-CG/FIRE-CG
REM
REM
REM
REM
REM
REM ./C.cell (b20cbc046b6831c77cfcea5457e17084)
REM AIRSS Version 0.9.1 bugfix July 2018 build 013d7b7c2542+ Fri, 06 Jul 2018 19:26:36 +0100
REM compiler GCC version 9.2.1 20190827 (Red Hat 9.2.1-1)
REM options -cpp -mtune=generic -march=x86-64 -g -O0 -fpre-include=/usr/include/finclude/math-vector-fortran.h
REM seed 1627192507 -483550816 -262614776 1671034761 631078142 1194626272 421037886 923330982 -1731300795 632902669 237899103 474455510 631328290 1515021610 -1007048826 1581052312 -570368019 1900944606 1984921285 34366451 -1070006725 -846560411 122981325 1691543443 1736152848 -407506898 -1439900760 1669918324 -637495137 26020051 -1086891620 1681440009 1590377437
REM
CELL 1.54180   50.00000   50.00000   50.00000   90.00000   90.00000   90.00000
LATT -1
SFAC C  
C      1  0.5341710000000  0.4702860000000  0.5192580000000 1.0
C      1  0.4654240000000  0.4638060000000  0.4969100000000 1.0
C      1  0.5342780000000  0.4724140000000  0.4758900000000 1.0
C      1  0.4653850000000  0.4906580000000  0.4628070000000 1.0
C      1  0.5341450000000  0.5138520000000  0.4629400000000 1.0
C      1  0.4653430000000  0.5314180000000  0.4777840000000 1.0
C      1  0.5342530000000  0.5376420000000  0.4992490000000 1.0
C      1  0.4654510000000  0.5307410000000  0.5211870000000 1.0
C      1  0.5342110000000  0.5112160000000  0.5337070000000 1.0
C      1  0.4653170000000  0.4888030000000  0.5324130000000 1.0
C      1  0.5067310000000  0.5130780000000  0.5396880000000 1.0
C      1  0.4927250000000  0.4864680000000  0.5387790000000 1.0
C      1  0.5066480000000  0.4653590000000  0.5224950000000 1.0
C      1  0.4929470000000  0.4579110000000  0.4968100000000 1.0
C      1  0.5068700000000  0.4670360000000  0.4717600000000 1.0
C      1  0.4928650000000  0.4890320000000  0.4567580000000 1.0
C      1  0.5065990000000  0.5157570000000  0.4575610000000 1.0
C      1  0.4927810000000  0.5368030000000  0.4740030000000 1.0
C      1  0.5068140000000  0.5442150000000  0.4995630000000 1.0
C      1  0.4929970000000  0.5352280000000  0.5247130000000 1.0
C      1  0.4643510000000  0.5010990000000  0.4981880000000 1.0
C      1  0.5352450000000  0.5011110000000  0.4982290000000 1.0
C      1  0.4997980000000  0.5010850000000  0.4982140000000 1.0
END
