TITL C-3201376-6384-1810 -1.75032482321325e-07 125000 -752.026701958846 0 0 122 (Cs) n - 1
REM
REM in /home/nfs/bkarasulu/CARBON/AIRSS/Generating-Clusters/LCBOP/Higher-Symm/SD-CG/FIRE-CG
REM
REM
REM
REM
REM
REM ./C.cell (b20cbc046b6831c77cfcea5457e17084)
REM AIRSS Version 0.9.1 bugfix July 2018 build 013d7b7c2542+ Fri, 06 Jul 2018 19:26:36 +0100
REM compiler GCC version 9.2.1 20190827 (Red Hat 9.2.1-1)
REM options -cpp -mtune=generic -march=x86-64 -g -O0 -fpre-include=/usr/include/finclude/math-vector-fortran.h
REM seed -329379979 -1943361944 1926955463 582965010 46080068 -194856338 -1509218764 -1254920438 -1687198052 -611705276 -935755796 -743908392 -433332540 1328525785 -968936375 -417156701 -153709674 736718641 1045131042 1845146703 1206886823 -1324207196 -1411359825 46044364 1744232224 2052769023 409095873 271535972 -1707284274 -1955438510 1702220768 -1344173760 -1989628883
REM
CELL 1.54180   50.00000   50.00000   50.00000   90.00000   90.00000   90.00000
LATT -1
SFAC C  
C      1  0.4268740000000  0.4241840000000  0.4868320000000 1.0
C      1  0.5743030000000  0.5750850000000  0.4868260000000 1.0
C      1  0.4268740000000  0.4241840000000  0.5138550000000 1.0
C      1  0.5743030000000  0.5750850000000  0.5138620000000 1.0
C      1  0.4266730000000  0.5749600000000  0.4868270000000 1.0
C      1  0.5741210000000  0.4240890000000  0.4868310000000 1.0
C      1  0.4266730000000  0.5749600000000  0.5138600000000 1.0
C      1  0.5741210000000  0.4240890000000  0.5138570000000 1.0
C      1  0.4844750000000  0.5153140000000  0.3699170000000 1.0
C      1  0.5115080000000  0.4802410000000  0.3674300000000 1.0
C      1  0.4844730000000  0.5153140000000  0.6307700000000 1.0
C      1  0.5115060000000  0.4802410000000  0.6332570000000 1.0
C      1  0.4844730000000  0.4856930000000  0.3697000000000 1.0
C      1  0.5115090000000  0.5207960000000  0.3677300000000 1.0
C      1  0.4844720000000  0.4856930000000  0.6309870000000 1.0
C      1  0.5115080000000  0.5207960000000  0.6329570000000 1.0
C      1  0.4725360000000  0.5535280000000  0.4204450000000 1.0
C      1  0.5283200000000  0.4468180000000  0.4197800000000 1.0
C      1  0.4725350000000  0.5535280000000  0.5802420000000 1.0
C      1  0.5283190000000  0.4468180000000  0.5809080000000 1.0
C      1  0.4725600000000  0.4470150000000  0.4198020000000 1.0
C      1  0.5283380000000  0.5537350000000  0.4204290000000 1.0
C      1  0.4725590000000  0.4470150000000  0.5808850000000 1.0
C      1  0.5283370000000  0.5537350000000  0.5802580000000 1.0
C      1  0.4837070000000  0.4756890000000  0.5236000000000 1.0
C      1  0.5171120000000  0.5241110000000  0.5229080000000 1.0
C      1  0.4837070000000  0.4756890000000  0.4770870000000 1.0
C      1  0.5171120000000  0.5241110000000  0.4777800000000 1.0
C      1  0.4839890000000  0.5241080000000  0.5229050000000 1.0
C      1  0.5173900000000  0.4756880000000  0.5236070000000 1.0
C      1  0.4839890000000  0.5241080000000  0.4777820000000 1.0
C      1  0.5173900000000  0.4756880000000  0.4770810000000 1.0
C      1  0.4736780000000  0.5742440000000  0.5606710000000 1.0
C      1  0.5272870000000  0.4260110000000  0.5614410000000 1.0
C      1  0.4736790000000  0.5742440000000  0.4400170000000 1.0
C      1  0.5272880000000  0.4260110000000  0.4392470000000 1.0
C      1  0.4737140000000  0.4261150000000  0.5615060000000 1.0
C      1  0.5273040000000  0.5743580000000  0.5606030000000 1.0
C      1  0.4737140000000  0.4261140000000  0.4391820000000 1.0
C      1  0.5273050000000  0.5743580000000  0.4400840000000 1.0
C      1  0.4370850000000  0.4868870000000  0.3727570000000 1.0
C      1  0.5584300000000  0.5140160000000  0.3703890000000 1.0
C      1  0.4370830000000  0.4868870000000  0.6279300000000 1.0
C      1  0.5584290000000  0.5140160000000  0.6302990000000 1.0
C      1  0.4370860000000  0.5140840000000  0.3729480000000 1.0
C      1  0.5584290000000  0.4869940000000  0.3701960000000 1.0
C      1  0.4370850000000  0.5140840000000  0.6277390000000 1.0
C      1  0.5584270000000  0.4869940000000  0.6304920000000 1.0
C      1  0.4616520000000  0.4495480000000  0.6066120000000 1.0
C      1  0.5379540000000  0.5520360000000  0.6065470000000 1.0
C      1  0.4616530000000  0.4495480000000  0.3940750000000 1.0
C      1  0.5379550000000  0.5520360000000  0.3941410000000 1.0
C      1  0.4616450000000  0.5511820000000  0.6059890000000 1.0
C      1  0.5379430000000  0.4487110000000  0.6071850000000 1.0
C      1  0.4616460000000  0.5511810000000  0.3946980000000 1.0
C      1  0.5379440000000  0.4487110000000  0.3935030000000 1.0
C      1  0.5364250000000  0.4697910000000  0.6259940000000 1.0
C      1  0.4607160000000  0.5294590000000  0.6240260000000 1.0
C      1  0.5364260000000  0.4697910000000  0.3746940000000 1.0
C      1  0.4607170000000  0.5294580000000  0.3766610000000 1.0
C      1  0.5364260000000  0.5311570000000  0.6255740000000 1.0
C      1  0.4607140000000  0.4714630000000  0.6244200000000 1.0
C      1  0.5364280000000  0.5311570000000  0.3751140000000 1.0
C      1  0.4607150000000  0.4714630000000  0.3762670000000 1.0
C      1  0.4707630000000  0.5514440000000  0.5161060000000 1.0
C      1  0.5301760000000  0.4479350000000  0.5164800000000 1.0
C      1  0.4707640000000  0.5514440000000  0.4845810000000 1.0
C      1  0.5301770000000  0.4479350000000  0.4842080000000 1.0
C      1  0.4708550000000  0.4479640000000  0.5164830000000 1.0
C      1  0.5302580000000  0.5514850000000  0.5161030000000 1.0
C      1  0.4708550000000  0.4479640000000  0.4842040000000 1.0
C      1  0.5302580000000  0.5514850000000  0.4845850000000 1.0
C      1  0.4183820000000  0.4863390000000  0.5507790000000 1.0
C      1  0.5826600000000  0.5128960000000  0.5505600000000 1.0
C      1  0.4183830000000  0.4863390000000  0.4499080000000 1.0
C      1  0.5826600000000  0.5128960000000  0.4501280000000 1.0
C      1  0.4184420000000  0.5128810000000  0.5507710000000 1.0
C      1  0.5827200000000  0.4863520000000  0.5505690000000 1.0
C      1  0.4184430000000  0.5128810000000  0.4499150000000 1.0
C      1  0.5827200000000  0.4863520000000  0.4501190000000 1.0
C      1  0.5593990000000  0.5545750000000  0.5266880000000 1.0
C      1  0.4415980000000  0.4447310000000  0.5267730000000 1.0
C      1  0.5594000000000  0.5545750000000  0.4739990000000 1.0
C      1  0.4415980000000  0.4447310000000  0.4739140000000 1.0
C      1  0.5594310000000  0.4446690000000  0.5267660000000 1.0
C      1  0.4416200000000  0.5544900000000  0.5266950000000 1.0
C      1  0.5594310000000  0.4446690000000  0.4739220000000 1.0
C      1  0.4416200000000  0.5544900000000  0.4739920000000 1.0
C      1  0.5726650000000  0.5362530000000  0.4577590000000 1.0
C      1  0.4282660000000  0.4629700000000  0.4576420000000 1.0
C      1  0.5726640000000  0.5362530000000  0.5429290000000 1.0
C      1  0.4282650000000  0.4629710000000  0.5430450000000 1.0
C      1  0.5728070000000  0.4629550000000  0.4577340000000 1.0
C      1  0.4284070000000  0.5362100000000  0.4576640000000 1.0
C      1  0.5728070000000  0.4629550000000  0.5429540000000 1.0
C      1  0.4284060000000  0.5362100000000  0.5430220000000 1.0
C      1  0.5254710000000  0.4859810000000  0.4498810000000 1.0
C      1  0.4757770000000  0.5142460000000  0.4502290000000 1.0
C      1  0.5254710000000  0.4859810000000  0.5508070000000 1.0
C      1  0.4757770000000  0.5142460000000  0.5504590000000 1.0
C      1  0.5253900000000  0.5142620000000  0.4502210000000 1.0
C      1  0.4756940000000  0.4859930000000  0.4498910000000 1.0
C      1  0.5253900000000  0.5142620000000  0.5504670000000 1.0
C      1  0.4756930000000  0.4859930000000  0.5507960000000 1.0
C      1  0.5148760000000  0.4703310000000  0.4287570000000 1.0
C      1  0.4862980000000  0.5301500000000  0.4292360000000 1.0
C      1  0.5148750000000  0.4703310000000  0.5719310000000 1.0
C      1  0.4862970000000  0.5301500000000  0.5714510000000 1.0
C      1  0.5148630000000  0.5301950000000  0.4292460000000 1.0
C      1  0.4862840000000  0.4703720000000  0.4287500000000 1.0
C      1  0.5148620000000  0.5301950000000  0.5714410000000 1.0
C      1  0.4862830000000  0.4703720000000  0.5719370000000 1.0
C      1  0.4860990000000  0.4286130000000  0.4654920000000 1.0
C      1  0.5149100000000  0.5712130000000  0.4663030000000 1.0
C      1  0.4860980000000  0.4286130000000  0.5351950000000 1.0
C      1  0.5149100000000  0.5712130000000  0.5343840000000 1.0
C      1  0.4860670000000  0.5711800000000  0.4662680000000 1.0
C      1  0.5148960000000  0.4285860000000  0.4655260000000 1.0
C      1  0.4860660000000  0.5711800000000  0.5344190000000 1.0
C      1  0.5148950000000  0.4285860000000  0.5351610000000 1.0
C      1  0.4788390000000  0.4976140000000  0.5003440000000 1.0
C      1  0.5222680000000  0.4976240000000  0.5003440000000 1.0
END
