TITL C-3201373-1215-1568 -109.534611440962 125000 -930.319325690907 0 0 151 (C1) n - 1
REM
REM in /home/nfs/bkarasulu/CARBON/AIRSS/Generating-Clusters/LCBOP/Higher-Symm/SD-CG/FIRE-CG
REM
REM
REM
REM
REM
REM ./C.cell (b20cbc046b6831c77cfcea5457e17084)
REM AIRSS Version 0.9.1 bugfix July 2018 build 013d7b7c2542+ Fri, 06 Jul 2018 19:26:36 +0100
REM compiler GCC version 9.2.1 20190827 (Red Hat 9.2.1-1)
REM options -cpp -mtune=generic -march=x86-64 -g -O0 -fpre-include=/usr/include/finclude/math-vector-fortran.h
REM seed 1990009287 -1652434085 -1050921133 1420014014 -2073617697 123810470 -738270008 1492156293 364242070 -773545333 -56589556 427252726 -872973375 2011824734 -993890071 -1599933916 -1845577122 630333584 425739478 -1502048592 -416106585 1232240149 -487698131 1984968298 -301519836 5845100 68892923 1616066009 -29279957 -1184114155 940642402 -1264840404 1445752642
REM
CELL 1.54180   50.00000   50.00000   50.00000   90.00000   90.00000   90.00000
LATT -1
SFAC C  
C      1  0.6216450000000  0.4727850000000  0.6212510000000 1.0
C      1  0.4243420000000  0.4715610000000  0.5721640000000 1.0
C      1  0.3354530000000  0.4758670000000  0.5093670000000 1.0
C      1  0.4665500000000  0.4727120000000  0.3507530000000 1.0
C      1  0.5427850000000  0.4726890000000  0.3424280000000 1.0
C      1  0.6520590000000  0.4727530000000  0.5040240000000 1.0
C      1  0.6216560000000  0.5262390000000  0.6212110000000 1.0
C      1  0.4243680000000  0.5274670000000  0.5721230000000 1.0
C      1  0.3278580000000  0.5231370000000  0.5330720000000 1.0
C      1  0.4665640000000  0.5259590000000  0.3507080000000 1.0
C      1  0.5427970000000  0.5259350000000  0.3423860000000 1.0
C      1  0.6520720000000  0.5260710000000  0.5039840000000 1.0
C      1  0.3994940000000  0.5131660000000  0.5756160000000 1.0
C      1  0.3069300000000  0.5113750000000  0.5202770000000 1.0
C      1  0.4753220000000  0.5129140000000  0.3285370000000 1.0
C      1  0.5483690000000  0.5128920000000  0.3192060000000 1.0
C      1  0.6739210000000  0.5130160000000  0.5135210000000 1.0
C      1  0.6367260000000  0.5131290000000  0.6396600000000 1.0
C      1  0.3994660000000  0.4858760000000  0.5756020000000 1.0
C      1  0.3109730000000  0.4876080000000  0.5076560000000 1.0
C      1  0.4753150000000  0.4857160000000  0.3285600000000 1.0
C      1  0.5483620000000  0.4856930000000  0.3192280000000 1.0
C      1  0.6739140000000  0.4858120000000  0.5135410000000 1.0
C      1  0.6367210000000  0.4859160000000  0.6396800000000 1.0
C      1  0.5476660000000  0.5236440000000  0.4715330000000 1.0
C      1  0.5530670000000  0.5246520000000  0.5318180000000 1.0
C      1  0.5016760000000  0.5253330000000  0.5718990000000 1.0
C      1  0.4300010000000  0.5238050000000  0.5223230000000 1.0
C      1  0.4478150000000  0.5235250000000  0.4560050000000 1.0
C      1  0.5025720000000  0.5257200000000  0.4428870000000 1.0
C      1  0.5476530000000  0.4751830000000  0.4715700000000 1.0
C      1  0.5530550000000  0.4742660000000  0.5318570000000 1.0
C      1  0.5016620000000  0.4736710000000  0.5719420000000 1.0
C      1  0.4299990000000  0.4751700000000  0.5223750000000 1.0
C      1  0.4478010000000  0.4753260000000  0.4560470000000 1.0
C      1  0.5025580000000  0.4730830000000  0.4429290000000 1.0
C      1  0.4457250000000  0.4253750000000  0.5422580000000 1.0
C      1  0.4601780000000  0.4280560000000  0.4604880000000 1.0
C      1  0.5077650000000  0.4193980000000  0.4459270000000 1.0
C      1  0.5417370000000  0.4270270000000  0.4861440000000 1.0
C      1  0.5472980000000  0.4244050000000  0.5386810000000 1.0
C      1  0.4986670000000  0.4252480000000  0.5665690000000 1.0
C      1  0.4457540000000  0.5736090000000  0.5421350000000 1.0
C      1  0.4602150000000  0.5707960000000  0.4603730000000 1.0
C      1  0.5078070000000  0.5794080000000  0.4458010000000 1.0
C      1  0.5417730000000  0.5718250000000  0.4860320000000 1.0
C      1  0.5473310000000  0.5745260000000  0.5385660000000 1.0
C      1  0.4986970000000  0.5737480000000  0.5664520000000 1.0
C      1  0.5909740000000  0.4685310000000  0.5837340000000 1.0
C      1  0.4594040000000  0.4681210000000  0.6061530000000 1.0
C      1  0.3747960000000  0.4649160000000  0.5348080000000 1.0
C      1  0.4492320000000  0.4673500000000  0.3955150000000 1.0
C      1  0.5312230000000  0.4673180000000  0.3890000000000 1.0
C      1  0.6078520000000  0.4677190000000  0.4849820000000 1.0
C      1  0.5909870000000  0.5304500000000  0.5836880000000 1.0
C      1  0.4594300000000  0.5309340000000  0.6061050000000 1.0
C      1  0.3746550000000  0.5341240000000  0.5351750000000 1.0
C      1  0.4492490000000  0.5314050000000  0.3954620000000 1.0
C      1  0.5312400000000  0.5313860000000  0.3889490000000 1.0
C      1  0.6078680000000  0.5310980000000  0.4849340000000 1.0
C      1  0.4962150000000  0.5534610000000  0.4796400000000 1.0
C      1  0.5160430000000  0.5609840000000  0.4968010000000 1.0
C      1  0.5130070000000  0.5471460000000  0.5206500000000 1.0
C      1  0.4869110000000  0.5432940000000  0.5293220000000 1.0
C      1  0.4662450000000  0.5488670000000  0.5107380000000 1.0
C      1  0.4698240000000  0.5618040000000  0.4860320000000 1.0
C      1  0.4961870000000  0.4454040000000  0.4797260000000 1.0
C      1  0.5160120000000  0.4378970000000  0.4968980000000 1.0
C      1  0.5129840000000  0.4517730000000  0.5207250000000 1.0
C      1  0.4868900000000  0.4556490000000  0.5293930000000 1.0
C      1  0.4662190000000  0.4500620000000  0.5108170000000 1.0
C      1  0.4697920000000  0.4370840000000  0.4861320000000 1.0
C      1  0.4837620000000  0.6042630000000  0.5328480000000 1.0
C      1  0.4687220000000  0.6047420000000  0.5075590000000 1.0
C      1  0.4849850000000  0.6076840000000  0.4817830000000 1.0
C      1  0.5146380000000  0.6104950000000  0.4843510000000 1.0
C      1  0.5278030000000  0.6097510000000  0.5104370000000 1.0
C      1  0.5120660000000  0.6065900000000  0.5343810000000 1.0
C      1  0.4837150000000  0.3946870000000  0.5330140000000 1.0
C      1  0.4686730000000  0.3941790000000  0.5077270000000 1.0
C      1  0.4849320000000  0.3911890000000  0.4819550000000 1.0
C      1  0.5145840000000  0.3883680000000  0.4845240000000 1.0
C      1  0.5277520000000  0.3891450000000  0.5106080000000 1.0
C      1  0.5120180000000  0.3923500000000  0.5345490000000 1.0
C      1  0.3951250000000  0.4480790000000  0.5408240000000 1.0
C      1  0.4479600000000  0.4501630000000  0.4160200000000 1.0
C      1  0.5229890000000  0.4492060000000  0.4069230000000 1.0
C      1  0.5875000000000  0.4509010000000  0.4807910000000 1.0
C      1  0.5776650000000  0.4527350000000  0.5669210000000 1.0
C      1  0.4794550000000  0.4499920000000  0.6056070000000 1.0
C      1  0.3951400000000  0.5509180000000  0.5407430000000 1.0
C      1  0.4479860000000  0.5486250000000  0.4159400000000 1.0
C      1  0.5230160000000  0.5495310000000  0.4068440000000 1.0
C      1  0.5875240000000  0.5479200000000  0.4807170000000 1.0
C      1  0.5776850000000  0.5462250000000  0.5668510000000 1.0
C      1  0.4794790000000  0.5490650000000  0.6055300000000 1.0
C      1  0.5282270000000  0.5911200000000  0.4650440000000 1.0
C      1  0.5491940000000  0.5883340000000  0.5116340000000 1.0
C      1  0.5227210000000  0.5850430000000  0.5523290000000 1.0
C      1  0.4731040000000  0.5834130000000  0.5525530000000 1.0
C      1  0.4435590000000  0.5907260000000  0.5164900000000 1.0
C      1  0.4806640000000  0.5913730000000  0.4555410000000 1.0
C      1  0.5281810000000  0.4077070000000  0.4651870000000 1.0
C      1  0.5491520000000  0.4105540000000  0.5117710000000 1.0
C      1  0.5226840000000  0.4139200000000  0.5524620000000 1.0
C      1  0.4730690000000  0.4155730000000  0.5526880000000 1.0
C      1  0.4435180000000  0.4082220000000  0.5166390000000 1.0
C      1  0.4806170000000  0.4074610000000  0.4556870000000 1.0
C      1  0.4845400000000  0.4750870000000  0.5490780000000 1.0
C      1  0.4511960000000  0.4727480000000  0.5046170000000 1.0
C      1  0.4665950000000  0.4842970000000  0.4791030000000 1.0
C      1  0.4968320000000  0.4741370000000  0.4728600000000 1.0
C      1  0.5228790000000  0.4845140000000  0.4878680000000 1.0
C      1  0.5294570000000  0.4743580000000  0.5163060000000 1.0
C      1  0.4845530000000  0.5238880000000  0.5490370000000 1.0
C      1  0.4512070000000  0.5261820000000  0.5045690000000 1.0
C      1  0.4666020000000  0.5145820000000  0.4790770000000 1.0
C      1  0.4968450000000  0.5247170000000  0.4728190000000 1.0
C      1  0.5228870000000  0.5143500000000  0.4878450000000 1.0
C      1  0.5294700000000  0.5245470000000  0.5162670000000 1.0
C      1  0.6282420000000  0.5140110000000  0.4936460000000 1.0
C      1  0.6052790000000  0.5140520000000  0.6011890000000 1.0
C      1  0.4444990000000  0.5143940000000  0.5887960000000 1.0
C      1  0.3550900000000  0.5138360000000  0.5326830000000 1.0
C      1  0.4570220000000  0.5139870000000  0.3749360000000 1.0
C      1  0.5366080000000  0.5139610000000  0.3676790000000 1.0
C      1  0.6282340000000  0.4848090000000  0.4936680000000 1.0
C      1  0.6052730000000  0.4849490000000  0.6012110000000 1.0
C      1  0.4444810000000  0.4846440000000  0.5888200000000 1.0
C      1  0.3574070000000  0.4851890000000  0.5254730000000 1.0
C      1  0.4570140000000  0.4847300000000  0.3749600000000 1.0
C      1  0.5366010000000  0.4847060000000  0.3677020000000 1.0
C      1  0.5601130000000  0.5493670000000  0.5451690000000 1.0
C      1  0.4981700000000  0.5510130000000  0.5843560000000 1.0
C      1  0.4254740000000  0.5459000000000  0.5455580000000 1.0
C      1  0.4497130000000  0.5495880000000  0.4439950000000 1.0
C      1  0.5103300000000  0.5523670000000  0.4320910000000 1.0
C      1  0.5596540000000  0.5492460000000  0.4770540000000 1.0
C      1  0.5600910000000  0.4495680000000  0.5452450000000 1.0
C      1  0.4981480000000  0.4480100000000  0.5844380000000 1.0
C      1  0.4254590000000  0.4530960000000  0.5456490000000 1.0
C      1  0.4496850000000  0.4492440000000  0.4440780000000 1.0
C      1  0.5103020000000  0.4464160000000  0.4321750000000 1.0
C      1  0.5596290000000  0.4495830000000  0.4771310000000 1.0
C      1  0.5591040000000  0.4994020000000  0.4607370000000 1.0
C      1  0.4358080000000  0.4994200000000  0.4458410000000 1.0
C      1  0.5647210000000  0.4994590000000  0.5361420000000 1.0
C      1  0.5032330000000  0.4993920000000  0.4313100000000 1.0
C      1  0.5108410000000  0.4995060000000  0.5806340000000 1.0
C      1  0.4167820000000  0.4994910000000  0.5231590000000 1.0
C      1  0.4725920000000  0.4994870000000  0.5443240000000 1.0
END
