TITL C-3201377-4638-1150 2.52922978313193 125000 -233.778716409641 0 0 42 (C3) n - 1
REM
REM in /home/nfs/bkarasulu/CARBON/AIRSS/Generating-Clusters/LCBOP/Higher-Symm/SD-CG/FIRE-CG
REM
REM
REM
REM
REM
REM ./C.cell (b20cbc046b6831c77cfcea5457e17084)
REM AIRSS Version 0.9.1 bugfix July 2018 build 013d7b7c2542+ Fri, 06 Jul 2018 19:26:36 +0100
REM compiler GCC version 9.2.1 20190827 (Red Hat 9.2.1-1)
REM options -cpp -mtune=generic -march=x86-64 -g -O0 -fpre-include=/usr/include/finclude/math-vector-fortran.h
REM seed -2106890717 428436385 -473640998 -1251148192 1713358896 1925281776 1857747720 1808505852 1131905486 1386315715 1240436023 207829956 944641817 1901159061 180974472 -143210503 19024166 128442114 -556489884 -368528099 -65758686 -1161715527 -1999520063 -386173912 1820238122 -31946288 -937510170 1484706714 474121922 1874752313 461954772 -622188161 511885981
REM
CELL 1.54180   50.00000   50.00000   50.00000   90.00000   90.00000   90.00000
LATT -1
SFAC C  
C      1  0.4624060000000  0.3699900000000  0.5312880000000 1.0
C      1  0.4623720000000  0.5379160000000  0.3717760000000 1.0
C      1  0.4624160000000  0.5920940000000  0.5969580000000 1.0
C      1  0.5307600000000  0.5314320000000  0.5603940000000 1.0
C      1  0.5307480000000  0.4319760000000  0.4970140000000 1.0
C      1  0.5307360000000  0.5365930000000  0.4425730000000 1.0
C      1  0.5564760000000  0.4426750000000  0.4992900000000 1.0
C      1  0.5564650000000  0.5292690000000  0.4506930000000 1.0
C      1  0.5564850000000  0.5280580000000  0.5499840000000 1.0
C      1  0.5032920000000  0.5305720000000  0.5653090000000 1.0
C      1  0.5032790000000  0.4281540000000  0.4938210000000 1.0
C      1  0.5032680000000  0.5412740000000  0.4408690000000 1.0
C      1  0.4569800000000  0.4823200000000  0.4560610000000 1.0
C      1  0.4569890000000  0.5468980000000  0.5066710000000 1.0
C      1  0.4569960000000  0.4707800000000  0.5372930000000 1.0
C      1  0.4767430000000  0.3878340000000  0.5188140000000 1.0
C      1  0.4767170000000  0.5397940000000  0.3934620000000 1.0
C      1  0.4767550000000  0.5723720000000  0.5877370000000 1.0
C      1  0.5783440000000  0.5377790000000  0.5632120000000 1.0
C      1  0.5783330000000  0.4263550000000  0.5010880000000 1.0
C      1  0.5783190000000  0.5358680000000  0.4356540000000 1.0
C      1  0.4905310000000  0.5412440000000  0.4160230000000 1.0
C      1  0.4905630000000  0.5521070000000  0.5777090000000 1.0
C      1  0.4905510000000  0.4066500000000  0.5062740000000 1.0
C      1  0.5593710000000  0.5149400000000  0.4748010000000 1.0
C      1  0.5593810000000  0.5143430000000  0.5255190000000 1.0
C      1  0.5593760000000  0.4707180000000  0.4996440000000 1.0
C      1  0.4396630000000  0.5460650000000  0.5267130000000 1.0
C      1  0.4396640000000  0.4538420000000  0.5265560000000 1.0
C      1  0.4396480000000  0.5000900000000  0.4467670000000 1.0
C      1  0.4232920000000  0.5442150000000  0.5469160000000 1.0
C      1  0.4232870000000  0.4372730000000  0.5148580000000 1.0
C      1  0.4232710000000  0.5185080000000  0.4382710000000 1.0
C      1  0.4736630000000  0.5469700000000  0.4860770000000 1.0
C      1  0.4736760000000  0.4885760000000  0.5476470000000 1.0
C      1  0.4736600000000  0.4644530000000  0.4662920000000 1.0
C      1  0.4885090000000  0.5081930000000  0.5574870000000 1.0
C      1  0.4884940000000  0.4461200000000  0.4783560000000 1.0
C      1  0.4884900000000  0.5456860000000  0.4641650000000 1.0
C      1  0.5600050000000  0.4865890000000  0.4761100000000 1.0
C      1  0.5600090000000  0.5273850000000  0.5003120000000 1.0
C      1  0.5600140000000  0.4860280000000  0.5235420000000 1.0
END
