TITL C-3201373-1215-1505 5731.05391257868 125000 -299.265844124729 0 0 51 (C1) n - 1
REM
REM in /home/nfs/bkarasulu/CARBON/AIRSS/Generating-Clusters/LCBOP/Higher-Symm/SD-CG/FIRE-CG
REM
REM
REM
REM
REM
REM ./C.cell (b20cbc046b6831c77cfcea5457e17084)
REM AIRSS Version 0.9.1 bugfix July 2018 build 013d7b7c2542+ Fri, 06 Jul 2018 19:26:36 +0100
REM compiler GCC version 9.2.1 20190827 (Red Hat 9.2.1-1)
REM options -cpp -mtune=generic -march=x86-64 -g -O0 -fpre-include=/usr/include/finclude/math-vector-fortran.h
REM seed -581322936 -1386913998 -1822728185 95119591 1230307697 -1464723620 536809680 -1752636520 158382821 -56055122 -1321775768 1775948700 189806789 183523277 1311441391 -1317999033 75652093 490854010 -21548209 866195501 -1910668520 -764352166 -1771744725 1957524737 -922550948 -1933978382 -659118026 1026702459 -2088965584 738538896 191416174 1169967818 -1809189682
REM
CELL 1.54180   50.00000   50.00000   50.00000   90.00000   90.00000   90.00000
LATT -1
SFAC C  
C      1  0.4255200000000  0.5748150000000  0.4568150000000 1.0
C      1  0.4478060000000  0.5636580000000  0.4644310000000 1.0
C      1  0.4455300000000  0.5122930000000  0.5276540000000 1.0
C      1  0.5329780000000  0.4534060000000  0.5368630000000 1.0
C      1  0.5124030000000  0.5762420000000  0.4837920000000 1.0
C      1  0.5717840000000  0.5222880000000  0.5773280000000 1.0
C      1  0.4832220000000  0.4575870000000  0.5187670000000 1.0
C      1  0.3910130000000  0.4723170000000  0.5539850000000 1.0
C      1  0.4798580000000  0.4565880000000  0.4912510000000 1.0
C      1  0.5808130000000  0.5012040000000  0.5638500000000 1.0
C      1  0.4966390000000  0.5627420000000  0.4651030000000 1.0
C      1  0.5756720000000  0.4787660000000  0.5505090000000 1.0
C      1  0.5462730000000  0.4979750000000  0.3694040000000 1.0
C      1  0.5611670000000  0.5946140000000  0.5429510000000 1.0
C      1  0.5001000000000  0.4984960000000  0.6020500000000 1.0
C      1  0.4805270000000  0.4165260000000  0.4633990000000 1.0
C      1  0.4915430000000  0.5571450000000  0.5537650000000 1.0
C      1  0.5514240000000  0.5361020000000  0.5874100000000 1.0
C      1  0.5392000000000  0.4239140000000  0.3846200000000 1.0
C      1  0.5091780000000  0.5303500000000  0.6372150000000 1.0
C      1  0.5109700000000  0.5227080000000  0.6110540000000 1.0
C      1  0.5083740000000  0.5542070000000  0.5740860000000 1.0
C      1  0.5239620000000  0.5391680000000  0.5917720000000 1.0
C      1  0.5469890000000  0.4458770000000  0.3719340000000 1.0
C      1  0.5387570000000  0.5212890000000  0.3795720000000 1.0
C      1  0.5057110000000  0.5594330000000  0.4388960000000 1.0
C      1  0.4893580000000  0.4671910000000  0.5607630000000 1.0
C      1  0.5452920000000  0.5905440000000  0.5226760000000 1.0
C      1  0.4632550000000  0.5310540000000  0.5168330000000 1.0
C      1  0.4889450000000  0.4782240000000  0.4750970000000 1.0
C      1  0.5080570000000  0.4741640000000  0.4559310000000 1.0
C      1  0.4716050000000  0.5518100000000  0.4729450000000 1.0
C      1  0.4785680000000  0.5038600000000  0.4794380000000 1.0
C      1  0.4617870000000  0.4695690000000  0.5404450000000 1.0
C      1  0.4709780000000  0.5288070000000  0.4895660000000 1.0
C      1  0.5283220000000  0.5396090000000  0.3956550000000 1.0
C      1  0.5288290000000  0.5849260000000  0.5026740000000 1.0
C      1  0.4405550000000  0.4869660000000  0.5385340000000 1.0
C      1  0.4929250000000  0.4796460000000  0.5848050000000 1.0
C      1  0.4663880000000  0.4345730000000  0.4793530000000 1.0
C      1  0.4149440000000  0.4797520000000  0.5468330000000 1.0
C      1  0.5269200000000  0.4089670000000  0.4027770000000 1.0
C      1  0.4389740000000  0.4312570000000  0.4835570000000 1.0
C      1  0.4759120000000  0.5493100000000  0.5338000000000 1.0
C      1  0.5493340000000  0.4717690000000  0.3666450000000 1.0
C      1  0.4135770000000  0.4297600000000  0.4892110000000 1.0
C      1  0.5057430000000  0.4564690000000  0.5389220000000 1.0
C      1  0.4957820000000  0.4056830000000  0.4446290000000 1.0
C      1  0.5118130000000  0.4028170000000  0.4236970000000 1.0
C      1  0.5580100000000  0.4613960000000  0.5408290000000 1.0
C      1  0.5167140000000  0.5521700000000  0.4159130000000 1.0
END
