TITL C-3201377-4638-848 -13966.4069681956 125000 -40.8282629844016 0 0 12 (C3v) n - 1
REM
REM in /home/nfs/bkarasulu/CARBON/AIRSS/Generating-Clusters/LCBOP/Higher-Symm/SD-CG/FIRE-CG
REM
REM
REM
REM
REM
REM ./C.cell (b20cbc046b6831c77cfcea5457e17084)
REM AIRSS Version 0.9.1 bugfix July 2018 build 013d7b7c2542+ Fri, 06 Jul 2018 19:26:36 +0100
REM compiler GCC version 9.2.1 20190827 (Red Hat 9.2.1-1)
REM options -cpp -mtune=generic -march=x86-64 -g -O0 -fpre-include=/usr/include/finclude/math-vector-fortran.h
REM seed 1879310712 827274347 427137755 -1242667235 452571432 272221289 786414122 -2019299354 -1493518829 333961034 1509422326 651301470 1890045505 902101923 705134973 -184015356 713792279 -132135985 1704456841 -1171422693 870474335 -518270460 1964296249 -1195114841 -1478536147 -1862360344 -1631392104 -368942691 -712558986 1524397894 125939164 1101382035 66093021
REM
CELL 1.54180   50.00000   50.00000   50.00000   90.00000   90.00000   90.00000
LATT -1
SFAC C  
C      1  0.4860540000000  0.5359250000000  0.5154540000000 1.0
C      1  0.5203620000000  0.5358980000000  0.5043600000000 1.0
C      1  0.4935980000000  0.5359150000000  0.4802070000000 1.0
C      1  0.4845780000000  0.4650750000000  0.5148050000000 1.0
C      1  0.5205460000000  0.4650800000000  0.5059530000000 1.0
C      1  0.4948870000000  0.4650720000000  0.4792450000000 1.0
C      1  0.4738110000000  0.5077910000000  0.4930880000000 1.0
C      1  0.5070970000000  0.5078030000000  0.5261360000000 1.0
C      1  0.5190700000000  0.5078010000000  0.4807630000000 1.0
C      1  0.4804660000000  0.4912160000000  0.5186670000000 1.0
C      1  0.5259380000000  0.4912150000000  0.5075790000000 1.0
C      1  0.4935920000000  0.4912100000000  0.4737450000000 1.0
END
