TITL C-3201374-830-579 3.92335633998119e-05 125000 -290.149726267117 0 0 49 (Cs) n - 1
REM
REM in /home/nfs/bkarasulu/CARBON/AIRSS/Generating-Clusters/LCBOP/Higher-Symm/SD-CG/FIRE-CG
REM
REM
REM
REM
REM
REM ./C.cell (b20cbc046b6831c77cfcea5457e17084)
REM AIRSS Version 0.9.1 bugfix July 2018 build 013d7b7c2542+ Fri, 06 Jul 2018 19:26:36 +0100
REM compiler GCC version 9.2.1 20190827 (Red Hat 9.2.1-1)
REM options -cpp -mtune=generic -march=x86-64 -g -O0 -fpre-include=/usr/include/finclude/math-vector-fortran.h
REM seed -828358717 1522514701 -756532265 -1850631740 511353662 -759798552 1760190226 58087169 -2113204302 -1015412622 1538344723 1665499099 682093850 1799019520 1227770746 553476866 75797908 -1478961527 -87026825 -223250204 -898990927 1980922977 1631058976 -860593704 763448900 -1409334427 905325786 -141519744 1079604102 -1154972314 1815924695 -457205467 171859278
REM
CELL 1.54180   50.00000   50.00000   50.00000   90.00000   90.00000   90.00000
LATT -1
SFAC C  
C      1  0.5416160000000  0.5144060000000  0.5717820000000 1.0
C      1  0.4575450000000  0.5142130000000  0.5716060000000 1.0
C      1  0.5658830000000  0.5226610000000  0.5162540000000 1.0
C      1  0.4334730000000  0.5223560000000  0.5159770000000 1.0
C      1  0.4722360000000  0.5408030000000  0.4533160000000 1.0
C      1  0.5272980000000  0.5409300000000  0.4534310000000 1.0
C      1  0.5831480000000  0.4668300000000  0.4778620000000 1.0
C      1  0.4166250000000  0.4664470000000  0.4775130000000 1.0
C      1  0.5340950000000  0.5208480000000  0.5981280000000 1.0
C      1  0.4649260000000  0.5206880000000  0.5979830000000 1.0
C      1  0.4426820000000  0.4665410000000  0.4779010000000 1.0
C      1  0.5570900000000  0.4668040000000  0.4781400000000 1.0
C      1  0.4686710000000  0.5026240000000  0.4189890000000 1.0
C      1  0.5311820000000  0.5027680000000  0.4191200000000 1.0
C      1  0.4492480000000  0.4880460000000  0.5660380000000 1.0
C      1  0.5500570000000  0.4882780000000  0.5662480000000 1.0
C      1  0.5254240000000  0.4434470000000  0.5612770000000 1.0
C      1  0.4741070000000  0.4433290000000  0.5611700000000 1.0
C      1  0.5438130000000  0.4626280000000  0.5628690000000 1.0
C      1  0.4556240000000  0.4624250000000  0.5626840000000 1.0
C      1  0.4659270000000  0.5316030000000  0.5505980000000 1.0
C      1  0.5332420000000  0.5317580000000  0.5507390000000 1.0
C      1  0.5145140000000  0.5331390000000  0.4774880000000 1.0
C      1  0.4849550000000  0.5330710000000  0.4774260000000 1.0
C      1  0.4862980000000  0.4583950000000  0.4074510000000 1.0
C      1  0.5138080000000  0.4584590000000  0.4075080000000 1.0
C      1  0.4860780000000  0.5620690000000  0.4400260000000 1.0
C      1  0.5134140000000  0.5621320000000  0.4400830000000 1.0
C      1  0.5198660000000  0.5281770000000  0.5040860000000 1.0
C      1  0.4795150000000  0.5280840000000  0.5040010000000 1.0
C      1  0.4737620000000  0.4754550000000  0.4269620000000 1.0
C      1  0.5261830000000  0.4755760000000  0.4270720000000 1.0
C      1  0.5128250000000  0.5239900000000  0.6139790000000 1.0
C      1  0.4861150000000  0.5239280000000  0.6139230000000 1.0
C      1  0.5407290000000  0.5218260000000  0.4376340000000 1.0
C      1  0.4589590000000  0.5216380000000  0.4374620000000 1.0
C      1  0.5133520000000  0.4626170000000  0.5000930000000 1.0
C      1  0.4863470000000  0.4625550000000  0.5000370000000 1.0
C      1  0.4594570000000  0.5269370000000  0.5233050000000 1.0
C      1  0.5398470000000  0.5271220000000  0.5234730000000 1.0
C      1  0.4861730000000  0.5503440000000  0.5560350000000 1.0
C      1  0.5128880000000  0.5504050000000  0.5560910000000 1.0
C      1  0.4852030000000  0.4716570000000  0.4532340000000 1.0
C      1  0.5146500000000  0.4717250000000  0.4532960000000 1.0
C      1  0.5293270000000  0.4670790000000  0.4772210000000 1.0
C      1  0.4704470000000  0.4669430000000  0.4770980000000 1.0
C      1  0.5134940000000  0.5125100000000  0.3989710000000 1.0
C      1  0.4863980000000  0.5124480000000  0.3989150000000 1.0
C      1  0.4997830000000  0.4362970000000  0.5608080000000 1.0
END
