TITL C-3201379-3821-1382 0.0273347152854667 125000 -610.259750569266 0 0 101 (C1) n - 1
REM
REM in /home/nfs/bkarasulu/CARBON/AIRSS/Generating-Clusters/LCBOP/Higher-Symm/SD-CG/FIRE-CG
REM
REM
REM
REM
REM
REM ./C.cell (b20cbc046b6831c77cfcea5457e17084)
REM AIRSS Version 0.9.1 bugfix July 2018 build 013d7b7c2542+ Fri, 06 Jul 2018 19:26:36 +0100
REM compiler GCC version 9.2.1 20190827 (Red Hat 9.2.1-1)
REM options -cpp -mtune=generic -march=x86-64 -g -O0 -fpre-include=/usr/include/finclude/math-vector-fortran.h
REM seed -1886680966 882467361 1374965079 -1734931912 -433806652 -176954630 -1319228952 -104494455 290731826 1639890590 -919063671 -2143699774 664538965 -1617056702 275788004 -93044775 -74822373 371967459 446235959 1002580336 -2067330027 -993584327 -804500451 -341285910 723353661 253447089 1306918971 -1498548380 -859256076 1300312138 17619189 -1521585815 1018625571
REM
CELL 1.54180   50.00000   50.00000   50.00000   90.00000   90.00000   90.00000
LATT -1
SFAC C  
C      1  0.5879340000000  0.5156630000000  0.5244570000000 1.0
C      1  0.4300840000000  0.5314340000000  0.5649650000000 1.0
C      1  0.4859890000000  0.5086540000000  0.4161270000000 1.0
C      1  0.4334190000000  0.4613250000000  0.4880910000000 1.0
C      1  0.5833650000000  0.5167470000000  0.3942180000000 1.0
C      1  0.5171780000000  0.4602790000000  0.5707400000000 1.0
C      1  0.5936060000000  0.4909030000000  0.5089290000000 1.0
C      1  0.4320070000000  0.5089060000000  0.5834850000000 1.0
C      1  0.4749110000000  0.4843060000000  0.4056230000000 1.0
C      1  0.5649260000000  0.5054410000000  0.5418250000000 1.0
C      1  0.4282370000000  0.5164870000000  0.5384420000000 1.0
C      1  0.5086630000000  0.4992030000000  0.4349440000000 1.0
C      1  0.5820690000000  0.4575010000000  0.5611580000000 1.0
C      1  0.3957660000000  0.4726350000000  0.5412420000000 1.0
C      1  0.5395920000000  0.4568850000000  0.4156960000000 1.0
C      1  0.5215460000000  0.5242720000000  0.4841960000000 1.0
C      1  0.5041590000000  0.5255240000000  0.5321590000000 1.0
C      1  0.4715860000000  0.5252580000000  0.4921950000000 1.0
C      1  0.5228830000000  0.5793010000000  0.5187030000000 1.0
C      1  0.4736370000000  0.5796680000000  0.5089880000000 1.0
C      1  0.5069160000000  0.5766900000000  0.4728840000000 1.0
C      1  0.5087060000000  0.4345830000000  0.4433650000000 1.0
C      1  0.5456270000000  0.4449590000000  0.5317420000000 1.0
C      1  0.4402610000000  0.4540960000000  0.5359710000000 1.0
C      1  0.4244650000000  0.5250580000000  0.5104050000000 1.0
C      1  0.5253530000000  0.5239940000000  0.4347640000000 1.0
C      1  0.5463880000000  0.5195420000000  0.5602000000000 1.0
C      1  0.4352160000000  0.4940370000000  0.4374320000000 1.0
C      1  0.5839530000000  0.5021110000000  0.4606800000000 1.0
C      1  0.4836310000000  0.5077800000000  0.5967490000000 1.0
C      1  0.4349550000000  0.4517560000000  0.4617150000000 1.0
C      1  0.5982230000000  0.5032150000000  0.4119160000000 1.0
C      1  0.4920800000000  0.4594520000000  0.5842300000000 1.0
C      1  0.5064640000000  0.5927260000000  0.5386880000000 1.0
C      1  0.4636480000000  0.5865130000000  0.4820760000000 1.0
C      1  0.5359190000000  0.5797600000000  0.4739090000000 1.0
C      1  0.4383650000000  0.4825700000000  0.5782830000000 1.0
C      1  0.4766380000000  0.4582300000000  0.4131240000000 1.0
C      1  0.5782560000000  0.4684270000000  0.5024080000000 1.0
C      1  0.4502120000000  0.5138830000000  0.4501330000000 1.0
C      1  0.5681170000000  0.5175100000000  0.4777240000000 1.0
C      1  0.4820530000000  0.5250240000000  0.5748400000000 1.0
C      1  0.4776970000000  0.5848990000000  0.5379670000000 1.0
C      1  0.4807720000000  0.5763040000000  0.4593300000000 1.0
C      1  0.5471950000000  0.5784820000000  0.5024170000000 1.0
C      1  0.4660690000000  0.3914180000000  0.5782500000000 1.0
C      1  0.4348250000000  0.3718640000000  0.4343690000000 1.0
C      1  0.5625230000000  0.3916330000000  0.4694120000000 1.0
C      1  0.4879280000000  0.5533560000000  0.5742140000000 1.0
C      1  0.4464570000000  0.5424780000000  0.4491030000000 1.0
C      1  0.5696130000000  0.5464360000000  0.4762600000000 1.0
C      1  0.5969230000000  0.4973210000000  0.4379390000000 1.0
C      1  0.4869570000000  0.4815250000000  0.6013040000000 1.0
C      1  0.4312730000000  0.4675780000000  0.4401300000000 1.0
C      1  0.4117640000000  0.4514660000000  0.5358730000000 1.0
C      1  0.5310250000000  0.4333820000000  0.4258490000000 1.0
C      1  0.5665770000000  0.4386350000000  0.5497020000000 1.0
C      1  0.4496460000000  0.4608270000000  0.5625760000000 1.0
C      1  0.4832480000000  0.4360000000000  0.4298610000000 1.0
C      1  0.5539420000000  0.4518890000000  0.5046290000000 1.0
C      1  0.4133200000000  0.4810210000000  0.4911340000000 1.0
C      1  0.5594720000000  0.5287700000000  0.3949030000000 1.0
C      1  0.5353620000000  0.4777340000000  0.5834920000000 1.0
C      1  0.4526560000000  0.4574760000000  0.5092530000000 1.0
C      1  0.5144530000000  0.4459250000000  0.4695920000000 1.0
C      1  0.5202420000000  0.4522490000000  0.5431260000000 1.0
C      1  0.5511280000000  0.4144500000000  0.4747770000000 1.0
C      1  0.4678070000000  0.4173920000000  0.5770840000000 1.0
C      1  0.4505010000000  0.3926220000000  0.4326560000000 1.0
C      1  0.5795060000000  0.4839580000000  0.5576000000000 1.0
C      1  0.4039380000000  0.4981740000000  0.5432540000000 1.0
C      1  0.5274590000000  0.4799470000000  0.4217770000000 1.0
C      1  0.5443390000000  0.5093440000000  0.4929200000000 1.0
C      1  0.4819200000000  0.5148380000000  0.5475090000000 1.0
C      1  0.4714300000000  0.5074400000000  0.4690290000000 1.0
C      1  0.5277650000000  0.5368900000000  0.4588400000000 1.0
C      1  0.5255990000000  0.5360280000000  0.5499680000000 1.0
C      1  0.4451410000000  0.5380330000000  0.4964120000000 1.0
C      1  0.5708370000000  0.5598300000000  0.5024430000000 1.0
C      1  0.4677070000000  0.5687790000000  0.5600230000000 1.0
C      1  0.4705210000000  0.5561490000000  0.4396790000000 1.0
C      1  0.4929640000000  0.4898580000000  0.4617520000000 1.0
C      1  0.5456690000000  0.4984380000000  0.5188710000000 1.0
C      1  0.4572900000000  0.5058510000000  0.5372850000000 1.0
C      1  0.4699200000000  0.4450060000000  0.5746230000000 1.0
C      1  0.4660770000000  0.4140080000000  0.4312670000000 1.0
C      1  0.5396100000000  0.4389470000000  0.4829140000000 1.0
C      1  0.4813210000000  0.4601180000000  0.5037480000000 1.0
C      1  0.4957190000000  0.4659140000000  0.4785510000000 1.0
C      1  0.4983670000000  0.4548490000000  0.5257280000000 1.0
C      1  0.4086150000000  0.5070440000000  0.4954010000000 1.0
C      1  0.5386250000000  0.5317320000000  0.4112700000000 1.0
C      1  0.5416520000000  0.5039370000000  0.5833600000000 1.0
C      1  0.4356050000000  0.5519300000000  0.4732860000000 1.0
C      1  0.5479350000000  0.5570980000000  0.4611110000000 1.0
C      1  0.5155300000000  0.5562060000000  0.5678290000000 1.0
C      1  0.4809730000000  0.5374670000000  0.4191820000000 1.0
C      1  0.5865250000000  0.5440040000000  0.5202130000000 1.0
C      1  0.4415840000000  0.5575210000000  0.5636500000000 1.0
C      1  0.5006810000000  0.5653030000000  0.5015600000000 1.0
C      1  0.4993820000000  0.5346060000000  0.5029330000000 1.0
END
