TITL C-3201375-1262-674 -7.21369969257183 125000 -416.940724667783 0 0 71 (C1) n - 1
REM
REM in /home/nfs/bkarasulu/CARBON/AIRSS/Generating-Clusters/LCBOP/Higher-Symm/SD-CG/FIRE-CG
REM
REM
REM
REM
REM
REM ./C.cell (b20cbc046b6831c77cfcea5457e17084)
REM AIRSS Version 0.9.1 bugfix July 2018 build 013d7b7c2542+ Fri, 06 Jul 2018 19:26:36 +0100
REM compiler GCC version 9.2.1 20190827 (Red Hat 9.2.1-1)
REM options -cpp -mtune=generic -march=x86-64 -g -O0 -fpre-include=/usr/include/finclude/math-vector-fortran.h
REM seed -2097400009 -1046738261 -513382559 -1180174505 1161516856 1589336322 1631822565 264845037 1056819841 -24950574 -827270931 -2055878586 1712158480 1108785020 1358566848 819602855 949376681 -568708589 -1412316861 -39469750 -1008229013 445801069 -1288903793 -1175658923 -34591336 -383903085 912739017 -1925017019 1422188756 1403785057 -1770852837 1592321374 -1149668008
REM
CELL 1.54180   50.00000   50.00000   50.00000   90.00000   90.00000   90.00000
LATT -1
SFAC C  
C      1  0.4713760000000  0.5701600000000  0.5095470000000 1.0
C      1  0.4846790000000  0.5760220000000  0.4612350000000 1.0
C      1  0.4765660000000  0.4932070000000  0.4245810000000 1.0
C      1  0.4851840000000  0.4455430000000  0.4354500000000 1.0
C      1  0.4712350000000  0.4377750000000  0.5283820000000 1.0
C      1  0.4876740000000  0.4631060000000  0.5751640000000 1.0
C      1  0.4917960000000  0.5118420000000  0.5924830000000 1.0
C      1  0.4221410000000  0.5290820000000  0.4777750000000 1.0
C      1  0.4308760000000  0.5068630000000  0.4594150000000 1.0
C      1  0.4248730000000  0.4798840000000  0.4719630000000 1.0
C      1  0.4303030000000  0.4669970000000  0.4991470000000 1.0
C      1  0.4181570000000  0.4838740000000  0.5195550000000 1.0
C      1  0.4158460000000  0.5111270000000  0.5221860000000 1.0
C      1  0.4260070000000  0.5336750000000  0.5070960000000 1.0
C      1  0.5549130000000  0.5331520000000  0.5103800000000 1.0
C      1  0.5564040000000  0.5283110000000  0.4808160000000 1.0
C      1  0.5559400000000  0.5019230000000  0.4663350000000 1.0
C      1  0.5558500000000  0.4739550000000  0.4782840000000 1.0
C      1  0.5540340000000  0.4660120000000  0.5068830000000 1.0
C      1  0.5574670000000  0.4829480000000  0.5310640000000 1.0
C      1  0.5563110000000  0.5130320000000  0.5321650000000 1.0
C      1  0.5366440000000  0.4563000000000  0.4329510000000 1.0
C      1  0.5204800000000  0.4282250000000  0.4937050000000 1.0
C      1  0.5324160000000  0.4468420000000  0.5585450000000 1.0
C      1  0.5433050000000  0.5091370000000  0.5820560000000 1.0
C      1  0.5223710000000  0.5612620000000  0.5408400000000 1.0
C      1  0.5352520000000  0.5756320000000  0.4746910000000 1.0
C      1  0.5269660000000  0.5244130000000  0.4289530000000 1.0
C      1  0.5148520000000  0.5058970000000  0.5296020000000 1.0
C      1  0.5006430000000  0.5283990000000  0.5202550000000 1.0
C      1  0.5076590000000  0.5335060000000  0.4932180000000 1.0
C      1  0.5044080000000  0.5172320000000  0.4698170000000 1.0
C      1  0.5113140000000  0.4904270000000  0.4753070000000 1.0
C      1  0.5023880000000  0.4724560000000  0.4954740000000 1.0
C      1  0.5032230000000  0.4816660000000  0.5221680000000 1.0
C      1  0.4633510000000  0.5028720000000  0.5199390000000 1.0
C      1  0.4724500000000  0.5288210000000  0.5287060000000 1.0
C      1  0.4650810000000  0.5341320000000  0.4780050000000 1.0
C      1  0.4804880000000  0.5256120000000  0.4552820000000 1.0
C      1  0.4678590000000  0.4780120000000  0.4688700000000 1.0
C      1  0.4772790000000  0.4600320000000  0.4880040000000 1.0
C      1  0.4764260000000  0.4817700000000  0.5334720000000 1.0
C      1  0.4957920000000  0.4239240000000  0.5210600000000 1.0
C      1  0.5147570000000  0.4552080000000  0.5780300000000 1.0
C      1  0.5137390000000  0.5276160000000  0.5872680000000 1.0
C      1  0.4972950000000  0.5776280000000  0.5202440000000 1.0
C      1  0.5101360000000  0.5744030000000  0.4504190000000 1.0
C      1  0.5028880000000  0.5000770000000  0.4158100000000 1.0
C      1  0.5101710000000  0.4345530000000  0.4387970000000 1.0
C      1  0.4739240000000  0.4583860000000  0.5498000000000 1.0
C      1  0.4813590000000  0.4872400000000  0.5889940000000 1.0
C      1  0.4538660000000  0.5493520000000  0.5215430000000 1.0
C      1  0.4699170000000  0.5628540000000  0.4816360000000 1.0
C      1  0.4602990000000  0.5127220000000  0.4391430000000 1.0
C      1  0.4735080000000  0.4703260000000  0.4415900000000 1.0
C      1  0.4557410000000  0.4501360000000  0.5050660000000 1.0
C      1  0.5454260000000  0.5036930000000  0.4382400000000 1.0
C      1  0.5472750000000  0.4525430000000  0.4599770000000 1.0
C      1  0.5403090000000  0.4398350000000  0.5116000000000 1.0
C      1  0.5513140000000  0.4690690000000  0.5566050000000 1.0
C      1  0.5502920000000  0.5246220000000  0.5584370000000 1.0
C      1  0.5421730000000  0.5592370000000  0.5190020000000 1.0
C      1  0.5483810000000  0.5514640000000  0.4643010000000 1.0
C      1  0.5287850000000  0.5772550000000  0.5009470000000 1.0
C      1  0.5290460000000  0.5491290000000  0.4404080000000 1.0
C      1  0.5324550000000  0.4815790000000  0.4243200000000 1.0
C      1  0.5258520000000  0.4316740000000  0.4672770000000 1.0
C      1  0.5269750000000  0.4326110000000  0.5363550000000 1.0
C      1  0.5447700000000  0.4821810000000  0.5805610000000 1.0
C      1  0.5269080000000  0.5443990000000  0.5620700000000 1.0
C      1  0.4612630000000  0.5062230000000  0.4906140000000 1.0
END
