TITL C-3201378-2706-2052 -8.50174016275824e-07 125000 -1223.45840653736 0 0 200 (C1) n - 1
REM
REM in /home/nfs/bkarasulu/CARBON/AIRSS/Generating-Clusters/LCBOP/Higher-Symm/SD-CG/FIRE-CG
REM
REM
REM
REM
REM
REM ./C.cell (b20cbc046b6831c77cfcea5457e17084)
REM AIRSS Version 0.9.1 bugfix July 2018 build 013d7b7c2542+ Fri, 06 Jul 2018 19:26:36 +0100
REM compiler GCC version 9.2.1 20190827 (Red Hat 9.2.1-1)
REM options -cpp -mtune=generic -march=x86-64 -g -O0 -fpre-include=/usr/include/finclude/math-vector-fortran.h
REM seed 1048789847 39492798 -193405908 -1897459170 -1004052240 437091027 242585150 207037593 -1504551207 1872162483 314562426 -95957268 508673156 -1305184907 -1225067706 1722891735 -1488430694 -573806426 153925407 -1374940038 -1745185291 436408658 1250129930 629710479 1977639140 -737146174 1931071499 995876551 715422169 1765035813 -949939365 -577496739 -1706648427
REM
CELL 1.54180   50.00000   50.00000   50.00000   90.00000   90.00000   90.00000
LATT -1
SFAC C  
C      1  0.4881580000000  0.4163480000000  0.4781210000000 1.0
C      1  0.4757380000000  0.4164710000000  0.5048530000000 1.0
C      1  0.4973650000000  0.4167250000000  0.5249210000000 1.0
C      1  0.5231190000000  0.4167520000000  0.5105400000000 1.0
C      1  0.5174020000000  0.4165270000000  0.4816360000000 1.0
C      1  0.5270850000000  0.5002530000000  0.3755540000000 1.0
C      1  0.3901270000000  0.5000370000000  0.4352150000000 1.0
C      1  0.4046990000000  0.5013410000000  0.5840350000000 1.0
C      1  0.5507640000000  0.5017560000000  0.6153130000000 1.0
C      1  0.6242680000000  0.5029660000000  0.4868080000000 1.0
C      1  0.4283680000000  0.3625260000000  0.5184370000000 1.0
C      1  0.4955090000000  0.3633250000000  0.5747390000000 1.0
C      1  0.5697840000000  0.3633510000000  0.5281970000000 1.0
C      1  0.5485350000000  0.3626810000000  0.4432930000000 1.0
C      1  0.4611810000000  0.3621600000000  0.4371990000000 1.0
C      1  0.5570120000000  0.5512090000000  0.5087550000000 1.0
C      1  0.5202420000000  0.5492970000000  0.4430590000000 1.0
C      1  0.4524740000000  0.5495410000000  0.4617600000000 1.0
C      1  0.4484390000000  0.5492030000000  0.5301880000000 1.0
C      1  0.5155190000000  0.5505110000000  0.5557960000000 1.0
C      1  0.5206580000000  0.5973400000000  0.4287710000000 1.0
C      1  0.4377540000000  0.6004840000000  0.4598430000000 1.0
C      1  0.4419580000000  0.5976820000000  0.5472890000000 1.0
C      1  0.5285600000000  0.5963750000000  0.5707220000000 1.0
C      1  0.5742310000000  0.5955040000000  0.4975000000000 1.0
C      1  0.4199480000000  0.5726580000000  0.4996620000000 1.0
C      1  0.4765760000000  0.5704210000000  0.5734840000000 1.0
C      1  0.5712080000000  0.5721600000000  0.5530070000000 1.0
C      1  0.5613860000000  0.5694560000000  0.4551700000000 1.0
C      1  0.4749090000000  0.5710760000000  0.4249960000000 1.0
C      1  0.4851440000000  0.4540940000000  0.3916610000000 1.0
C      1  0.3924790000000  0.4540740000000  0.4803960000000 1.0
C      1  0.4485200000000  0.4555420000000  0.5959730000000 1.0
C      1  0.5760270000000  0.4559720000000  0.5782270000000 1.0
C      1  0.5983400000000  0.4550290000000  0.4518670000000 1.0
C      1  0.4657120000000  0.5034510000000  0.4341010000000 1.0
C      1  0.4266830000000  0.5032150000000  0.5114680000000 1.0
C      1  0.4882590000000  0.5045610000000  0.5720880000000 1.0
C      1  0.5648330000000  0.5044750000000  0.5332580000000 1.0
C      1  0.5510440000000  0.5037480000000  0.4472490000000 1.0
C      1  0.5355780000000  0.6181560000000  0.4742080000000 1.0
C      1  0.4877830000000  0.6076360000000  0.4642880000000 1.0
C      1  0.4619930000000  0.6085400000000  0.5028170000000 1.0
C      1  0.4892170000000  0.6181000000000  0.5437010000000 1.0
C      1  0.5301510000000  0.6018440000000  0.5205500000000 1.0
C      1  0.4157310000000  0.5878120000000  0.4759740000000 1.0
C      1  0.4519760000000  0.5841430000000  0.5724860000000 1.0
C      1  0.5580230000000  0.5876200000000  0.5727870000000 1.0
C      1  0.5805480000000  0.5820070000000  0.4718120000000 1.0
C      1  0.4967160000000  0.5854100000000  0.4135860000000 1.0
C      1  0.4670880000000  0.4998590000000  0.5898430000000 1.0
C      1  0.5757370000000  0.5001830000000  0.5586020000000 1.0
C      1  0.5785310000000  0.4987140000000  0.4454770000000 1.0
C      1  0.4725950000000  0.4981880000000  0.4074090000000 1.0
C      1  0.4032710000000  0.4982690000000  0.4968740000000 1.0
C      1  0.4870060000000  0.5005710000000  0.4521950000000 1.0
C      1  0.4504130000000  0.5004010000000  0.4966580000000 1.0
C      1  0.4815140000000  0.5008550000000  0.5451150000000 1.0
C      1  0.5370860000000  0.5008650000000  0.5310900000000 1.0
C      1  0.5406220000000  0.5008950000000  0.4731680000000 1.0
C      1  0.5224580000000  0.4633900000000  0.4928570000000 1.0
C      1  0.5001680000000  0.4633530000000  0.4760450000000 1.0
C      1  0.4773010000000  0.4632730000000  0.4920040000000 1.0
C      1  0.4854090000000  0.4633190000000  0.5186740000000 1.0
C      1  0.5132920000000  0.4633110000000  0.5192240000000 1.0
C      1  0.4274500000000  0.4897540000000  0.4025790000000 1.0
C      1  0.3850720000000  0.4906580000000  0.5386290000000 1.0
C      1  0.5017440000000  0.4888860000000  0.6191410000000 1.0
C      1  0.6142760000000  0.4888190000000  0.5340990000000 1.0
C      1  0.5696170000000  0.4899080000000  0.4010500000000 1.0
C      1  0.3760930000000  0.5177900000000  0.5280520000000 1.0
C      1  0.4886610000000  0.5158220000000  0.6255230000000 1.0
C      1  0.6187280000000  0.5145780000000  0.5495430000000 1.0
C      1  0.5831810000000  0.5168510000000  0.4046740000000 1.0
C      1  0.4347670000000  0.5167560000000  0.3905940000000 1.0
C      1  0.5807030000000  0.5106960000000  0.5101280000000 1.0
C      1  0.5345690000000  0.5084780000000  0.4240640000000 1.0
C      1  0.4386590000000  0.5084710000000  0.4427740000000 1.0
C      1  0.4268790000000  0.5085770000000  0.5398110000000 1.0
C      1  0.5153330000000  0.5097610000000  0.5805480000000 1.0
C      1  0.5640570000000  0.4568150000000  0.4111310000000 1.0
C      1  0.4355380000000  0.4563980000000  0.4113890000000 1.0
C      1  0.3959250000000  0.4570650000000  0.5337740000000 1.0
C      1  0.5006470000000  0.4589650000000  0.6092610000000 1.0
C      1  0.6046100000000  0.4591020000000  0.5324920000000 1.0
C      1  0.5115730000000  0.4591110000000  0.4325180000000 1.0
C      1  0.4394950000000  0.4585700000000  0.4677100000000 1.0
C      1  0.4508190000000  0.4588980000000  0.5473800000000 1.0
C      1  0.5300120000000  0.4590820000000  0.5610540000000 1.0
C      1  0.5675030000000  0.4597160000000  0.4900820000000 1.0
C      1  0.5251860000000  0.4990270000000  0.6047080000000 1.0
C      1  0.6066760000000  0.5002590000000  0.5082350000000 1.0
C      1  0.5422670000000  0.4986580000000  0.3988060000000 1.0
C      1  0.4169030000000  0.4985420000000  0.4278760000000 1.0
C      1  0.4060320000000  0.4993070000000  0.5563530000000 1.0
C      1  0.4555020000000  0.4333290000000  0.5547400000000 1.0
C      1  0.5388250000000  0.4336440000000  0.5591580000000 1.0
C      1  0.5684180000000  0.4339810000000  0.4819810000000 1.0
C      1  0.5042130000000  0.4332840000000  0.4296330000000 1.0
C      1  0.4343800000000  0.4328570000000  0.4742300000000 1.0
C      1  0.5489400000000  0.6098910000000  0.4994810000000 1.0
C      1  0.5152230000000  0.6119940000000  0.4539040000000 1.0
C      1  0.4601380000000  0.6143520000000  0.4733070000000 1.0
C      1  0.4622340000000  0.6130380000000  0.5319410000000 1.0
C      1  0.5176140000000  0.6094890000000  0.5463850000000 1.0
C      1  0.4125630000000  0.5859670000000  0.5446010000000 1.0
C      1  0.5157430000000  0.5840660000000  0.5967070000000 1.0
C      1  0.6011960000000  0.5826650000000  0.5177090000000 1.0
C      1  0.5452790000000  0.5852150000000  0.4135920000000 1.0
C      1  0.4301910000000  0.5858140000000  0.4278640000000 1.0
C      1  0.5347490000000  0.5806300000000  0.3868210000000 1.0
C      1  0.4023190000000  0.5814360000000  0.4313220000000 1.0
C      1  0.4057190000000  0.5796540000000  0.5723220000000 1.0
C      1  0.5384280000000  0.5817200000000  0.6147970000000 1.0
C      1  0.6197520000000  0.5764050000000  0.4970990000000 1.0
C      1  0.3852380000000  0.5445170000000  0.5251360000000 1.0
C      1  0.4888720000000  0.5424400000000  0.6154350000000 1.0
C      1  0.6119630000000  0.5419550000000  0.5485300000000 1.0
C      1  0.5773640000000  0.5431480000000  0.4134460000000 1.0
C      1  0.4406560000000  0.5434150000000  0.3982820000000 1.0
C      1  0.4904650000000  0.5157550000000  0.5226940000000 1.0
C      1  0.5186570000000  0.5157000000000  0.5151560000000 1.0
C      1  0.5200400000000  0.5157440000000  0.4859510000000 1.0
C      1  0.4926860000000  0.5157320000000  0.4755690000000 1.0
C      1  0.4743770000000  0.5156920000000  0.4983330000000 1.0
C      1  0.5167540000000  0.5716490000000  0.4831710000000 1.0
C      1  0.4885590000000  0.5780830000000  0.4744350000000 1.0
C      1  0.4713280000000  0.5787170000000  0.5012410000000 1.0
C      1  0.4914940000000  0.5726350000000  0.5229060000000 1.0
C      1  0.5166840000000  0.5785190000000  0.5106220000000 1.0
C      1  0.3868180000000  0.4823860000000  0.4807660000000 1.0
C      1  0.4470240000000  0.4839330000000  0.6010890000000 1.0
C      1  0.5805620000000  0.4843460000000  0.5811350000000 1.0
C      1  0.6017780000000  0.4834400000000  0.4483370000000 1.0
C      1  0.4828730000000  0.4824400000000  0.3866760000000 1.0
C      1  0.5830760000000  0.4445290000000  0.5503780000000 1.0
C      1  0.5742430000000  0.4430970000000  0.4369960000000 1.0
C      1  0.4633160000000  0.4425030000000  0.4099950000000 1.0
C      1  0.4031970000000  0.4428110000000  0.5070180000000 1.0
C      1  0.4772420000000  0.4442240000000  0.5942050000000 1.0
C      1  0.5286250000000  0.4474690000000  0.6069630000000 1.0
C      1  0.6111230000000  0.4472290000000  0.5055570000000 1.0
C      1  0.5402850000000  0.4458260000000  0.3965730000000 1.0
C      1  0.4142780000000  0.4456030000000  0.4295030000000 1.0
C      1  0.4067020000000  0.4465800000000  0.5597050000000 1.0
C      1  0.5721000000000  0.5331090000000  0.4963150000000 1.0
C      1  0.5174680000000  0.5300730000000  0.4252980000000 1.0
C      1  0.4347550000000  0.5302280000000  0.4592880000000 1.0
C      1  0.4413630000000  0.5307230000000  0.5475560000000 1.0
C      1  0.5279040000000  0.5316190000000  0.5693740000000 1.0
C      1  0.5543910000000  0.5605440000000  0.5335170000000 1.0
C      1  0.5343240000000  0.5628090000000  0.4631410000000 1.0
C      1  0.4747430000000  0.5635190000000  0.4527790000000 1.0
C      1  0.4463760000000  0.5639950000000  0.5066940000000 1.0
C      1  0.4918310000000  0.5640870000000  0.5497240000000 1.0
C      1  0.5349680000000  0.3778230000000  0.4614670000000 1.0
C      1  0.4742910000000  0.3774600000000  0.4555760000000 1.0
C      1  0.4499210000000  0.3777130000000  0.5114740000000 1.0
C      1  0.4956030000000  0.3782780000000  0.5519330000000 1.0
C      1  0.5481810000000  0.3783020000000  0.5208860000000 1.0
C      1  0.5272310000000  0.4757500000000  0.5393590000000 1.0
C      1  0.5457870000000  0.4760290000000  0.4856390000000 1.0
C      1  0.5004500000000  0.4756840000000  0.4514740000000 1.0
C      1  0.4539980000000  0.4754070000000  0.4839400000000 1.0
C      1  0.4706280000000  0.4756820000000  0.5382750000000 1.0
C      1  0.3984400000000  0.4444290000000  0.4525160000000 1.0
C      1  0.4237720000000  0.4456910000000  0.5818630000000 1.0
C      1  0.5549560000000  0.4463050000000  0.5975030000000 1.0
C      1  0.6102570000000  0.4456620000000  0.4777190000000 1.0
C      1  0.5135190000000  0.4445880000000  0.3886280000000 1.0
C      1  0.3763330000000  0.4940150000000  0.4574220000000 1.0
C      1  0.4215640000000  0.4954730000000  0.6040590000000 1.0
C      1  0.5753360000000  0.4959930000000  0.6061860000000 1.0
C      1  0.6235570000000  0.4959620000000  0.4609290000000 1.0
C      1  0.5016610000000  0.4942580000000  0.3694200000000 1.0
C      1  0.3942470000000  0.5821130000000  0.4576090000000 1.0
C      1  0.4284030000000  0.5781270000000  0.5879610000000 1.0
C      1  0.5623340000000  0.5838720000000  0.6012130000000 1.0
C      1  0.6085270000000  0.5754320000000  0.4720160000000 1.0
C      1  0.5071470000000  0.5804570000000  0.3869500000000 1.0
C      1  0.5366920000000  0.4065960000000  0.4624450000000 1.0
C      1  0.4758060000000  0.4062160000000  0.4539560000000 1.0
C      1  0.4488970000000  0.4064550000000  0.5092210000000 1.0
C      1  0.4932710000000  0.4070390000000  0.5519220000000 1.0
C      1  0.5475750000000  0.4070830000000  0.5227010000000 1.0
C      1  0.4982470000000  0.3665480000000  0.5255670000000 1.0
C      1  0.5238590000000  0.3665430000000  0.5104270000000 1.0
C      1  0.5173860000000  0.3662910000000  0.4813960000000 1.0
C      1  0.4877790000000  0.3661260000000  0.4785760000000 1.0
C      1  0.4759430000000  0.3662730000000  0.5058700000000 1.0
C      1  0.4021820000000  0.5692320000000  0.5225100000000 1.0
C      1  0.4923020000000  0.5665140000000  0.5978220000000 1.0
C      1  0.5980520000000  0.5677380000000  0.5424580000000 1.0
C      1  0.5645430000000  0.5669620000000  0.4261330000000 1.0
C      1  0.4482560000000  0.5680520000000  0.4136170000000 1.0
C      1  0.5606920000000  0.4252960000000  0.5418800000000 1.0
C      1  0.5590660000000  0.4246330000000  0.4561080000000 1.0
C      1  0.4766480000000  0.4240690000000  0.4305400000000 1.0
C      1  0.4268290000000  0.4241890000000  0.5009470000000 1.0
C      1  0.4787090000000  0.4250630000000  0.5702280000000 1.0
END
