TITL C-3201377-4638-265 -2.0765447417081e-07 125000 -24.5568172496354 0 0 5 (D5h) n - 1
REM
REM in /home/nfs/bkarasulu/CARBON/AIRSS/Generating-Clusters/LCBOP/Higher-Symm/SD-CG/FIRE-CG
REM
REM
REM
REM
REM
REM ./C.cell (b20cbc046b6831c77cfcea5457e17084)
REM AIRSS Version 0.9.1 bugfix July 2018 build 013d7b7c2542+ Fri, 06 Jul 2018 19:26:36 +0100
REM compiler GCC version 9.2.1 20190827 (Red Hat 9.2.1-1)
REM options -cpp -mtune=generic -march=x86-64 -g -O0 -fpre-include=/usr/include/finclude/math-vector-fortran.h
REM seed -595772935 -719752675 323366389 637227179 -2104900203 112109416 1637318799 -854612518 -1792073527 -1861751528 -1668974859 -822963448 1021883938 1381393084 1498395142 55747673 2012164981 -850230775 1615951432 485023485 1683356106 -503847122 1633034439 2070159328 -1828119847 1491387337 -1383945658 -2134080330 -869979998 -1962574135 -2031551582 -847065227 -121901243
REM
CELL 1.54180   50.00000   50.00000   50.00000   90.00000   90.00000   90.00000
LATT -1
SFAC C  
C      1  0.5000000000000  0.4833640000000  0.4827190000000 1.0
C      1  0.5000000000000  0.4784240000000  0.5104820000000 1.0
C      1  0.5000000000000  0.5033010000000  0.5237590000000 1.0
C      1  0.5000000000000  0.5236160000000  0.5042020000000 1.0
C      1  0.5000000000000  0.5112940000000  0.4788380000000 1.0
END
