TITL C-3201373-1215-1708 -1.46638310659042e-07 125000 -1002.09901428504 0 0 165 (C5) n - 1
REM
REM in /home/nfs/bkarasulu/CARBON/AIRSS/Generating-Clusters/LCBOP/Higher-Symm/SD-CG/FIRE-CG
REM
REM
REM
REM
REM
REM ./C.cell (b20cbc046b6831c77cfcea5457e17084)
REM AIRSS Version 0.9.1 bugfix July 2018 build 013d7b7c2542+ Fri, 06 Jul 2018 19:26:36 +0100
REM compiler GCC version 9.2.1 20190827 (Red Hat 9.2.1-1)
REM options -cpp -mtune=generic -march=x86-64 -g -O0 -fpre-include=/usr/include/finclude/math-vector-fortran.h
REM seed 1925838505 1114422951 1868135028 268165986 -475683941 927146780 1365247753 -1785293211 981839285 -1688622413 -685464858 -135428100 -743315044 19239768 654590190 -1521712482 212708304 -2126892085 -611002769 -273205735 -1119078673 -796386408 685980418 1237719311 -381210481 -194963400 1904462158 -948947593 -400810164 888493001 840161870 506802231 -1746351105
REM
CELL 1.54180   50.00000   50.00000   50.00000   90.00000   90.00000   90.00000
LATT -1
SFAC C  
C      1  0.4726090000000  0.5426300000000  0.4946850000000 1.0
C      1  0.4509920000000  0.4871230000000  0.4946890000000 1.0
C      1  0.4971020000000  0.4494110000000  0.4946890000000 1.0
C      1  0.5472170000000  0.4816110000000  0.4946850000000 1.0
C      1  0.5320790000000  0.5392240000000  0.4946820000000 1.0
C      1  0.4487600000000  0.5477730000000  0.4154630000000 1.0
C      1  0.4387240000000  0.4660310000000  0.4154680000000 1.0
C      1  0.5133640000000  0.4312270000000  0.4154670000000 1.0
C      1  0.5695300000000  0.4914580000000  0.4154610000000 1.0
C      1  0.5296030000000  0.5634880000000  0.4154590000000 1.0
C      1  0.4287370000000  0.3696620000000  0.4965320000000 1.0
C      1  0.6019370000000  0.3919480000000  0.4965230000000 1.0
C      1  0.6342640000000  0.5635580000000  0.4965120000000 1.0
C      1  0.4810420000000  0.6473330000000  0.4965140000000 1.0
C      1  0.3540200000000  0.5274990000000  0.4965270000000 1.0
C      1  0.6147150000000  0.3692730000000  0.4952370000000 1.0
C      1  0.6597770000000  0.5687040000000  0.4952230000000 1.0
C      1  0.4840320000000  0.6731880000000  0.4952250000000 1.0
C      1  0.3303540000000  0.5383320000000  0.4952390000000 1.0
C      1  0.4111200000000  0.3505020000000  0.4952470000000 1.0
C      1  0.5184390000000  0.5657970000000  0.5013970000000 1.0
C      1  0.4431220000000  0.5378690000000  0.5014020000000 1.0
C      1  0.4464080000000  0.4576080000000  0.5014060000000 1.0
C      1  0.5237570000000  0.4359310000000  0.5014040000000 1.0
C      1  0.5682740000000  0.5027960000000  0.5013980000000 1.0
C      1  0.5336990000000  0.5877460000000  0.4308810000000 1.0
C      1  0.4269560000000  0.5591650000000  0.4308880000000 1.0
C      1  0.4211530000000  0.4488140000000  0.4308940000000 1.0
C      1  0.5243100000000  0.4091950000000  0.4308920000000 1.0
C      1  0.5938670000000  0.4950600000000  0.4308840000000 1.0
C      1  0.5208170000000  0.3919060000000  0.5261830000000 1.0
C      1  0.6092390000000  0.4863960000000  0.5261730000000 1.0
C      1  0.5466970000000  0.5996880000000  0.5261700000000 1.0
C      1  0.4196240000000  0.5752170000000  0.5261770000000 1.0
C      1  0.4036290000000  0.4468010000000  0.5261850000000 1.0
C      1  0.5013120000000  0.4014390000000  0.5436380000000 1.0
C      1  0.5941460000000  0.4707910000000  0.5436300000000 1.0
C      1  0.5568760000000  0.5805120000000  0.5436250000000 1.0
C      1  0.4410080000000  0.5789720000000  0.5436300000000 1.0
C      1  0.4066680000000  0.4682990000000  0.5436380000000 1.0
C      1  0.4744290000000  0.5317830000000  0.4665340000000 1.0
C      1  0.4618680000000  0.4855020000000  0.4665370000000 1.0
C      1  0.5020020000000  0.4592540000000  0.4665360000000 1.0
C      1  0.5393670000000  0.4893130000000  0.4665330000000 1.0
C      1  0.5223260000000  0.5341380000000  0.4665310000000 1.0
C      1  0.5155470000000  0.3966030000000  0.4553120000000 1.0
C      1  0.6031370000000  0.4828350000000  0.4553030000000 1.0
C      1  0.5481930000000  0.5927850000000  0.4553000000000 1.0
C      1  0.4266450000000  0.5745060000000  0.4553060000000 1.0
C      1  0.4064690000000  0.4532590000000  0.4553140000000 1.0
C      1  0.4332850000000  0.4730390000000  0.5517110000000 1.0
C      1  0.5050290000000  0.4282190000000  0.5517110000000 1.0
C      1  0.5698260000000  0.4826020000000  0.5517050000000 1.0
C      1  0.5381290000000  0.5610320000000  0.5517020000000 1.0
C      1  0.4537420000000  0.5551220000000  0.5517060000000 1.0
C      1  0.5056290000000  0.5729480000000  0.5877200000000 1.0
C      1  0.4323690000000  0.5278950000000  0.5877260000000 1.0
C      1  0.4525780000000  0.4442990000000  0.5877300000000 1.0
C      1  0.5383280000000  0.4376860000000  0.5877260000000 1.0
C      1  0.5711150000000  0.5171960000000  0.5877200000000 1.0
C      1  0.5014830000000  0.5534870000000  0.4111820000000 1.0
C      1  0.4495820000000  0.5179390000000  0.4111870000000 1.0
C      1  0.4673520000000  0.4575930000000  0.4111890000000 1.0
C      1  0.5302350000000  0.4558450000000  0.4111870000000 1.0
C      1  0.5513290000000  0.5151110000000  0.4111820000000 1.0
C      1  0.5971280000000  0.4377480000000  0.4811730000000 1.0
C      1  0.5892180000000  0.5731380000000  0.4811660000000 1.0
C      1  0.4580100000000  0.6074520000000  0.4811700000000 1.0
C      1  0.3848300000000  0.4932700000000  0.4811800000000 1.0
C      1  0.4708090000000  0.3883870000000  0.4811820000000 1.0
C      1  0.4584670000000  0.6011600000000  0.5450650000000 1.0
C      1  0.3909600000000  0.4917600000000  0.5450740000000 1.0
C      1  0.4741450000000  0.3937510000000  0.5450760000000 1.0
C      1  0.5930630000000  0.4425780000000  0.5450680000000 1.0
C      1  0.5833740000000  0.5707640000000  0.5450610000000 1.0
C      1  0.5694640000000  0.5276230000000  0.5611230000000 1.0
C      1  0.4952000000000  0.5746000000000  0.5611240000000 1.0
C      1  0.4275730000000  0.5184870000000  0.5611300000000 1.0
C      1  0.4600420000000  0.4368310000000  0.5611330000000 1.0
C      1  0.5477350000000  0.4424770000000  0.5611290000000 1.0
C      1  0.4847260000000  0.4786450000000  0.4243510000000 1.0
C      1  0.5155830000000  0.4788740000000  0.4243500000000 1.0
C      1  0.5249010000000  0.5082920000000  0.4243480000000 1.0
C      1  0.4998020000000  0.5262450000000  0.4243480000000 1.0
C      1  0.4749720000000  0.5079220000000  0.4243500000000 1.0
C      1  0.5356740000000  0.6038880000000  0.4783840000000 1.0
C      1  0.4122190000000  0.5660310000000  0.4783910000000 1.0
C      1  0.4100730000000  0.4369200000000  0.4783990000000 1.0
C      1  0.5322020000000  0.3949820000000  0.4783960000000 1.0
C      1  0.6098270000000  0.4981740000000  0.4783870000000 1.0
C      1  0.4040470000000  0.5175050000000  0.5427640000000 1.0
C      1  0.4537040000000  0.4141530000000  0.5427680000000 1.0
C      1  0.5673430000000  0.4294420000000  0.5427620000000 1.0
C      1  0.5879190000000  0.5422430000000  0.5427550000000 1.0
C      1  0.4869960000000  0.5966700000000  0.5427560000000 1.0
C      1  0.5460910000000  0.4514750000000  0.4905500000000 1.0
C      1  0.5603920000000  0.5288400000000  0.4905440000000 1.0
C      1  0.4912330000000  0.5663480000000  0.4905450000000 1.0
C      1  0.4341890000000  0.5121650000000  0.4905510000000 1.0
C      1  0.4680930000000  0.4411690000000  0.4905540000000 1.0
C      1  0.4760820000000  0.4941790000000  0.5099090000000 1.0
C      1  0.4981460000000  0.4754530000000  0.5099090000000 1.0
C      1  0.5227730000000  0.4906510000000  0.5099070000000 1.0
C      1  0.5159290000000  0.5187700000000  0.5099060000000 1.0
C      1  0.4870720000000  0.5209500000000  0.5099070000000 1.0
C      1  0.5642630000000  0.4157970000000  0.5165420000000 1.0
C      1  0.5999420000000  0.5350980000000  0.5165340000000 1.0
C      1  0.4975050000000  0.6058960000000  0.5165340000000 1.0
C      1  0.3985170000000  0.5303510000000  0.5165430000000 1.0
C      1  0.4397760000000  0.4128630000000  0.5165480000000 1.0
C      1  0.4785790000000  0.6193200000000  0.4980230000000 1.0
C      1  0.3799010000000  0.5164990000000  0.4980330000000 1.0
C      1  0.4471950000000  0.3908770000000  0.4980370000000 1.0
C      1  0.5874640000000  0.4160590000000  0.4980300000000 1.0
C      1  0.6068600000000  0.5572440000000  0.4980210000000 1.0
C      1  0.4303980000000  0.4953060000000  0.4188170000000 1.0
C      1  0.4829490000000  0.4323540000000  0.4188180000000 1.0
C      1  0.5590600000000  0.4628800000000  0.4188130000000 1.0
C      1  0.5535460000000  0.5446990000000  0.4188090000000 1.0
C      1  0.4740290000000  0.5647390000000  0.4188110000000 1.0
C      1  0.5414520000000  0.5335100000000  0.5556140000000 1.0
C      1  0.4809440000000  0.5497790000000  0.5556160000000 1.0
C      1  0.4467740000000  0.4972590000000  0.5556200000000 1.0
C      1  0.4861640000000  0.4485320000000  0.5556210000000 1.0
C      1  0.5446790000000  0.4709360000000  0.5556170000000 1.0
C      1  0.5692840000000  0.5509760000000  0.4432030000000 1.0
C      1  0.4729240000000  0.5816460000000  0.4432050000000 1.0
C      1  0.4139790000000  0.4994790000000  0.4432120000000 1.0
C      1  0.4739080000000  0.4180280000000  0.4432140000000 1.0
C      1  0.5698920000000  0.4498550000000  0.4432080000000 1.0
C      1  0.4913490000000  0.5771790000000  0.4642350000000 1.0
C      1  0.4239220000000  0.5156220000000  0.4642410000000 1.0
C      1  0.4616300000000  0.4324730000000  0.4642440000000 1.0
C      1  0.5523620000000  0.4426410000000  0.4642400000000 1.0
C      1  0.5707290000000  0.5320740000000  0.4642340000000 1.0
C      1  0.5519240000000  0.5097880000000  0.6056100000000 1.0
C      1  0.5067450000000  0.5524070000000  0.6056090000000 1.0
C      1  0.4522510000000  0.5226100000000  0.6056130000000 1.0
C      1  0.4637510000000  0.4615750000000  0.6056160000000 1.0
C      1  0.5253520000000  0.4536510000000  0.6056140000000 1.0
C      1  0.4932100000000  0.4758730000000  0.5580390000000 1.0
C      1  0.5208530000000  0.4860870000000  0.5580370000000 1.0
C      1  0.5196810000000  0.5155320000000  0.5580360000000 1.0
C      1  0.4913150000000  0.5235180000000  0.5580370000000 1.0
C      1  0.4749540000000  0.4990070000000  0.5580390000000 1.0
C      1  0.3972150000000  0.4805120000000  0.4581800000000 1.0
C      1  0.4867690000000  0.3962240000000  0.4581810000000 1.0
C      1  0.5946050000000  0.4553480000000  0.4581730000000 1.0
C      1  0.5716980000000  0.5761760000000  0.4581670000000 1.0
C      1  0.4497040000000  0.5917290000000  0.4581720000000 1.0
C      1  0.5350130000000  0.5129700000000  0.4537460000000 1.0
C      1  0.4984810000000  0.5373070000000  0.4537460000000 1.0
C      1  0.4640460000000  0.5100840000000  0.4537490000000 1.0
C      1  0.4792950000000  0.4689220000000  0.4537510000000 1.0
C      1  0.5231550000000  0.4707050000000  0.4537490000000 1.0
C      1  0.5356870000000  0.4076530000000  0.5059850000000 1.0
C      1  0.5988550000000  0.5054030000000  0.5059760000000 1.0
C      1  0.5254100000000  0.5956870000000  0.5059740000000 1.0
C      1  0.4168490000000  0.5537350000000  0.5059810000000 1.0
C      1  0.4232010000000  0.4375240000000  0.5059880000000 1.0
C      1  0.5247990000000  0.5045740000000  0.6122070000000 1.0
C      1  0.5033230000000  0.5249980000000  0.6122070000000 1.0
C      1  0.4772620000000  0.5108850000000  0.6122080000000 1.0
C      1  0.4826310000000  0.4817380000000  0.6122100000000 1.0
C      1  0.5120100000000  0.4778370000000  0.6122090000000 1.0
END
