TITL C-3201378-2706-1060 -8.03720085084397e-07 125000 -659.035293738042 0 0 104 (C1) n - 1
REM
REM in /home/nfs/bkarasulu/CARBON/AIRSS/Generating-Clusters/LCBOP/Higher-Symm/SD-CG/FIRE-CG
REM
REM
REM
REM
REM
REM ./C.cell (b20cbc046b6831c77cfcea5457e17084)
REM AIRSS Version 0.9.1 bugfix July 2018 build 013d7b7c2542+ Fri, 06 Jul 2018 19:26:36 +0100
REM compiler GCC version 9.2.1 20190827 (Red Hat 9.2.1-1)
REM options -cpp -mtune=generic -march=x86-64 -g -O0 -fpre-include=/usr/include/finclude/math-vector-fortran.h
REM seed 1397701294 396341416 -747793385 -2001470037 -1239584875 943054604 1820943258 -1848124977 -100451840 -1247712801 -130807655 -498821015 -1779448760 2093982218 931876599 -2010386458 1369851021 52632944 172034602 489817260 -2026420676 331620992 -461144112 678736661 334560152 -1363003903 1438048397 -737003739 -2115058796 1965160738 -1553700377 -747989869 72961498
REM
CELL 1.54180   50.00000   50.00000   50.00000   90.00000   90.00000   90.00000
LATT -1
SFAC C  
C      1  0.4917140000000  0.5261430000000  0.5352580000000 1.0
C      1  0.5577730000000  0.5224870000000  0.5027760000000 1.0
C      1  0.5382330000000  0.4766780000000  0.5208310000000 1.0
C      1  0.5193130000000  0.4590500000000  0.5120090000000 1.0
C      1  0.5007390000000  0.4669600000000  0.4711670000000 1.0
C      1  0.5002370000000  0.5487910000000  0.4962070000000 1.0
C      1  0.4651530000000  0.4911940000000  0.4903950000000 1.0
C      1  0.5634670000000  0.4773650000000  0.5074980000000 1.0
C      1  0.4662380000000  0.5258070000000  0.5242650000000 1.0
C      1  0.5009590000000  0.5002400000000  0.5411270000000 1.0
C      1  0.5230860000000  0.5151570000000  0.4664170000000 1.0
C      1  0.4832750000000  0.4887980000000  0.4672860000000 1.0
C      1  0.4827760000000  0.5325730000000  0.4816710000000 1.0
C      1  0.5351300000000  0.5237250000000  0.5193860000000 1.0
C      1  0.5405920000000  0.4942980000000  0.4708960000000 1.0
C      1  0.5278950000000  0.4701920000000  0.4660160000000 1.0
C      1  0.4962610000000  0.4579120000000  0.4973790000000 1.0
C      1  0.5115950000000  0.5391000000000  0.5193300000000 1.0
C      1  0.4750860000000  0.4723990000000  0.5091900000000 1.0
C      1  0.5610910000000  0.4985770000000  0.4896230000000 1.0
C      1  0.4638680000000  0.5184140000000  0.4977030000000 1.0
C      1  0.4955950000000  0.5142380000000  0.4650300000000 1.0
C      1  0.5278170000000  0.4993690000000  0.5320720000000 1.0
C      1  0.4820590000000  0.4810890000000  0.5344250000000 1.0
C      1  0.4844870000000  0.4263150000000  0.5372060000000 1.0
C      1  0.4243000000000  0.5374170000000  0.4845830000000 1.0
C      1  0.5326290000000  0.4785280000000  0.4208490000000 1.0
C      1  0.5084420000000  0.5791740000000  0.5389960000000 1.0
C      1  0.4857570000000  0.5747980000000  0.4630180000000 1.0
C      1  0.5082250000000  0.4207900000000  0.4618300000000 1.0
C      1  0.5747600000000  0.4477980000000  0.4729150000000 1.0
C      1  0.4252290000000  0.4654300000000  0.5156840000000 1.0
C      1  0.5760310000000  0.5522160000000  0.5292230000000 1.0
C      1  0.4633500000000  0.5132190000000  0.4266170000000 1.0
C      1  0.5313740000000  0.5202090000000  0.5782910000000 1.0
C      1  0.4621930000000  0.4882300000000  0.5748070000000 1.0
C      1  0.4796380000000  0.4236270000000  0.4638210000000 1.0
C      1  0.4227370000000  0.5375450000000  0.5135030000000 1.0
C      1  0.5343540000000  0.4894220000000  0.5759290000000 1.0
C      1  0.5154200000000  0.5735520000000  0.4641460000000 1.0
C      1  0.4796720000000  0.5775150000000  0.5371660000000 1.0
C      1  0.5140030000000  0.4244000000000  0.5371830000000 1.0
C      1  0.5735850000000  0.4517390000000  0.5015570000000 1.0
C      1  0.4245160000000  0.4654800000000  0.4870630000000 1.0
C      1  0.5727320000000  0.5461390000000  0.5010050000000 1.0
C      1  0.4596520000000  0.5173050000000  0.5749820000000 1.0
C      1  0.5353160000000  0.5092920000000  0.4235210000000 1.0
C      1  0.4611360000000  0.4843520000000  0.4264150000000 1.0
C      1  0.5280610000000  0.5551440000000  0.4433770000000 1.0
C      1  0.5607560000000  0.4350700000000  0.5229140000000 1.0
C      1  0.4354320000000  0.5284570000000  0.5599740000000 1.0
C      1  0.4677950000000  0.4381550000000  0.4402580000000 1.0
C      1  0.5269350000000  0.4430900000000  0.5580350000000 1.0
C      1  0.4672110000000  0.5636260000000  0.5610070000000 1.0
C      1  0.4355230000000  0.5620120000000  0.5256450000000 1.0
C      1  0.5601510000000  0.5604930000000  0.4789780000000 1.0
C      1  0.4365490000000  0.4408920000000  0.4753230000000 1.0
C      1  0.5603170000000  0.4785820000000  0.5616530000000 1.0
C      1  0.4369930000000  0.4738470000000  0.4412840000000 1.0
C      1  0.5612820000000  0.5197290000000  0.4387250000000 1.0
C      1  0.5183960000000  0.5662310000000  0.5642920000000 1.0
C      1  0.5558150000000  0.4267190000000  0.4645410000000 1.0
C      1  0.4401210000000  0.5261900000000  0.4403570000000 1.0
C      1  0.4728860000000  0.4416610000000  0.5609330000000 1.0
C      1  0.5185630000000  0.4328800000000  0.4360820000000 1.0
C      1  0.4741450000000  0.5593060000000  0.4394790000000 1.0
C      1  0.4392150000000  0.5608220000000  0.4723320000000 1.0
C      1  0.5564510000000  0.5729620000000  0.5370720000000 1.0
C      1  0.4387700000000  0.4413950000000  0.5277710000000 1.0
C      1  0.5563320000000  0.4603960000000  0.4295240000000 1.0
C      1  0.4390430000000  0.4754430000000  0.5603680000000 1.0
C      1  0.5550730000000  0.5377210000000  0.5701480000000 1.0
C      1  0.4601360000000  0.4257860000000  0.4866340000000 1.0
C      1  0.4246360000000  0.4867130000000  0.4652770000000 1.0
C      1  0.4802760000000  0.4611600000000  0.4254850000000 1.0
C      1  0.5354120000000  0.5767300000000  0.4880050000000 1.0
C      1  0.4600850000000  0.5762160000000  0.5141630000000 1.0
C      1  0.5352690000000  0.4190560000000  0.5132570000000 1.0
C      1  0.5801770000000  0.4983380000000  0.4461590000000 1.0
C      1  0.4232420000000  0.5157520000000  0.5355830000000 1.0
C      1  0.5783920000000  0.5000550000000  0.5526030000000 1.0
C      1  0.5152260000000  0.5333220000000  0.4262290000000 1.0
C      1  0.4791610000000  0.5401650000000  0.5759500000000 1.0
C      1  0.5143220000000  0.4662100000000  0.5736370000000 1.0
C      1  0.4618680000000  0.4264820000000  0.5156070000000 1.0
C      1  0.4252400000000  0.4870230000000  0.5361480000000 1.0
C      1  0.4849300000000  0.4658860000000  0.5749650000000 1.0
C      1  0.5328120000000  0.5810350000000  0.5188100000000 1.0
C      1  0.4624060000000  0.5755140000000  0.4849590000000 1.0
C      1  0.5320090000000  0.4180670000000  0.4821500000000 1.0
C      1  0.5752980000000  0.5288350000000  0.5504480000000 1.0
C      1  0.4254240000000  0.5153800000000  0.4641340000000 1.0
C      1  0.5761800000000  0.4696490000000  0.4499020000000 1.0
C      1  0.5079240000000  0.5409290000000  0.5767250000000 1.0
C      1  0.4858460000000  0.5346280000000  0.4259000000000 1.0
C      1  0.5087770000000  0.4585660000000  0.4233470000000 1.0
C      1  0.5468090000000  0.5648200000000  0.5635070000000 1.0
C      1  0.4449170000000  0.4475350000000  0.5553480000000 1.0
C      1  0.5471610000000  0.4336430000000  0.4373150000000 1.0
C      1  0.4460610000000  0.5540250000000  0.4450040000000 1.0
C      1  0.5554730000000  0.5466680000000  0.4522160000000 1.0
C      1  0.4408810000000  0.4457360000000  0.4471280000000 1.0
C      1  0.5553830000000  0.4497700000000  0.5502700000000 1.0
C      1  0.4399270000000  0.5567410000000  0.5540700000000 1.0
END
