TITL C-3201376-6384-2095 -7.88302448106049e-07 125000 -526.863466618286 0 0 86 (C1) n - 1
REM
REM in /home/nfs/bkarasulu/CARBON/AIRSS/Generating-Clusters/LCBOP/Higher-Symm/SD-CG/FIRE-CG
REM
REM
REM
REM
REM
REM ./C.cell (b20cbc046b6831c77cfcea5457e17084)
REM AIRSS Version 0.9.1 bugfix July 2018 build 013d7b7c2542+ Fri, 06 Jul 2018 19:26:36 +0100
REM compiler GCC version 9.2.1 20190827 (Red Hat 9.2.1-1)
REM options -cpp -mtune=generic -march=x86-64 -g -O0 -fpre-include=/usr/include/finclude/math-vector-fortran.h
REM seed 144326646 1462006147 -400406394 914102745 -698370449 1909063485 315125034 863478152 -1461317333 794221916 95351603 179980822 -1416179402 1096665623 -709877972 -1164992225 1150181052 -1033143288 69321786 -1045338924 125873645 -1664452206 -544503778 -1826848158 850452221 1447840283 1552737434 535820603 -1671330588 -1357894325 -1727611935 -511106991 259207182
REM
CELL 1.54180   50.00000   50.00000   50.00000   90.00000   90.00000   90.00000
LATT -1
SFAC C  
C      1  0.4753620000000  0.4950920000000  0.5197590000000 1.0
C      1  0.5104410000000  0.4349990000000  0.5541110000000 1.0
C      1  0.5200950000000  0.4245360000000  0.4844250000000 1.0
C      1  0.4132360000000  0.4819650000000  0.5044090000000 1.0
C      1  0.4701990000000  0.5009920000000  0.5776220000000 1.0
C      1  0.5342710000000  0.5303980000000  0.4097700000000 1.0
C      1  0.5433710000000  0.5498540000000  0.5660510000000 1.0
C      1  0.4189300000000  0.5069290000000  0.4055560000000 1.0
C      1  0.4378410000000  0.5406660000000  0.5403490000000 1.0
C      1  0.4534970000000  0.4250760000000  0.5382930000000 1.0
C      1  0.5066910000000  0.4706900000000  0.4897930000000 1.0
C      1  0.4958120000000  0.5409560000000  0.5914660000000 1.0
C      1  0.5270160000000  0.4965690000000  0.5953260000000 1.0
C      1  0.4724380000000  0.5297940000000  0.5774350000000 1.0
C      1  0.4693260000000  0.4232220000000  0.4953480000000 1.0
C      1  0.4279390000000  0.5072670000000  0.4663880000000 1.0
C      1  0.4422150000000  0.4140180000000  0.5603590000000 1.0
C      1  0.4852820000000  0.5474310000000  0.4918430000000 1.0
C      1  0.5760270000000  0.4791300000000  0.4936080000000 1.0
C      1  0.4540170000000  0.4133300000000  0.4739680000000 1.0
C      1  0.5197910000000  0.5365170000000  0.4345070000000 1.0
C      1  0.4453230000000  0.4494270000000  0.5245580000000 1.0
C      1  0.5487370000000  0.4348230000000  0.5228400000000 1.0
C      1  0.4785170000000  0.4752230000000  0.5744290000000 1.0
C      1  0.5398700000000  0.5717710000000  0.5153440000000 1.0
C      1  0.5316870000000  0.4561560000000  0.4503680000000 1.0
C      1  0.5257010000000  0.4204100000000  0.5115140000000 1.0
C      1  0.5577860000000  0.5502840000000  0.5186980000000 1.0
C      1  0.4934120000000  0.5157410000000  0.5285730000000 1.0
C      1  0.5222950000000  0.5014820000000  0.5692870000000 1.0
C      1  0.4239940000000  0.4661970000000  0.4339310000000 1.0
C      1  0.5851980000000  0.5258180000000  0.5490810000000 1.0
C      1  0.5146900000000  0.6108310000000  0.5289950000000 1.0
C      1  0.4118970000000  0.4372810000000  0.4793900000000 1.0
C      1  0.4742350000000  0.5702000000000  0.5516240000000 1.0
C      1  0.5032690000000  0.4187840000000  0.5306780000000 1.0
C      1  0.5393080000000  0.4391960000000  0.5519750000000 1.0
C      1  0.4929140000000  0.4532470000000  0.5673600000000 1.0
C      1  0.4930870000000  0.5377820000000  0.4441480000000 1.0
C      1  0.5551260000000  0.4785740000000  0.5347780000000 1.0
C      1  0.4921940000000  0.5423430000000  0.5181680000000 1.0
C      1  0.5643970000000  0.4599560000000  0.5137040000000 1.0
C      1  0.4485450000000  0.4966170000000  0.5286890000000 1.0
C      1  0.4814560000000  0.4731020000000  0.5018330000000 1.0
C      1  0.5340150000000  0.4939310000000  0.5242680000000 1.0
C      1  0.5301060000000  0.5098220000000  0.4781740000000 1.0
C      1  0.5426230000000  0.5038400000000  0.4059600000000 1.0
C      1  0.5164020000000  0.5061400000000  0.5422010000000 1.0
C      1  0.5551420000000  0.4704540000000  0.4442620000000 1.0
C      1  0.5162600000000  0.4498170000000  0.4727270000000 1.0
C      1  0.4762930000000  0.4138240000000  0.5225510000000 1.0
C      1  0.4582290000000  0.5477870000000  0.5593860000000 1.0
C      1  0.5948740000000  0.5103670000000  0.5287640000000 1.0
C      1  0.4322630000000  0.4391750000000  0.4370360000000 1.0
C      1  0.5628940000000  0.5431520000000  0.5463670000000 1.0
C      1  0.5519460000000  0.4639300000000  0.5589820000000 1.0
C      1  0.5425020000000  0.5463990000000  0.4517780000000 1.0
C      1  0.5165750000000  0.5837580000000  0.5259920000000 1.0
C      1  0.5548890000000  0.4846540000000  0.4200960000000 1.0
C      1  0.5248660000000  0.4907620000000  0.4973660000000 1.0
C      1  0.4952570000000  0.5664170000000  0.5332670000000 1.0
C      1  0.5547380000000  0.5511750000000  0.4072470000000 1.0
C      1  0.4639990000000  0.4511130000000  0.5015750000000 1.0
C      1  0.4161270000000  0.5540770000000  0.4181110000000 1.0
C      1  0.5732930000000  0.4741820000000  0.4657220000000 1.0
C      1  0.5015140000000  0.5296000000000  0.6170150000000 1.0
C      1  0.4311440000000  0.4735510000000  0.5261170000000 1.0
C      1  0.4188420000000  0.4803130000000  0.4583740000000 1.0
C      1  0.5609710000000  0.5599970000000  0.4341880000000 1.0
C      1  0.4346380000000  0.5207980000000  0.5204950000000 1.0
C      1  0.5657430000000  0.5320800000000  0.4970190000000 1.0
C      1  0.5477920000000  0.5310810000000  0.4748650000000 1.0
C      1  0.4215030000000  0.5107050000000  0.4956530000000 1.0
C      1  0.5177350000000  0.5078210000000  0.6180970000000 1.0
C      1  0.4313170000000  0.4253350000000  0.4619260000000 1.0
C      1  0.4249780000000  0.5286850000000  0.4225020000000 1.0
C      1  0.5656210000000  0.5605350000000  0.3836200000000 1.0
C      1  0.5813840000000  0.5072660000000  0.5035290000000 1.0
C      1  0.5191070000000  0.5514640000000  0.5780840000000 1.0
C      1  0.5760890000000  0.5693040000000  0.3614250000000 1.0
C      1  0.4694660000000  0.5227570000000  0.4399530000000 1.0
C      1  0.5802550000000  0.5776010000000  0.4415460000000 1.0
C      1  0.4413770000000  0.5216370000000  0.4451430000000 1.0
C      1  0.4095250000000  0.4653680000000  0.4814400000000 1.0
C      1  0.4900300000000  0.5542180000000  0.4667300000000 1.0
C      1  0.4202370000000  0.4804320000000  0.4101010000000 1.0
END
