TITL C-3201377-4638-1924 2643.34221336815 125000 -340.349601171091 0 0 59 (C1) n - 1
REM
REM in /home/nfs/bkarasulu/CARBON/AIRSS/Generating-Clusters/LCBOP/Higher-Symm/SD-CG/FIRE-CG
REM
REM
REM
REM
REM
REM ./C.cell (b20cbc046b6831c77cfcea5457e17084)
REM AIRSS Version 0.9.1 bugfix July 2018 build 013d7b7c2542+ Fri, 06 Jul 2018 19:26:36 +0100
REM compiler GCC version 9.2.1 20190827 (Red Hat 9.2.1-1)
REM options -cpp -mtune=generic -march=x86-64 -g -O0 -fpre-include=/usr/include/finclude/math-vector-fortran.h
REM seed 1114893326 -9548404 1510101396 -616568628 -1089430353 -1893026899 1908002503 -1910986526 -1010293027 457830619 -1463001764 1339949696 -2084789542 1126333157 234797666 1902228689 1261888885 1008949615 738791028 1399796626 1568707923 1928243794 -1441540042 -705033282 -455551783 1049538845 675338350 -1332591987 430636218 1439180694 -743257515 -427160029 401621041
REM
CELL 1.54180   50.00000   50.00000   50.00000   90.00000   90.00000   90.00000
LATT -1
SFAC C  
C      1  0.4966970000000  0.4535470000000  0.4389800000000 1.0
C      1  0.4962180000000  0.5773940000000  0.4887460000000 1.0
C      1  0.5056860000000  0.4626920000000  0.5627730000000 1.0
C      1  0.5497470000000  0.5067920000000  0.4721210000000 1.0
C      1  0.5479620000000  0.5222720000000  0.5207420000000 1.0
C      1  0.5482700000000  0.4725850000000  0.5112840000000 1.0
C      1  0.4701280000000  0.5486700000000  0.5617740000000 1.0
C      1  0.4663470000000  0.4228550000000  0.5101480000000 1.0
C      1  0.4712670000000  0.5307150000000  0.4246610000000 1.0
C      1  0.4946780000000  0.4567020000000  0.4884220000000 1.0
C      1  0.4973200000000  0.5313500000000  0.4664710000000 1.0
C      1  0.4965520000000  0.5104900000000  0.5433130000000 1.0
C      1  0.5569860000000  0.4829360000000  0.4590930000000 1.0
C      1  0.5566730000000  0.5454200000000  0.5073330000000 1.0
C      1  0.5604630000000  0.4752730000000  0.5370560000000 1.0
C      1  0.5173170000000  0.5947420000000  0.4826610000000 1.0
C      1  0.5237040000000  0.4679680000000  0.5838670000000 1.0
C      1  0.5173680000000  0.4376300000000  0.4280620000000 1.0
C      1  0.4723880000000  0.5718170000000  0.4755920000000 1.0
C      1  0.4879230000000  0.4420420000000  0.5647760000000 1.0
C      1  0.4708910000000  0.4456110000000  0.4483450000000 1.0
C      1  0.5105530000000  0.5463500000000  0.4931020000000 1.0
C      1  0.5060270000000  0.4804260000000  0.5403780000000 1.0
C      1  0.5093010000000  0.4713170000000  0.4627790000000 1.0
C      1  0.5407920000000  0.5528970000000  0.4833460000000 1.0
C      1  0.5544270000000  0.4941590000000  0.5582400000000 1.0
C      1  0.5397800000000  0.4592650000000  0.4646300000000 1.0
C      1  0.4660470000000  0.5041200000000  0.5450720000000 1.0
C      1  0.4656640000000  0.4570170000000  0.4756900000000 1.0
C      1  0.4682340000000  0.5424830000000  0.4715620000000 1.0
C      1  0.4973690000000  0.5484470000000  0.5677170000000 1.0
C      1  0.4937740000000  0.4175380000000  0.5105970000000 1.0
C      1  0.4988630000000  0.5334910000000  0.4215060000000 1.0
C      1  0.4963770000000  0.4996440000000  0.4700800000000 1.0
C      1  0.4964150000000  0.5256050000000  0.5133020000000 1.0
C      1  0.4928420000000  0.4761550000000  0.5130430000000 1.0
C      1  0.5423760000000  0.5189150000000  0.5488720000000 1.0
C      1  0.5393180000000  0.4498960000000  0.4945310000000 1.0
C      1  0.5421680000000  0.5325150000000  0.4599990000000 1.0
C      1  0.4209530000000  0.5208440000000  0.5097750000000 1.0
C      1  0.4197070000000  0.4835410000000  0.5058830000000 1.0
C      1  0.4214430000000  0.5048780000000  0.4768640000000 1.0
C      1  0.4436930000000  0.5331430000000  0.5195360000000 1.0
C      1  0.4414250000000  0.4682490000000  0.5134380000000 1.0
C      1  0.4439750000000  0.5051730000000  0.4608310000000 1.0
C      1  0.4508000000000  0.4448750000000  0.4990080000000 1.0
C      1  0.4544340000000  0.5291010000000  0.4483500000000 1.0
C      1  0.4534810000000  0.5303250000000  0.5466820000000 1.0
C      1  0.5410050000000  0.5820520000000  0.4773280000000 1.0
C      1  0.5460790000000  0.4829460000000  0.5826260000000 1.0
C      1  0.5404460000000  0.4386260000000  0.4429270000000 1.0
C      1  0.5157860000000  0.5281380000000  0.5583010000000 1.0
C      1  0.5134310000000  0.4356100000000  0.4993870000000 1.0
C      1  0.5172450000000  0.5342240000000  0.4438430000000 1.0
C      1  0.4659250000000  0.5328820000000  0.5019970000000 1.0
C      1  0.4633650000000  0.4826520000000  0.5241810000000 1.0
C      1  0.4651840000000  0.4882360000000  0.4688560000000 1.0
C      1  0.5066760000000  0.5001750000000  0.4989160000000 1.0
C      1  0.5384910000000  0.5003530000000  0.5010000000000 1.0
END
