TITL C-3201372-1405-927 -58829.9357733188 125000 -1198.26326932437 0 0 197 (C1) n - 1
REM
REM in /home/nfs/bkarasulu/CARBON/AIRSS/Generating-Clusters/LCBOP/Higher-Symm/SD-CG/FIRE-CG
REM
REM
REM
REM
REM
REM ./C.cell (b20cbc046b6831c77cfcea5457e17084)
REM AIRSS Version 0.9.1 bugfix July 2018 build 013d7b7c2542+ Fri, 06 Jul 2018 19:26:36 +0100
REM compiler GCC version 9.2.1 20190827 (Red Hat 9.2.1-1)
REM options -cpp -mtune=generic -march=x86-64 -g -O0 -fpre-include=/usr/include/finclude/math-vector-fortran.h
REM seed -893090741 -1955323526 114138304 2026075024 -1035730589 -1370538722 -252591366 -1483109072 2036595421 779629178 1696452154 2026809231 -2031825483 -337843637 520022849 1645923535 -676586827 86249852 780567447 -248367177 1931507474 -1549257554 -1518874625 -364329712 1371084019 -870914217 -1567890755 -656007457 992278428 1650873830 -51741721 -1640080121 765162898
REM
CELL 1.54180   50.00000   50.00000   50.00000   90.00000   90.00000   90.00000
LATT -1
SFAC C  
C      1  0.5703620000000  0.4438620000000  0.5751130000000 1.0
C      1  0.5711210000000  0.5606820000000  0.4234890000000 1.0
C      1  0.5741150000000  0.5600230000000  0.5721990000000 1.0
C      1  0.5733190000000  0.4424260000000  0.4252510000000 1.0
C      1  0.4955600000000  0.4863040000000  0.4317040000000 1.0
C      1  0.4803730000000  0.5249030000000  0.5614880000000 1.0
C      1  0.4773610000000  0.5045310000000  0.4424970000000 1.0
C      1  0.4771530000000  0.4988190000000  0.5724150000000 1.0
C      1  0.5758020000000  0.5742890000000  0.5461690000000 1.0
C      1  0.5754390000000  0.4300330000000  0.4523670000000 1.0
C      1  0.5734610000000  0.4304000000000  0.5485080000000 1.0
C      1  0.5747810000000  0.5745930000000  0.4497410000000 1.0
C      1  0.5290190000000  0.4831670000000  0.5505850000000 1.0
C      1  0.5296920000000  0.5167650000000  0.4614090000000 1.0
C      1  0.5288870000000  0.5107240000000  0.5632920000000 1.0
C      1  0.5290040000000  0.4878190000000  0.4621180000000 1.0
C      1  0.4875660000000  0.3692850000000  0.5465270000000 1.0
C      1  0.4810580000000  0.6246880000000  0.4557380000000 1.0
C      1  0.4841470000000  0.6255340000000  0.5477590000000 1.0
C      1  0.4865900000000  0.3744010000000  0.4535250000000 1.0
C      1  0.5554170000000  0.5266470000000  0.4632140000000 1.0
C      1  0.5532740000000  0.4772490000000  0.5371080000000 1.0
C      1  0.5546340000000  0.4774610000000  0.4645620000000 1.0
C      1  0.5612230000000  0.5232290000000  0.5281780000000 1.0
C      1  0.5316010000000  0.4448170000000  0.3933580000000 1.0
C      1  0.5317800000000  0.5548930000000  0.6039220000000 1.0
C      1  0.5271570000000  0.5535660000000  0.3965940000000 1.0
C      1  0.5243130000000  0.4494990000000  0.6014450000000 1.0
C      1  0.5033620000000  0.5762860000000  0.4756210000000 1.0
C      1  0.5016320000000  0.4203010000000  0.5299700000000 1.0
C      1  0.5068360000000  0.4246950000000  0.4724180000000 1.0
C      1  0.5061110000000  0.5760300000000  0.5284900000000 1.0
C      1  0.4940840000000  0.3924480000000  0.4329110000000 1.0
C      1  0.4940540000000  0.6079180000000  0.5677260000000 1.0
C      1  0.4891600000000  0.6063670000000  0.4355580000000 1.0
C      1  0.4952940000000  0.3857360000000  0.5684040000000 1.0
C      1  0.5072620000000  0.4595770000000  0.3947530000000 1.0
C      1  0.5091860000000  0.5361430000000  0.6030430000000 1.0
C      1  0.5081920000000  0.5325010000000  0.3954100000000 1.0
C      1  0.4987390000000  0.4630170000000  0.6004880000000 1.0
C      1  0.5645540000000  0.5445280000000  0.5104260000000 1.0
C      1  0.5627670000000  0.4613380000000  0.4862710000000 1.0
C      1  0.5619140000000  0.4617080000000  0.5147340000000 1.0
C      1  0.5647710000000  0.5443680000000  0.4825300000000 1.0
C      1  0.5102310000000  0.4852440000000  0.4078050000000 1.0
C      1  0.5205510000000  0.5089710000000  0.5927620000000 1.0
C      1  0.5211570000000  0.5067260000000  0.3933210000000 1.0
C      1  0.4982250000000  0.4893400000000  0.5890960000000 1.0
C      1  0.5005580000000  0.6375480000000  0.4726880000000 1.0
C      1  0.5070700000000  0.3599350000000  0.5274390000000 1.0
C      1  0.5064840000000  0.3629490000000  0.4709340000000 1.0
C      1  0.5022240000000  0.6381040000000  0.5291470000000 1.0
C      1  0.5261540000000  0.5954130000000  0.4749020000000 1.0
C      1  0.5265440000000  0.4048370000000  0.5275090000000 1.0
C      1  0.5293590000000  0.4064750000000  0.4741480000000 1.0
C      1  0.5281610000000  0.5962570000000  0.5264360000000 1.0
C      1  0.3825900000000  0.5156050000000  0.5758680000000 1.0
C      1  0.3893360000000  0.4934780000000  0.4211690000000 1.0
C      1  0.3806970000000  0.4890180000000  0.5710030000000 1.0
C      1  0.3876850000000  0.5205330000000  0.4220890000000 1.0
C      1  0.5675140000000  0.3805780000000  0.5465500000000 1.0
C      1  0.5632890000000  0.6230060000000  0.4529540000000 1.0
C      1  0.5673950000000  0.6239750000000  0.5445650000000 1.0
C      1  0.5684060000000  0.3804490000000  0.4546990000000 1.0
C      1  0.5200440000000  0.6207360000000  0.5147420000000 1.0
C      1  0.5229140000000  0.3814060000000  0.4857560000000 1.0
C      1  0.5226880000000  0.3802110000000  0.5141290000000 1.0
C      1  0.5192940000000  0.6204560000000  0.4863420000000 1.0
C      1  0.4953580000000  0.5266430000000  0.5372310000000 1.0
C      1  0.4896370000000  0.4673990000000  0.4783830000000 1.0
C      1  0.4935340000000  0.4653530000000  0.5249880000000 1.0
C      1  0.4856780000000  0.5214040000000  0.4635160000000 1.0
C      1  0.4750010000000  0.5109800000000  0.6290760000000 1.0
C      1  0.4727980000000  0.4822500000000  0.3703690000000 1.0
C      1  0.4694370000000  0.4839230000000  0.6300100000000 1.0
C      1  0.4720450000000  0.5095170000000  0.3734290000000 1.0
C      1  0.5405290000000  0.5917990000000  0.5744870000000 1.0
C      1  0.5389750000000  0.4113050000000  0.4261900000000 1.0
C      1  0.5376830000000  0.4109050000000  0.5756240000000 1.0
C      1  0.5343290000000  0.5891620000000  0.4269530000000 1.0
C      1  0.5666770000000  0.5106880000000  0.3762440000000 1.0
C      1  0.5267000000000  0.4824570000000  0.6624830000000 1.0
C      1  0.5295800000000  0.4743010000000  0.3285970000000 1.0
C      1  0.5674780000000  0.5060730000000  0.6113950000000 1.0
C      1  0.3681630000000  0.4706520000000  0.5074380000000 1.0
C      1  0.3740050000000  0.5426520000000  0.4870420000000 1.0
C      1  0.3777060000000  0.5371030000000  0.5132590000000 1.0
C      1  0.3704120000000  0.4730250000000  0.4807190000000 1.0
C      1  0.5724550000000  0.4875920000000  0.4438100000000 1.0
C      1  0.5754730000000  0.5148590000000  0.5516090000000 1.0
C      1  0.5726950000000  0.5156430000000  0.4428730000000 1.0
C      1  0.5741510000000  0.4873850000000  0.5548860000000 1.0
C      1  0.4396350000000  0.4822950000000  0.4026480000000 1.0
C      1  0.4365390000000  0.5143770000000  0.5985240000000 1.0
C      1  0.4417350000000  0.5072670000000  0.4164920000000 1.0
C      1  0.4338270000000  0.4872300000000  0.5965990000000 1.0
C      1  0.4426480000000  0.6236260000000  0.5165560000000 1.0
C      1  0.4469510000000  0.3728660000000  0.4871470000000 1.0
C      1  0.4471960000000  0.3713870000000  0.5138380000000 1.0
C      1  0.4417790000000  0.6235470000000  0.4898260000000 1.0
C      1  0.4483130000000  0.4617950000000  0.5903810000000 1.0
C      1  0.4568590000000  0.5335200000000  0.4137010000000 1.0
C      1  0.4542290000000  0.5379160000000  0.5931790000000 1.0
C      1  0.4563490000000  0.4579650000000  0.4094810000000 1.0
C      1  0.6101510000000  0.5433410000000  0.5128170000000 1.0
C      1  0.6084250000000  0.4627300000000  0.4852030000000 1.0
C      1  0.6081970000000  0.4633920000000  0.5151580000000 1.0
C      1  0.6102350000000  0.5426220000000  0.4827300000000 1.0
C      1  0.4788570000000  0.5692130000000  0.5181080000000 1.0
C      1  0.4812370000000  0.4375720000000  0.4839850000000 1.0
C      1  0.4799770000000  0.4379690000000  0.5170130000000 1.0
C      1  0.4776640000000  0.5699140000000  0.4882820000000 1.0
C      1  0.4325800000000  0.4558270000000  0.5107140000000 1.0
C      1  0.4371200000000  0.5405550000000  0.4880830000000 1.0
C      1  0.4401340000000  0.5364940000000  0.5164700000000 1.0
C      1  0.4330940000000  0.4414740000000  0.4857720000000 1.0
C      1  0.4221050000000  0.5125300000000  0.5265380000000 1.0
C      1  0.4161310000000  0.4939780000000  0.4805040000000 1.0
C      1  0.4159520000000  0.4849140000000  0.5105170000000 1.0
C      1  0.4157380000000  0.5244770000000  0.4776720000000 1.0
C      1  0.5539550000000  0.5969100000000  0.5461460000000 1.0
C      1  0.5537420000000  0.4069350000000  0.4537900000000 1.0
C      1  0.5520940000000  0.4067700000000  0.5476450000000 1.0
C      1  0.5504070000000  0.5953860000000  0.4531320000000 1.0
C      1  0.3896000000000  0.4750290000000  0.5249700000000 1.0
C      1  0.3928000000000  0.5373090000000  0.4668620000000 1.0
C      1  0.3962030000000  0.5280960000000  0.5325360000000 1.0
C      1  0.3934890000000  0.4799330000000  0.4662130000000 1.0
C      1  0.4549490000000  0.6240750000000  0.4665040000000 1.0
C      1  0.4610950000000  0.3696140000000  0.5366620000000 1.0
C      1  0.4603860000000  0.3737730000000  0.4640000000000 1.0
C      1  0.4573470000000  0.6244310000000  0.5389400000000 1.0
C      1  0.4390400000000  0.4486920000000  0.5641690000000 1.0
C      1  0.4475410000000  0.5524260000000  0.4367110000000 1.0
C      1  0.4447560000000  0.5526540000000  0.5675290000000 1.0
C      1  0.4457780000000  0.4453740000000  0.4361170000000 1.0
C      1  0.3959700000000  0.5419230000000  0.4389310000000 1.0
C      1  0.3910380000000  0.4695880000000  0.5530990000000 1.0
C      1  0.3978920000000  0.4730590000000  0.4389780000000 1.0
C      1  0.3950220000000  0.5356640000000  0.5602240000000 1.0
C      1  0.5204500000000  0.5354740000000  0.5487850000000 1.0
C      1  0.5064540000000  0.4689450000000  0.4528520000000 1.0
C      1  0.5099030000000  0.4613680000000  0.5498510000000 1.0
C      1  0.5087920000000  0.5347480000000  0.4565770000000 1.0
C      1  0.5850880000000  0.4469300000000  0.5266430000000 1.0
C      1  0.5875610000000  0.5587790000000  0.4710580000000 1.0
C      1  0.5864740000000  0.5595240000000  0.5233300000000 1.0
C      1  0.5855340000000  0.4464520000000  0.4744670000000 1.0
C      1  0.5829990000000  0.5335390000000  0.5709600000000 1.0
C      1  0.5809910000000  0.4693960000000  0.4243740000000 1.0
C      1  0.5812360000000  0.4697910000000  0.5754920000000 1.0
C      1  0.5804010000000  0.5340180000000  0.4231270000000 1.0
C      1  0.6164710000000  0.4884130000000  0.4734930000000 1.0
C      1  0.6177550000000  0.5172640000000  0.5243390000000 1.0
C      1  0.6171310000000  0.5159430000000  0.4724990000000 1.0
C      1  0.6166970000000  0.4896620000000  0.5253730000000 1.0
C      1  0.4552980000000  0.5565040000000  0.4714670000000 1.0
C      1  0.4500430000000  0.4443680000000  0.5310230000000 1.0
C      1  0.4540130000000  0.4372130000000  0.4653900000000 1.0
C      1  0.4558200000000  0.5548060000000  0.5339780000000 1.0
C      1  0.5314040000000  0.4911230000000  0.6383520000000 1.0
C      1  0.5408000000000  0.5024650000000  0.3731210000000 1.0
C      1  0.5407290000000  0.5009570000000  0.6136960000000 1.0
C      1  0.5334370000000  0.4895810000000  0.3493630000000 1.0
C      1  0.5521670000000  0.5692780000000  0.5888240000000 1.0
C      1  0.5510120000000  0.4319650000000  0.4101170000000 1.0
C      1  0.5464740000000  0.4351790000000  0.5891150000000 1.0
C      1  0.5464890000000  0.5687890000000  0.4108180000000 1.0
C      1  0.5028180000000  0.3381160000000  0.4843260000000 1.0
C      1  0.4954160000000  0.6615620000000  0.5145240000000 1.0
C      1  0.4946760000000  0.6613160000000  0.4872410000000 1.0
C      1  0.5031930000000  0.3366540000000  0.5115620000000 1.0
C      1  0.4784100000000  0.4598750000000  0.3887510000000 1.0
C      1  0.4798620000000  0.5333560000000  0.6100210000000 1.0
C      1  0.4787610000000  0.5300850000000  0.3933700000000 1.0
C      1  0.4710550000000  0.4615320000000  0.6102710000000 1.0
C      1  0.4165730000000  0.4519070000000  0.4347110000000 1.0
C      1  0.4156250000000  0.5537020000000  0.5679740000000 1.0
C      1  0.4191350000000  0.5575930000000  0.4327470000000 1.0
C      1  0.4102400000000  0.4505190000000  0.5616720000000 1.0
C      1  0.4666170000000  0.4857560000000  0.4822970000000 1.0
C      1  0.4841850000000  0.5115160000000  0.5167410000000 1.0
C      1  0.4788800000000  0.5115190000000  0.4893210000000 1.0
C      1  0.4747130000000  0.4867880000000  0.5286310000000 1.0
C      1  0.5091650000000  0.4098670000000  0.5734710000000 1.0
C      1  0.5066040000000  0.5842360000000  0.4319340000000 1.0
C      1  0.5124930000000  0.5868350000000  0.5714280000000 1.0
C      1  0.5106650000000  0.4150730000000  0.4287960000000 1.0
C      1  0.4350350000000  0.5002570000000  0.5503380000000 1.0
C      1  0.4425480000000  0.4882410000000  0.4676420000000 1.0
C      1  0.4599300000000  0.4877590000000  0.5524540000000 1.0
C      1  0.4494370000000  0.4992610000000  0.4428740000000 1.0
C      1  0.5077180000000  0.4385090000000  0.4460580000000 1.0
C      1  0.5131250000000  0.5632620000000  0.5535010000000 1.0
C      1  0.5054960000000  0.5619440000000  0.4508660000000 1.0
C      1  0.5037540000000  0.4333180000000  0.5569080000000 1.0
C      1  0.5094790000000  0.4711650000000  0.5008740000000 1.0
END
