TITL C-3201377-4638-2307 -9.03948351820616e-08 125000 -942.845615043919 0 0 152 (Cs) n - 1
REM
REM in /home/nfs/bkarasulu/CARBON/AIRSS/Generating-Clusters/LCBOP/Higher-Symm/SD-CG/FIRE-CG
REM
REM
REM
REM
REM
REM ./C.cell (b20cbc046b6831c77cfcea5457e17084)
REM AIRSS Version 0.9.1 bugfix July 2018 build 013d7b7c2542+ Fri, 06 Jul 2018 19:26:36 +0100
REM compiler GCC version 9.2.1 20190827 (Red Hat 9.2.1-1)
REM options -cpp -mtune=generic -march=x86-64 -g -O0 -fpre-include=/usr/include/finclude/math-vector-fortran.h
REM seed 1375962603 560439974 -500240451 92155630 -1265445082 -773329483 -316242767 1483117862 1004347061 55165126 -1902453290 -1125648988 -318452558 -876242474 -1782320650 712627899 645774772 1898037519 2079458786 1274628503 -418268326 812690375 1823333352 -1763823283 -1838785312 365892914 540599380 -1030203032 -1327796477 -415031709 -444500850 -1988369882 585629348
REM
CELL 1.54180   50.00000   50.00000   50.00000   90.00000   90.00000   90.00000
LATT -1
SFAC C  
C      1  0.5562950000000  0.6104730000000  0.5354380000000 1.0
C      1  0.6101920000000  0.4412300000000  0.5358750000000 1.0
C      1  0.4433230000000  0.3898380000000  0.5357260000000 1.0
C      1  0.3897050000000  0.5588160000000  0.5358750000000 1.0
C      1  0.5563040000000  0.6104780000000  0.4645940000000 1.0
C      1  0.6102010000000  0.4412360000000  0.4641450000000 1.0
C      1  0.4433320000000  0.3898440000000  0.4642420000000 1.0
C      1  0.3897140000000  0.5588210000000  0.4641060000000 1.0
C      1  0.5089660000000  0.5365700000000  0.5951500000000 1.0
C      1  0.5427070000000  0.4925670000000  0.5965300000000 1.0
C      1  0.4899550000000  0.4629660000000  0.5945970000000 1.0
C      1  0.4589760000000  0.5071320000000  0.5972940000000 1.0
C      1  0.5089910000000  0.5365860000000  0.4048580000000 1.0
C      1  0.5427320000000  0.4925820000000  0.4034800000000 1.0
C      1  0.4899790000000  0.4629810000000  0.4053940000000 1.0
C      1  0.4590010000000  0.5071480000000  0.4026970000000 1.0
C      1  0.5091180000000  0.4218850000000  0.5251720000000 1.0
C      1  0.4369420000000  0.4931510000000  0.5251890000000 1.0
C      1  0.4907540000000  0.5781090000000  0.5251930000000 1.0
C      1  0.5629530000000  0.5069000000000  0.5252070000000 1.0
C      1  0.5091240000000  0.4218890000000  0.4748180000000 1.0
C      1  0.4369490000000  0.4931560000000  0.4747930000000 1.0
C      1  0.4907600000000  0.5781130000000  0.4748170000000 1.0
C      1  0.5629590000000  0.5069040000000  0.4748110000000 1.0
C      1  0.4704230000000  0.5605650000000  0.5142910000000 1.0
C      1  0.5459620000000  0.5278860000000  0.5144590000000 1.0
C      1  0.5294480000000  0.4394630000000  0.5142930000000 1.0
C      1  0.4538830000000  0.4721430000000  0.5144110000000 1.0
C      1  0.4704270000000  0.5605670000000  0.4857110000000 1.0
C      1  0.5459660000000  0.5278880000000  0.4855580000000 1.0
C      1  0.5294510000000  0.4394660000000  0.4857050000000 1.0
C      1  0.4538870000000  0.4721450000000  0.4855720000000 1.0
C      1  0.5625820000000  0.4442900000000  0.4529610000000 1.0
C      1  0.4496630000000  0.4374260000000  0.4531730000000 1.0
C      1  0.4373430000000  0.5557520000000  0.4529540000000 1.0
C      1  0.5501350000000  0.5629470000000  0.4532950000000 1.0
C      1  0.5625700000000  0.4442820000000  0.5470460000000 1.0
C      1  0.4496500000000  0.4374180000000  0.5468040000000 1.0
C      1  0.4373310000000  0.5557440000000  0.5470390000000 1.0
C      1  0.5501230000000  0.5629390000000  0.5467280000000 1.0
C      1  0.5844110000000  0.4331340000000  0.4680880000000 1.0
C      1  0.4368770000000  0.4160920000000  0.4681410000000 1.0
C      1  0.4155070000000  0.5669000000000  0.4680810000000 1.0
C      1  0.5628290000000  0.5842310000000  0.4683540000000 1.0
C      1  0.5844030000000  0.4331290000000  0.5319230000000 1.0
C      1  0.4368690000000  0.4160870000000  0.5318290000000 1.0
C      1  0.4154990000000  0.5668950000000  0.5319080000000 1.0
C      1  0.5628210000000  0.5842260000000  0.5316760000000 1.0
C      1  0.5179970000000  0.5218680000000  0.4283430000000 1.0
C      1  0.5289990000000  0.4945730000000  0.4292590000000 1.0
C      1  0.4817270000000  0.4780060000000  0.4289530000000 1.0
C      1  0.4709620000000  0.5053990000000  0.4294980000000 1.0
C      1  0.5179780000000  0.5218570000000  0.5716650000000 1.0
C      1  0.5289800000000  0.4945620000000  0.5707480000000 1.0
C      1  0.4817090000000  0.4779940000000  0.5710380000000 1.0
C      1  0.4709440000000  0.5053880000000  0.5704950000000 1.0
C      1  0.4447260000000  0.5187320000000  0.4856720000000 1.0
C      1  0.5153580000000  0.5677030000000  0.4857720000000 1.0
C      1  0.5552280000000  0.4813070000000  0.4856850000000 1.0
C      1  0.4844650000000  0.4321740000000  0.4857660000000 1.0
C      1  0.4447230000000  0.5187300000000  0.5143170000000 1.0
C      1  0.5153540000000  0.5677000000000  0.5142430000000 1.0
C      1  0.5552250000000  0.4813050000000  0.5143270000000 1.0
C      1  0.4844610000000  0.4321720000000  0.5142190000000 1.0
C      1  0.6031780000000  0.5597940000000  0.5273490000000 1.0
C      1  0.5643500000000  0.3901500000000  0.5273870000000 1.0
C      1  0.3965430000000  0.4404590000000  0.5272820000000 1.0
C      1  0.4355540000000  0.6098760000000  0.5273860000000 1.0
C      1  0.6031850000000  0.5597980000000  0.4726880000000 1.0
C      1  0.5643570000000  0.3901550000000  0.4726120000000 1.0
C      1  0.3965500000000  0.4404630000000  0.4726810000000 1.0
C      1  0.4355610000000  0.6098800000000  0.4726140000000 1.0
C      1  0.5215090000000  0.4748370000000  0.5492160000000 1.0
C      1  0.4926180000000  0.4681780000000  0.5468120000000 1.0
C      1  0.4784120000000  0.5252120000000  0.5492460000000 1.0
C      1  0.5073540000000  0.5318350000000  0.5472420000000 1.0
C      1  0.5215220000000  0.4748450000000  0.4507860000000 1.0
C      1  0.4926300000000  0.4681860000000  0.4531810000000 1.0
C      1  0.4784250000000  0.5252200000000  0.4507520000000 1.0
C      1  0.5073670000000  0.5318430000000  0.4527650000000 1.0
C      1  0.4305930000000  0.4667180000000  0.4119750000000 1.0
C      1  0.4693650000000  0.5691350000000  0.4139760000000 1.0
C      1  0.5701270000000  0.5337970000000  0.4127900000000 1.0
C      1  0.5305730000000  0.4311780000000  0.4138870000000 1.0
C      1  0.4305700000000  0.4667030000000  0.5880010000000 1.0
C      1  0.4693430000000  0.5691210000000  0.5860270000000 1.0
C      1  0.5701040000000  0.5337830000000  0.5872330000000 1.0
C      1  0.5305510000000  0.4311650000000  0.5861100000000 1.0
C      1  0.4576340000000  0.5392630000000  0.5313930000000 1.0
C      1  0.5287720000000  0.5467980000000  0.5308480000000 1.0
C      1  0.5422950000000  0.4607670000000  0.5313850000000 1.0
C      1  0.4711270000000  0.4532000000000  0.5306720000000 1.0
C      1  0.4576420000000  0.5392680000000  0.4686020000000 1.0
C      1  0.5287800000000  0.5468030000000  0.4691670000000 1.0
C      1  0.5423030000000  0.4607720000000  0.4686190000000 1.0
C      1  0.4711350000000  0.4532050000000  0.4693130000000 1.0
C      1  0.5615260000000  0.5529530000000  0.5705510000000 1.0
C      1  0.5529470000000  0.4343560000000  0.5717140000000 1.0
C      1  0.4383690000000  0.4477260000000  0.5706390000000 1.0
C      1  0.4469460000000  0.5657670000000  0.5716700000000 1.0
C      1  0.5615450000000  0.5529640000000  0.4294730000000 1.0
C      1  0.5529660000000  0.4343680000000  0.4282890000000 1.0
C      1  0.4383880000000  0.4477370000000  0.4293360000000 1.0
C      1  0.4469650000000  0.5657780000000  0.4283260000000 1.0
C      1  0.4932890000000  0.4786310000000  0.6176110000000 1.0
C      1  0.4792970000000  0.5050350000000  0.6176710000000 1.0
C      1  0.5034380000000  0.5209950000000  0.6175970000000 1.0
C      1  0.5252370000000  0.4920080000000  0.6185120000000 1.0
C      1  0.4933200000000  0.4786490000000  0.3823840000000 1.0
C      1  0.4793280000000  0.5050540000000  0.3823250000000 1.0
C      1  0.5034690000000  0.5210140000000  0.3824070000000 1.0
C      1  0.5252680000000  0.4920270000000  0.3814940000000 1.0
C      1  0.5395510000000  0.3856190000000  0.4635060000000 1.0
C      1  0.3972450000000  0.4654240000000  0.4629850000000 1.0
C      1  0.4603730000000  0.6144130000000  0.4635190000000 1.0
C      1  0.6025760000000  0.5347950000000  0.4631080000000 1.0
C      1  0.5395410000000  0.3856130000000  0.5364860000000 1.0
C      1  0.3972350000000  0.4654180000000  0.5369820000000 1.0
C      1  0.4603640000000  0.6144070000000  0.5364890000000 1.0
C      1  0.6025660000000  0.5347890000000  0.5369240000000 1.0
C      1  0.5841240000000  0.5762100000000  0.5143620000000 1.0
C      1  0.5781980000000  0.4112370000000  0.5144250000000 1.0
C      1  0.4156760000000  0.4240790000000  0.5143460000000 1.0
C      1  0.4217070000000  0.5887920000000  0.5144180000000 1.0
C      1  0.5841280000000  0.5762120000000  0.4856720000000 1.0
C      1  0.5782020000000  0.4112390000000  0.4855810000000 1.0
C      1  0.4156790000000  0.4240810000000  0.4856200000000 1.0
C      1  0.4217110000000  0.5887940000000  0.4855760000000 1.0
C      1  0.4086120000000  0.4899380000000  0.4703870000000 1.0
C      1  0.4862700000000  0.6059280000000  0.4704880000000 1.0
C      1  0.5912910000000  0.5102220000000  0.4704440000000 1.0
C      1  0.5136480000000  0.3940770000000  0.4704760000000 1.0
C      1  0.4086050000000  0.4899330000000  0.5295870000000 1.0
C      1  0.4862620000000  0.6059230000000  0.5295260000000 1.0
C      1  0.5912830000000  0.5102180000000  0.5295810000000 1.0
C      1  0.5136400000000  0.3940720000000  0.5295110000000 1.0
C      1  0.5657280000000  0.5092390000000  0.4025170000000 1.0
C      1  0.5059490000000  0.4398350000000  0.4077730000000 1.0
C      1  0.4357830000000  0.4907960000000  0.4007750000000 1.0
C      1  0.4939100000000  0.5603220000000  0.4077200000000 1.0
C      1  0.5657020000000  0.5092230000000  0.5975020000000 1.0
C      1  0.5059250000000  0.4398200000000  0.5922190000000 1.0
C      1  0.4357570000000  0.4907800000000  0.5992070000000 1.0
C      1  0.4938860000000  0.5603070000000  0.5922880000000 1.0
C      1  0.6079260000000  0.4936240000000  0.5135450000000 1.0
C      1  0.4982490000000  0.3763560000000  0.5135330000000 1.0
C      1  0.3920120000000  0.5065450000000  0.5135170000000 1.0
C      1  0.5016670000000  0.6236270000000  0.5135520000000 1.0
C      1  0.6079300000000  0.4936260000000  0.4864830000000 1.0
C      1  0.4982520000000  0.3763580000000  0.4864470000000 1.0
C      1  0.3920160000000  0.5065470000000  0.4864560000000 1.0
C      1  0.5016710000000  0.6236290000000  0.4864680000000 1.0
END
