TITL C-3201375-1262-92 191933.438339761 125000 -886.826545672579 0 0 144 (C1) n - 1
REM
REM in /home/nfs/bkarasulu/CARBON/AIRSS/Generating-Clusters/LCBOP/Higher-Symm/SD-CG/FIRE-CG
REM
REM
REM
REM
REM
REM ./C.cell (b20cbc046b6831c77cfcea5457e17084)
REM AIRSS Version 0.9.1 bugfix July 2018 build 013d7b7c2542+ Fri, 06 Jul 2018 19:26:36 +0100
REM compiler GCC version 9.2.1 20190827 (Red Hat 9.2.1-1)
REM options -cpp -mtune=generic -march=x86-64 -g -O0 -fpre-include=/usr/include/finclude/math-vector-fortran.h
REM seed -725682441 -433232749 -480753823 812405983 -53875176 1384865343 -831237978 -998007981 925535959 -492186831 46939291 -482218062 880571058 409686293 1076125837 -850806992 -1359364496 1272772226 -2128000466 -1671969306 1206516388 252366562 1722808882 452402334 1828228236 -1085930868 1179498102 -2094303744 1505577179 -1650156783 655055412 934404394 -1806941423
REM
CELL 1.54180   50.00000   50.00000   50.00000   90.00000   90.00000   90.00000
LATT -1
SFAC C  
C      1  0.5160750000000  0.5485170000000  0.4871470000000 1.0
C      1  0.5315740000000  0.5654400000000  0.5308950000000 1.0
C      1  0.4548560000000  0.5169330000000  0.5773420000000 1.0
C      1  0.4662730000000  0.5138890000000  0.4294140000000 1.0
C      1  0.4882870000000  0.4739590000000  0.3772330000000 1.0
C      1  0.4960590000000  0.4696420000000  0.6102410000000 1.0
C      1  0.5976880000000  0.4934060000000  0.5314140000000 1.0
C      1  0.5889140000000  0.4958800000000  0.4690430000000 1.0
C      1  0.4269320000000  0.4833150000000  0.4525760000000 1.0
C      1  0.4190930000000  0.4886300000000  0.5530170000000 1.0
C      1  0.5107360000000  0.5025510000000  0.4623130000000 1.0
C      1  0.4786610000000  0.5028840000000  0.5366520000000 1.0
C      1  0.5076610000000  0.5557160000000  0.4322040000000 1.0
C      1  0.5051570000000  0.5597000000000  0.5712700000000 1.0
C      1  0.4259450000000  0.4218060000000  0.4501610000000 1.0
C      1  0.4324260000000  0.4252000000000  0.5443390000000 1.0
C      1  0.4830820000000  0.4924610000000  0.6010040000000 1.0
C      1  0.4795380000000  0.4960330000000  0.3917970000000 1.0
C      1  0.4871170000000  0.4473080000000  0.3785410000000 1.0
C      1  0.4976960000000  0.4431350000000  0.6085100000000 1.0
C      1  0.4537090000000  0.4640730000000  0.5198990000000 1.0
C      1  0.4345180000000  0.4650290000000  0.4734210000000 1.0
C      1  0.4933170000000  0.5916440000000  0.5363640000000 1.0
C      1  0.4995510000000  0.5878070000000  0.4695220000000 1.0
C      1  0.5166760000000  0.5359610000000  0.5860000000000 1.0
C      1  0.5150870000000  0.5354780000000  0.4089900000000 1.0
C      1  0.4643740000000  0.5647100000000  0.4533090000000 1.0
C      1  0.4582200000000  0.5645020000000  0.5505130000000 1.0
C      1  0.5672630000000  0.4300770000000  0.5235040000000 1.0
C      1  0.5722300000000  0.4309510000000  0.4721230000000 1.0
C      1  0.6069250000000  0.5137040000000  0.4560400000000 1.0
C      1  0.6154680000000  0.5139300000000  0.5406990000000 1.0
C      1  0.4719530000000  0.5822350000000  0.4757050000000 1.0
C      1  0.4689720000000  0.5793060000000  0.5282790000000 1.0
C      1  0.4943880000000  0.5205950000000  0.5985940000000 1.0
C      1  0.4911550000000  0.5249840000000  0.3949680000000 1.0
C      1  0.5383350000000  0.5203900000000  0.4134050000000 1.0
C      1  0.5433520000000  0.5253160000000  0.5837220000000 1.0
C      1  0.5751980000000  0.5423300000000  0.4362530000000 1.0
C      1  0.5892640000000  0.5474260000000  0.5662680000000 1.0
C      1  0.4023570000000  0.5561580000000  0.5221800000000 1.0
C      1  0.4117010000000  0.5547460000000  0.4713930000000 1.0
C      1  0.5607760000000  0.4732430000000  0.4131830000000 1.0
C      1  0.5600620000000  0.4747640000000  0.5805900000000 1.0
C      1  0.4456350000000  0.4146960000000  0.4315000000000 1.0
C      1  0.4504980000000  0.4133970000000  0.5621550000000 1.0
C      1  0.5502380000000  0.5281490000000  0.4379980000000 1.0
C      1  0.5625260000000  0.5362330000000  0.5654270000000 1.0
C      1  0.5133370000000  0.5754530000000  0.5489410000000 1.0
C      1  0.5138420000000  0.5634160000000  0.4610340000000 1.0
C      1  0.4701440000000  0.5367280000000  0.5907290000000 1.0
C      1  0.4701980000000  0.5370430000000  0.4126080000000 1.0
C      1  0.5613830000000  0.5026810000000  0.4771490000000 1.0
C      1  0.5714360000000  0.5025780000000  0.5252310000000 1.0
C      1  0.4628830000000  0.4155720000000  0.4113110000000 1.0
C      1  0.4700310000000  0.4111160000000  0.5799700000000 1.0
C      1  0.3945260000000  0.5829160000000  0.5182420000000 1.0
C      1  0.4034090000000  0.5816350000000  0.4707520000000 1.0
C      1  0.5949990000000  0.5678510000000  0.5462440000000 1.0
C      1  0.5843320000000  0.5649370000000  0.4516260000000 1.0
C      1  0.4577730000000  0.5184210000000  0.5491550000000 1.0
C      1  0.4786820000000  0.5166160000000  0.4539450000000 1.0
C      1  0.6027970000000  0.5573040000000  0.4730120000000 1.0
C      1  0.6060800000000  0.5568980000000  0.5218430000000 1.0
C      1  0.5848980000000  0.4500730000000  0.4555250000000 1.0
C      1  0.5832470000000  0.4479120000000  0.5396350000000 1.0
C      1  0.4354750000000  0.4794000000000  0.4245040000000 1.0
C      1  0.4322500000000  0.4777580000000  0.5773130000000 1.0
C      1  0.6227140000000  0.5333760000000  0.5207480000000 1.0
C      1  0.6190240000000  0.5335670000000  0.4724060000000 1.0
C      1  0.4780920000000  0.5601290000000  0.4282270000000 1.0
C      1  0.4758070000000  0.5596240000000  0.5741420000000 1.0
C      1  0.4054240000000  0.4226290000000  0.5480110000000 1.0
C      1  0.3998240000000  0.4146880000000  0.4461810000000 1.0
C      1  0.3794950000000  0.4991990000000  0.5207520000000 1.0
C      1  0.3838120000000  0.5018400000000  0.4703480000000 1.0
C      1  0.4423920000000  0.4380750000000  0.5211350000000 1.0
C      1  0.4333350000000  0.4365600000000  0.4732560000000 1.0
C      1  0.4187380000000  0.4660160000000  0.4072730000000 1.0
C      1  0.4199650000000  0.4580390000000  0.5919720000000 1.0
C      1  0.5746970000000  0.4578110000000  0.4302910000000 1.0
C      1  0.5728540000000  0.4573820000000  0.5644750000000 1.0
C      1  0.5694080000000  0.6092030000000  0.4743290000000 1.0
C      1  0.5758480000000  0.6106880000000  0.5237270000000 1.0
C      1  0.4077390000000  0.5070720000000  0.5294990000000 1.0
C      1  0.4140260000000  0.5068170000000  0.4674020000000 1.0
C      1  0.5734450000000  0.5907270000000  0.4551850000000 1.0
C      1  0.5842740000000  0.5937160000000  0.5428240000000 1.0
C      1  0.5470630000000  0.4949070000000  0.4047070000000 1.0
C      1  0.5487650000000  0.4976960000000  0.5892250000000 1.0
C      1  0.4279080000000  0.5338190000000  0.4581280000000 1.0
C      1  0.4142510000000  0.5381230000000  0.5407930000000 1.0
C      1  0.4422410000000  0.5419350000000  0.5439830000000 1.0
C      1  0.4587980000000  0.5374600000000  0.4655680000000 1.0
C      1  0.4597420000000  0.4914750000000  0.4140080000000 1.0
C      1  0.4560500000000  0.4908830000000  0.5883110000000 1.0
C      1  0.6094820000000  0.5264970000000  0.5660490000000 1.0
C      1  0.5969530000000  0.5242030000000  0.4316640000000 1.0
C      1  0.4749210000000  0.4742380000000  0.5360790000000 1.0
C      1  0.5055920000000  0.4773790000000  0.4766470000000 1.0
C      1  0.5399330000000  0.5123190000000  0.4600720000000 1.0
C      1  0.5605060000000  0.5232630000000  0.5404130000000 1.0
C      1  0.4877050000000  0.4213150000000  0.5970090000000 1.0
C      1  0.4775650000000  0.4263340000000  0.3919120000000 1.0
C      1  0.6013370000000  0.4658780000000  0.5249610000000 1.0
C      1  0.5983300000000  0.4692740000000  0.4723050000000 1.0
C      1  0.5198780000000  0.4593070000000  0.4940540000000 1.0
C      1  0.4968940000000  0.4570620000000  0.5372170000000 1.0
C      1  0.5258310000000  0.5012580000000  0.5168630000000 1.0
C      1  0.4312850000000  0.3758870000000  0.4946390000000 1.0
C      1  0.3548270000000  0.3730520000000  0.5015040000000 1.0
C      1  0.4652910000000  0.5356570000000  0.4945700000000 1.0
C      1  0.4065420000000  0.3663180000000  0.4952150000000 1.0
C      1  0.5098370000000  0.4435500000000  0.5162070000000 1.0
C      1  0.4783850000000  0.4736800000000  0.4793600000000 1.0
C      1  0.4085010000000  0.5428890000000  0.4975450000000 1.0
C      1  0.6838780000000  0.5056360000000  0.4916560000000 1.0
C      1  0.3801470000000  0.3660870000000  0.4977790000000 1.0
C      1  0.5011470000000  0.3962800000000  0.5139350000000 1.0
C      1  0.4490820000000  0.5089740000000  0.5001700000000 1.0
C      1  0.6091550000000  0.4617140000000  0.4977340000000 1.0
C      1  0.5451970000000  0.4140770000000  0.5315150000000 1.0
C      1  0.4644200000000  0.5714340000000  0.5014580000000 1.0
C      1  0.5560670000000  0.6473740000000  0.5000630000000 1.0
C      1  0.5005000000000  0.5130430000000  0.5201220000000 1.0
C      1  0.5369470000000  0.5574710000000  0.5048090000000 1.0
C      1  0.3714220000000  0.4978350000000  0.4945320000000 1.0
C      1  0.5187120000000  0.4167320000000  0.5212660000000 1.0
C      1  0.6605150000000  0.5170320000000  0.4934900000000 1.0
C      1  0.5672420000000  0.6223220000000  0.4993580000000 1.0
C      1  0.4771650000000  0.3900840000000  0.5040730000000 1.0
C      1  0.5474650000000  0.4636850000000  0.4972390000000 1.0
C      1  0.4531820000000  0.4783780000000  0.4935110000000 1.0
C      1  0.5530110000000  0.4923370000000  0.5043550000000 1.0
C      1  0.4946680000000  0.5324960000000  0.5000410000000 1.0
C      1  0.3953420000000  0.5945710000000  0.4934880000000 1.0
C      1  0.5911830000000  0.5615680000000  0.4983440000000 1.0
C      1  0.4192510000000  0.5133770000000  0.4996830000000 1.0
C      1  0.5634840000000  0.5596260000000  0.4979480000000 1.0
C      1  0.5631930000000  0.4401280000000  0.4972090000000 1.0
C      1  0.4419270000000  0.4230530000000  0.4968010000000 1.0
C      1  0.3314490000000  0.3838120000000  0.5056830000000 1.0
C      1  0.4505610000000  0.3959040000000  0.4974300000000 1.0
C      1  0.6349200000000  0.5276970000000  0.4954940000000 1.0
END
