TITL C-3201376-6384-1127 -1237.20393746123 125000 -611.147206294919 0 0 105 (C3) n - 1
REM
REM in /home/nfs/bkarasulu/CARBON/AIRSS/Generating-Clusters/LCBOP/Higher-Symm/SD-CG/FIRE-CG
REM
REM
REM
REM
REM
REM ./C.cell (b20cbc046b6831c77cfcea5457e17084)
REM AIRSS Version 0.9.1 bugfix July 2018 build 013d7b7c2542+ Fri, 06 Jul 2018 19:26:36 +0100
REM compiler GCC version 9.2.1 20190827 (Red Hat 9.2.1-1)
REM options -cpp -mtune=generic -march=x86-64 -g -O0 -fpre-include=/usr/include/finclude/math-vector-fortran.h
REM seed 199531514 -2004178473 1846251069 -545090252 -1934132036 536848682 -1220772387 901816389 1969358614 798525934 1567368519 -649580544 -2105593420 -456752322 1564340821 496358445 1013371231 -1227419195 -1003129855 802665208 1636804631 -526071427 444243403 -601894963 -1488233741 1183881883 -809032860 -1488419557 -1575318358 864516985 1194388289 950160568 1401572375
REM
CELL 1.54180   50.00000   50.00000   50.00000   90.00000   90.00000   90.00000
LATT -1
SFAC C  
C      1  0.4402470000000  0.4462610000000  0.4665430000000 1.0
C      1  0.4833150000000  0.5786500000000  0.4665290000000 1.0
C      1  0.5765070000000  0.4751040000000  0.4666130000000 1.0
C      1  0.4722530000000  0.5234990000000  0.4690160000000 1.0
C      1  0.5341880000000  0.5122820000000  0.4689970000000 1.0
C      1  0.4935480000000  0.4643110000000  0.4689960000000 1.0
C      1  0.4840690000000  0.5542220000000  0.5780160000000 1.0
C      1  0.5549270000000  0.4865670000000  0.5779810000000 1.0
C      1  0.4610630000000  0.4592750000000  0.5780180000000 1.0
C      1  0.4967840000000  0.4329140000000  0.5544740000000 1.0
C      1  0.4434270000000  0.5364420000000  0.5544590000000 1.0
C      1  0.5597170000000  0.5307370000000  0.5545100000000 1.0
C      1  0.4950910000000  0.5284090000000  0.4553390000000 1.0
C      1  0.5270870000000  0.4900460000000  0.4552760000000 1.0
C      1  0.4778370000000  0.4815990000000  0.4553110000000 1.0
C      1  0.5297180000000  0.4633090000000  0.4966740000000 1.0
C      1  0.4533670000000  0.4926590000000  0.4967060000000 1.0
C      1  0.5169240000000  0.5440540000000  0.4967030000000 1.0
C      1  0.5385260000000  0.4611950000000  0.5766020000000 1.0
C      1  0.4472550000000  0.4861580000000  0.5766600000000 1.0
C      1  0.5142420000000  0.5525410000000  0.5766570000000 1.0
C      1  0.4306290000000  0.5543450000000  0.4951710000000 1.0
C      1  0.5817100000000  0.5329070000000  0.4951880000000 1.0
C      1  0.4876350000000  0.4128170000000  0.4951580000000 1.0
C      1  0.4669750000000  0.4727710000000  0.5086940000000 1.0
C      1  0.4928950000000  0.5422710000000  0.5087020000000 1.0
C      1  0.5401910000000  0.4850050000000  0.5086720000000 1.0
C      1  0.4883700000000  0.4187100000000  0.4647050000000 1.0
C      1  0.4353540000000  0.5507710000000  0.4647400000000 1.0
C      1  0.5762510000000  0.5305760000000  0.4647270000000 1.0
C      1  0.5217980000000  0.4201270000000  0.5411590000000 1.0
C      1  0.4198820000000  0.5211190000000  0.5411630000000 1.0
C      1  0.5582480000000  0.5587920000000  0.5412170000000 1.0
C      1  0.5603020000000  0.4564340000000  0.4458750000000 1.0
C      1  0.4321920000000  0.4696180000000  0.4457760000000 1.0
C      1  0.5075560000000  0.5738850000000  0.4457210000000 1.0
C      1  0.5117210000000  0.4205880000000  0.5126320000000 1.0
C      1  0.4253180000000  0.5295910000000  0.5126310000000 1.0
C      1  0.5629120000000  0.5498570000000  0.5126780000000 1.0
C      1  0.5807680000000  0.5099270000000  0.5419630000000 1.0
C      1  0.4682740000000  0.4251670000000  0.5419750000000 1.0
C      1  0.4509780000000  0.5650020000000  0.5419400000000 1.0
C      1  0.4688750000000  0.5502120000000  0.4264920000000 1.0
C      1  0.5590920000000  0.5017270000000  0.4265210000000 1.0
C      1  0.4720890000000  0.4480740000000  0.4264730000000 1.0
C      1  0.5190590000000  0.5360140000000  0.4115730000000 1.0
C      1  0.5219830000000  0.4652510000000  0.4115360000000 1.0
C      1  0.4589290000000  0.4985710000000  0.4115230000000 1.0
C      1  0.5873760000000  0.5069770000000  0.5123540000000 1.0
C      1  0.4623730000000  0.4209170000000  0.5123580000000 1.0
C      1  0.4502610000000  0.5721920000000  0.5123330000000 1.0
C      1  0.4662990000000  0.5206980000000  0.5378540000000 1.0
C      1  0.5347030000000  0.5187880000000  0.5378370000000 1.0
C      1  0.4989960000000  0.4605710000000  0.5378250000000 1.0
C      1  0.4550330000000  0.4497110000000  0.5509740000000 1.0
C      1  0.4788490000000  0.5642180000000  0.5509630000000 1.0
C      1  0.5661930000000  0.4861830000000  0.5509350000000 1.0
C      1  0.5490560000000  0.4736340000000  0.4227300000000 1.0
C      1  0.4527770000000  0.4708380000000  0.4226510000000 1.0
C      1  0.4982550000000  0.5554410000000  0.4226280000000 1.0
C      1  0.4853520000000  0.4581820000000  0.4943590000000 1.0
C      1  0.4710610000000  0.5336610000000  0.4943770000000 1.0
C      1  0.5435930000000  0.5082300000000  0.4943570000000 1.0
C      1  0.4790140000000  0.5027240000000  0.6105870000000 1.0
C      1  0.5122050000000  0.5163090000000  0.6101370000000 1.0
C      1  0.5087250000000  0.4806000000000  0.6106140000000 1.0
C      1  0.4528110000000  0.5173650000000  0.5109150000000 1.0
C      1  0.5385830000000  0.5321620000000  0.5109160000000 1.0
C      1  0.5085890000000  0.4505090000000  0.5108920000000 1.0
C      1  0.4593460000000  0.5650710000000  0.4521690000000 1.0
C      1  0.5766970000000  0.5026270000000  0.4522090000000 1.0
C      1  0.4639980000000  0.4323440000000  0.4521530000000 1.0
C      1  0.4306990000000  0.5257310000000  0.4455770000000 1.0
C      1  0.5568680000000  0.5470590000000  0.4454920000000 1.0
C      1  0.5123760000000  0.4271950000000  0.4455300000000 1.0
C      1  0.4515440000000  0.5256840000000  0.4229420000000 1.0
C      1  0.5463700000000  0.5289470000000  0.4228940000000 1.0
C      1  0.5020300000000  0.4453580000000  0.4228960000000 1.0
C      1  0.5278880000000  0.5687490000000  0.5481730000000 1.0
C      1  0.5456670000000  0.4413740000000  0.5481040000000 1.0
C      1  0.4264520000000  0.4898270000000  0.5481500000000 1.0
C      1  0.5682280000000  0.4522560000000  0.5230560000000 1.0
C      1  0.4245970000000  0.4648560000000  0.5230890000000 1.0
C      1  0.5072320000000  0.5828920000000  0.5230910000000 1.0
C      1  0.5225990000000  0.4647520000000  0.4683260000000 1.0
C      1  0.4581390000000  0.4981020000000  0.4683560000000 1.0
C      1  0.5192490000000  0.5372090000000  0.4683560000000 1.0
C      1  0.5116750000000  0.4823320000000  0.3920120000000 1.0
C      1  0.4788690000000  0.4993330000000  0.3920060000000 1.0
C      1  0.5093710000000  0.5180290000000  0.3924710000000 1.0
C      1  0.4592740000000  0.5354900000000  0.5814560000000 1.0
C      1  0.5509310000000  0.5173880000000  0.5814830000000 1.0
C      1  0.4897160000000  0.4471960000000  0.5814850000000 1.0
C      1  0.5362560000000  0.4418000000000  0.4549080000000 1.0
C      1  0.4314620000000  0.4977350000000  0.4548950000000 1.0
C      1  0.5322670000000  0.5604460000000  0.4548200000000 1.0
C      1  0.5268960000000  0.5305230000000  0.5914710000000 1.0
C      1  0.5132500000000  0.4611090000000  0.5915550000000 1.0
C      1  0.4597230000000  0.5081780000000  0.5915600000000 1.0
C      1  0.4879190000000  0.5402240000000  0.5357690000000 1.0
C      1  0.5408790000000  0.4903180000000  0.5357440000000 1.0
C      1  0.4712770000000  0.4695340000000  0.5357580000000 1.0
C      1  0.5814380000000  0.4754680000000  0.4995940000000 1.0
C      1  0.4380810000000  0.4418300000000  0.4995910000000 1.0
C      1  0.4805550000000  0.5827600000000  0.4995760000000 1.0
END
