TITL C-3201376-6384-827 711544.435817592 125000 -1074.2094885488 0 0 183 (C1) n - 1
REM
REM in /home/nfs/bkarasulu/CARBON/AIRSS/Generating-Clusters/LCBOP/Higher-Symm/SD-CG/FIRE-CG
REM
REM
REM
REM
REM
REM ./C.cell (b20cbc046b6831c77cfcea5457e17084)
REM AIRSS Version 0.9.1 bugfix July 2018 build 013d7b7c2542+ Fri, 06 Jul 2018 19:26:36 +0100
REM compiler GCC version 9.2.1 20190827 (Red Hat 9.2.1-1)
REM options -cpp -mtune=generic -march=x86-64 -g -O0 -fpre-include=/usr/include/finclude/math-vector-fortran.h
REM seed 1263242691 -1819265197 -1720278992 838563466 295399805 -625618261 1370568548 1975102606 -883726779 1769569161 -1830631488 31444389 254311551 -908007934 -261488929 -938064739 1492903869 -752244339 -2032000264 -1641331095 1605992940 -778295894 -345075798 1772572738 1400061392 2058828321 1299927050 -1182043283 876022376 -469611858 1505178452 459171170 -842593579
REM
CELL 1.54180   50.00000   50.00000   50.00000   90.00000   90.00000   90.00000
LATT -1
SFAC C  
C      1  0.5986880000000  0.4696400000000  0.4633260000000 1.0
C      1  0.5024060000000  0.3910570000000  0.4640480000000 1.0
C      1  0.3969440000000  0.4639790000000  0.4621090000000 1.0
C      1  0.4336430000000  0.5920160000000  0.4644410000000 1.0
C      1  0.5633450000000  0.5923240000000  0.4633800000000 1.0
C      1  0.4345000000000  0.4187400000000  0.5601800000000 1.0
C      1  0.4056730000000  0.5350450000000  0.5603880000000 1.0
C      1  0.5068230000000  0.5992730000000  0.5609780000000 1.0
C      1  0.5995310000000  0.5248410000000  0.5610170000000 1.0
C      1  0.5576830000000  0.4087370000000  0.5589200000000 1.0
C      1  0.5416530000000  0.5199060000000  0.5424700000000 1.0
C      1  0.5374530000000  0.4641060000000  0.5517960000000 1.0
C      1  0.4854520000000  0.4484700000000  0.5428380000000 1.0
C      1  0.4572350000000  0.4974590000000  0.5365400000000 1.0
C      1  0.4840950000000  0.5481620000000  0.5395940000000 1.0
C      1  0.5467540000000  0.4532760000000  0.5083560000000 1.0
C      1  0.4660130000000  0.4351090000000  0.4942350000000 1.0
C      1  0.4309270000000  0.5121730000000  0.4967670000000 1.0
C      1  0.4872070000000  0.5744490000000  0.4918020000000 1.0
C      1  0.5637170000000  0.5365580000000  0.4979150000000 1.0
C      1  0.5443810000000  0.4042920000000  0.5324220000000 1.0
C      1  0.4241290000000  0.4287190000000  0.5339830000000 1.0
C      1  0.4097730000000  0.5503110000000  0.5351980000000 1.0
C      1  0.5217160000000  0.5974770000000  0.5351160000000 1.0
C      1  0.6019180000000  0.5096730000000  0.5353800000000 1.0
C      1  0.5133200000000  0.5518770000000  0.5881700000000 1.0
C      1  0.5582770000000  0.4990620000000  0.5935210000000 1.0
C      1  0.5207230000000  0.4397760000000  0.5941500000000 1.0
C      1  0.4574140000000  0.4609340000000  0.5875710000000 1.0
C      1  0.4527280000000  0.5283870000000  0.5877320000000 1.0
C      1  0.5622810000000  0.4692870000000  0.5989110000000 1.0
C      1  0.4935730000000  0.4278810000000  0.5966200000000 1.0
C      1  0.4376150000000  0.4818580000000  0.5913620000000 1.0
C      1  0.4647720000000  0.5547280000000  0.5939930000000 1.0
C      1  0.5417030000000  0.5466550000000  0.5939520000000 1.0
C      1  0.5259270000000  0.4413910000000  0.5655360000000 1.0
C      1  0.4624660000000  0.4567450000000  0.5587570000000 1.0
C      1  0.4510940000000  0.5242070000000  0.5582720000000 1.0
C      1  0.5077520000000  0.5511650000000  0.5584010000000 1.0
C      1  0.5592720000000  0.5038570000000  0.5642500000000 1.0
C      1  0.5610270000000  0.6191410000000  0.4565740000000 1.0
C      1  0.6216340000000  0.4804690000000  0.4521500000000 1.0
C      1  0.5259040000000  0.3795870000000  0.4750180000000 1.0
C      1  0.3944170000000  0.4382100000000  0.4737370000000 1.0
C      1  0.4088000000000  0.5856190000000  0.4768470000000 1.0
C      1  0.4061730000000  0.5820370000000  0.5029860000000 1.0
C      1  0.5554660000000  0.6444780000000  0.4540690000000 1.0
C      1  0.6441670000000  0.4924710000000  0.4469300000000 1.0
C      1  0.5294870000000  0.3775120000000  0.5013420000000 1.0
C      1  0.3964800000000  0.4345190000000  0.5000370000000 1.0
C      1  0.5589630000000  0.4566310000000  0.4317610000000 1.0
C      1  0.4841410000000  0.4204750000000  0.4238590000000 1.0
C      1  0.4190710000000  0.4909400000000  0.4203840000000 1.0
C      1  0.4651530000000  0.5766240000000  0.4227770000000 1.0
C      1  0.5623700000000  0.5577800000000  0.4239440000000 1.0
C      1  0.5992700000000  0.5690100000000  0.4848840000000 1.0
C      1  0.5992980000000  0.4276690000000  0.4850630000000 1.0
C      1  0.4568990000000  0.3865970000000  0.4792530000000 1.0
C      1  0.3811810000000  0.5065560000000  0.4791500000000 1.0
C      1  0.4707500000000  0.6202990000000  0.4802750000000 1.0
C      1  0.5548320000000  0.4864090000000  0.4692080000000 1.0
C      1  0.5029410000000  0.4395300000000  0.4623410000000 1.0
C      1  0.4421440000000  0.4791890000000  0.4581760000000 1.0
C      1  0.4579010000000  0.5507700000000  0.4615210000000 1.0
C      1  0.5329400000000  0.5549540000000  0.4597600000000 1.0
C      1  0.4841000000000  0.3889950000000  0.4860140000000 1.0
C      1  0.3916690000000  0.4811440000000  0.4846820000000 1.0
C      1  0.4486800000000  0.6036200000000  0.4864430000000 1.0
C      1  0.5748240000000  0.5836500000000  0.4881560000000 1.0
C      1  0.5985540000000  0.4560370000000  0.4882990000000 1.0
C      1  0.5195340000000  0.4526520000000  0.5053630000000 1.0
C      1  0.4626330000000  0.4615010000000  0.4964820000000 1.0
C      1  0.4511040000000  0.5287000000000  0.5035390000000 1.0
C      1  0.5050340000000  0.5548200000000  0.4944170000000 1.0
C      1  0.5542910000000  0.5148880000000  0.5100250000000 1.0
C      1  0.5167150000000  0.5339490000000  0.4479460000000 1.0
C      1  0.5328050000000  0.4946640000000  0.4554810000000 1.0
C      1  0.5024380000000  0.4644670000000  0.4487500000000 1.0
C      1  0.4659830000000  0.4876860000000  0.4448040000000 1.0
C      1  0.4736710000000  0.5302160000000  0.4489950000000 1.0
C      1  0.5181930000000  0.4806820000000  0.5403530000000 1.0
C      1  0.4996990000000  0.4668000000000  0.5233970000000 1.0
C      1  0.4795420000000  0.4830770000000  0.5094340000000 1.0
C      1  0.4770860000000  0.5308840000000  0.5176180000000 1.0
C      1  0.4980210000000  0.5280090000000  0.4993600000000 1.0
C      1  0.3992280000000  0.5046110000000  0.5274140000000 1.0
C      1  0.4740380000000  0.5998860000000  0.5290590000000 1.0
C      1  0.5865420000000  0.5555950000000  0.5298450000000 1.0
C      1  0.5804840000000  0.4345320000000  0.5295440000000 1.0
C      1  0.4630400000000  0.4026600000000  0.5285170000000 1.0
C      1  0.4613180000000  0.4059850000000  0.5578640000000 1.0
C      1  0.4047210000000  0.5058140000000  0.5559620000000 1.0
C      1  0.4777510000000  0.5948020000000  0.5585220000000 1.0
C      1  0.5839040000000  0.5497120000000  0.5586260000000 1.0
C      1  0.5765890000000  0.4313990000000  0.5589440000000 1.0
C      1  0.4420810000000  0.4216160000000  0.4513760000000 1.0
C      1  0.4098560000000  0.5305400000000  0.4514740000000 1.0
C      1  0.5016450000000  0.5983580000000  0.4507450000000 1.0
C      1  0.5924570000000  0.5325100000000  0.4555660000000 1.0
C      1  0.5606480000000  0.4151860000000  0.4595770000000 1.0
C      1  0.4505180000000  0.5516490000000  0.4879290000000 1.0
C      1  0.5297660000000  0.5607930000000  0.4860590000000 1.0
C      1  0.5605350000000  0.4922700000000  0.4954060000000 1.0
C      1  0.5089600000000  0.4348360000000  0.4886340000000 1.0
C      1  0.4408120000000  0.4717670000000  0.4844620000000 1.0
C      1  0.5331140000000  0.4194210000000  0.4160110000000 1.0
C      1  0.4419430000000  0.4461000000000  0.4081760000000 1.0
C      1  0.4308540000000  0.5398780000000  0.4076600000000 1.0
C      1  0.5154690000000  0.5714210000000  0.4102950000000 1.0
C      1  0.6000520000000  0.5315910000000  0.4074380000000 1.0
C      1  0.4562150000000  0.5821850000000  0.5074540000000 1.0
C      1  0.5577620000000  0.5690090000000  0.5082100000000 1.0
C      1  0.5807350000000  0.4655690000000  0.5108690000000 1.0
C      1  0.4903060000000  0.4097400000000  0.5072600000000 1.0
C      1  0.4139540000000  0.4806310000000  0.5056940000000 1.0
C      1  0.4340160000000  0.5664560000000  0.5292310000000 1.0
C      1  0.5404390000000  0.5756610000000  0.5306010000000 1.0
C      1  0.5886850000000  0.4831610000000  0.5335170000000 1.0
C      1  0.5151700000000  0.4058870000000  0.5286020000000 1.0
C      1  0.4201060000000  0.4568050000000  0.5263250000000 1.0
C      1  0.5666180000000  0.4762770000000  0.5539290000000 1.0
C      1  0.5044270000000  0.4251420000000  0.5512510000000 1.0
C      1  0.4399070000000  0.4725820000000  0.5453500000000 1.0
C      1  0.4558140000000  0.5538190000000  0.5490000000000 1.0
C      1  0.5369050000000  0.5509110000000  0.5478190000000 1.0
C      1  0.5531210000000  0.5709600000000  0.4474920000000 1.0
C      1  0.5726630000000  0.4711970000000  0.4526410000000 1.0
C      1  0.4963020000000  0.4145100000000  0.4491460000000 1.0
C      1  0.4163060000000  0.4759610000000  0.4450640000000 1.0
C      1  0.4500630000000  0.5752270000000  0.4476590000000 1.0
C      1  0.4941270000000  0.5841750000000  0.4260050000000 1.0
C      1  0.5851910000000  0.5405470000000  0.4286760000000 1.0
C      1  0.5531130000000  0.4283630000000  0.4349230000000 1.0
C      1  0.4554020000000  0.4274850000000  0.4259080000000 1.0
C      1  0.4175580000000  0.5205750000000  0.4247600000000 1.0
C      1  0.5403960000000  0.4535600000000  0.6093430000000 1.0
C      1  0.4726030000000  0.4451090000000  0.6052290000000 1.0
C      1  0.4445030000000  0.5064980000000  0.6034430000000 1.0
C      1  0.4908900000000  0.5548470000000  0.6049970000000 1.0
C      1  0.5504410000000  0.5227430000000  0.6072360000000 1.0
C      1  0.5761170000000  0.4563970000000  0.5753020000000 1.0
C      1  0.4859730000000  0.4121040000000  0.5723250000000 1.0
C      1  0.4217030000000  0.4854830000000  0.5669230000000 1.0
C      1  0.4621640000000  0.5735570000000  0.5714760000000 1.0
C      1  0.5579730000000  0.5541500000000  0.5705460000000 1.0
C      1  0.4429750000000  0.4125950000000  0.4805890000000 1.0
C      1  0.4017020000000  0.5276300000000  0.4807970000000 1.0
C      1  0.4963460000000  0.6050910000000  0.4807060000000 1.0
C      1  0.5948000000000  0.5387350000000  0.4850850000000 1.0
C      1  0.5739410000000  0.4138420000000  0.4851960000000 1.0
C      1  0.4664250000000  0.4843520000000  0.4166060000000 1.0
C      1  0.4749210000000  0.5321540000000  0.4209970000000 1.0
C      1  0.5275390000000  0.5257990000000  0.4218140000000 1.0
C      1  0.5367560000000  0.4996020000000  0.4269380000000 1.0
C      1  0.5097590000000  0.4622370000000  0.4172170000000 1.0
C      1  0.5653440000000  0.4135710000000  0.5132180000000 1.0
C      1  0.4373070000000  0.4105870000000  0.5156860000000 1.0
C      1  0.3976290000000  0.5324940000000  0.5157500000000 1.0
C      1  0.5015320000000  0.6075510000000  0.5160300000000 1.0
C      1  0.6031600000000  0.5328260000000  0.5157710000000 1.0
C      1  0.5388030000000  0.4725950000000  0.4171000000000 1.0
C      1  0.5075450000000  0.4325020000000  0.4105480000000 1.0
C      1  0.4407820000000  0.4753020000000  0.4070770000000 1.0
C      1  0.4572720000000  0.5512260000000  0.4089460000000 1.0
C      1  0.5367120000000  0.5507460000000  0.4104210000000 1.0
C      1  0.5000670000000  0.4981330000000  0.6792870000000 1.0
C      1  0.4989340000000  0.4964490000000  0.6263630000000 1.0
C      1  0.5002900000000  0.4994460000000  0.7057520000000 1.0
C      1  0.4986960000000  0.4960450000000  0.3514380000000 1.0
C      1  0.5153030000000  0.5062890000000  0.5496190000000 1.0
C      1  0.5001170000000  0.4996100000000  0.7583250000000 1.0
C      1  0.5012600000000  0.5020790000000  0.2989580000000 1.0
C      1  0.5002330000000  0.4997990000000  0.7322560000000 1.0
C      1  0.4902560000000  0.4792250000000  0.4023270000000 1.0
C      1  0.4994310000000  0.4964910000000  0.6528490000000 1.0
C      1  0.5008840000000  0.5011170000000  0.2724710000000 1.0
C      1  0.4971040000000  0.5017200000000  0.4585360000000 1.0
C      1  0.5026300000000  0.5070210000000  0.5747110000000 1.0
C      1  0.5006350000000  0.5006390000000  0.3254120000000 1.0
C      1  0.5000780000000  0.4991960000000  0.2464840000000 1.0
C      1  0.4935840000000  0.5022920000000  0.4880620000000 1.0
C      1  0.4953030000000  0.4884140000000  0.3765660000000 1.0
C      1  0.4992990000000  0.4995000000000  0.6000110000000 1.0
END
