TITL C-3201372-1405-1090 -6.23368911933105e-07 125000 -710.745142113229 0 0 118 (C1) n - 1
REM
REM in /home/nfs/bkarasulu/CARBON/AIRSS/Generating-Clusters/LCBOP/Higher-Symm/SD-CG/FIRE-CG
REM
REM
REM
REM
REM
REM ./C.cell (b20cbc046b6831c77cfcea5457e17084)
REM AIRSS Version 0.9.1 bugfix July 2018 build 013d7b7c2542+ Fri, 06 Jul 2018 19:26:36 +0100
REM compiler GCC version 9.2.1 20190827 (Red Hat 9.2.1-1)
REM options -cpp -mtune=generic -march=x86-64 -g -O0 -fpre-include=/usr/include/finclude/math-vector-fortran.h
REM seed -1041484141 1838921335 -199013358 1375866772 698249718 1402105990 1413226065 1477200487 624138699 1756813177 -140774150 -761602340 818066623 1122249334 -1532033689 -972384179 149150794 1326080591 1410042878 -311213438 -1636613097 2080925396 -1166285465 898198410 1035914712 -360444699 1637955541 2129239411 -337924368 1592251486 1211023076 1804940677 -1556634782
REM
CELL 1.54180   50.00000   50.00000   50.00000   90.00000   90.00000   90.00000
LATT -1
SFAC C  
C      1  0.4497710000000  0.5277990000000  0.4244820000000 1.0
C      1  0.5068500000000  0.4089770000000  0.5015310000000 1.0
C      1  0.5819760000000  0.5584810000000  0.5524500000000 1.0
C      1  0.4554160000000  0.4815950000000  0.4884210000000 1.0
C      1  0.5903050000000  0.5318780000000  0.5449420000000 1.0
C      1  0.4374780000000  0.4540610000000  0.4432720000000 1.0
C      1  0.4116890000000  0.4653980000000  0.4880120000000 1.0
C      1  0.5770180000000  0.4936470000000  0.5886380000000 1.0
C      1  0.4695770000000  0.5500310000000  0.5432300000000 1.0
C      1  0.4329590000000  0.5946710000000  0.5203560000000 1.0
C      1  0.4614460000000  0.5938010000000  0.4630800000000 1.0
C      1  0.5627490000000  0.4372250000000  0.4808520000000 1.0
C      1  0.4836930000000  0.4212390000000  0.5425030000000 1.0
C      1  0.5652160000000  0.5128070000000  0.4912910000000 1.0
C      1  0.4762070000000  0.5223340000000  0.4687320000000 1.0
C      1  0.5385020000000  0.5785400000000  0.5334610000000 1.0
C      1  0.4811250000000  0.4483710000000  0.5330200000000 1.0
C      1  0.5544030000000  0.5667850000000  0.5546030000000 1.0
C      1  0.4855810000000  0.5892620000000  0.5644080000000 1.0
C      1  0.5244460000000  0.4843710000000  0.4530490000000 1.0
C      1  0.4842730000000  0.4594740000000  0.4517750000000 1.0
C      1  0.5820360000000  0.4669950000000  0.4467690000000 1.0
C      1  0.5849690000000  0.4558780000000  0.5268790000000 1.0
C      1  0.4161090000000  0.5106570000000  0.5543930000000 1.0
C      1  0.4037620000000  0.5004470000000  0.5300780000000 1.0
C      1  0.5075830000000  0.4088370000000  0.5311700000000 1.0
C      1  0.5215610000000  0.5339250000000  0.5217780000000 1.0
C      1  0.5700470000000  0.4461260000000  0.5491110000000 1.0
C      1  0.5726530000000  0.5142180000000  0.4636950000000 1.0
C      1  0.5399400000000  0.4756050000000  0.4771190000000 1.0
C      1  0.5104730000000  0.4376430000000  0.4944390000000 1.0
C      1  0.5593900000000  0.4245610000000  0.4341080000000 1.0
C      1  0.4278840000000  0.5668680000000  0.5187730000000 1.0
C      1  0.4636810000000  0.5545130000000  0.5921910000000 1.0
C      1  0.5136610000000  0.5202290000000  0.5968200000000 1.0
C      1  0.6015210000000  0.5770050000000  0.5579960000000 1.0
C      1  0.5125730000000  0.4120330000000  0.4140660000000 1.0
C      1  0.4445370000000  0.4714010000000  0.4189590000000 1.0
C      1  0.4914330000000  0.4724070000000  0.5447720000000 1.0
C      1  0.4210730000000  0.5555460000000  0.4935560000000 1.0
C      1  0.5803560000000  0.4408770000000  0.5027720000000 1.0
C      1  0.5591720000000  0.5830760000000  0.4453800000000 1.0
C      1  0.4901810000000  0.4233770000000  0.4045570000000 1.0
C      1  0.4554010000000  0.5018470000000  0.4681870000000 1.0
C      1  0.5482640000000  0.5034350000000  0.5494740000000 1.0
C      1  0.5526380000000  0.4971110000000  0.5768550000000 1.0
C      1  0.5964060000000  0.5060230000000  0.5389140000000 1.0
C      1  0.5357470000000  0.4475010000000  0.4845540000000 1.0
C      1  0.4793720000000  0.5635500000000  0.4230160000000 1.0
C      1  0.4394960000000  0.5004490000000  0.4255170000000 1.0
C      1  0.4391350000000  0.5440990000000  0.5858900000000 1.0
C      1  0.5150760000000  0.5857690000000  0.4691560000000 1.0
C      1  0.5162950000000  0.5629240000000  0.5247660000000 1.0
C      1  0.5998590000000  0.4812440000000  0.5245580000000 1.0
C      1  0.5906490000000  0.4922490000000  0.4570460000000 1.0
C      1  0.4983370000000  0.5641400000000  0.4748980000000 1.0
C      1  0.4767270000000  0.4942000000000  0.5575850000000 1.0
C      1  0.4410630000000  0.4585930000000  0.3726130000000 1.0
C      1  0.4560480000000  0.4596640000000  0.3955830000000 1.0
C      1  0.4309380000000  0.4978520000000  0.4535660000000 1.0
C      1  0.4246980000000  0.4240540000000  0.5166440000000 1.0
C      1  0.4654980000000  0.6050860000000  0.4880940000000 1.0
C      1  0.4491950000000  0.4919130000000  0.5132180000000 1.0
C      1  0.4984520000000  0.4799640000000  0.4644540000000 1.0
C      1  0.5315150000000  0.4150240000000  0.5455430000000 1.0
C      1  0.5022740000000  0.4620280000000  0.6168020000000 1.0
C      1  0.4876430000000  0.5643230000000  0.5249390000000 1.0
C      1  0.5333690000000  0.4480040000000  0.5820670000000 1.0
C      1  0.5279910000000  0.5329490000000  0.4524560000000 1.0
C      1  0.5047030000000  0.4653050000000  0.3891130000000 1.0
C      1  0.5052350000000  0.5173680000000  0.5046020000000 1.0
C      1  0.4577360000000  0.4517320000000  0.4884670000000 1.0
C      1  0.4757340000000  0.6031710000000  0.5419820000000 1.0
C      1  0.4997880000000  0.5160120000000  0.4191490000000 1.0
C      1  0.5194710000000  0.4950040000000  0.4256310000000 1.0
C      1  0.4889690000000  0.5650330000000  0.5821600000000 1.0
C      1  0.5377600000000  0.5937820000000  0.4574910000000 1.0
C      1  0.4016240000000  0.4842420000000  0.5079260000000 1.0
C      1  0.5713670000000  0.4412300000000  0.4533570000000 1.0
C      1  0.4877950000000  0.3995630000000  0.4817530000000 1.0
C      1  0.4244470000000  0.5499860000000  0.4673130000000 1.0
C      1  0.4708980000000  0.4128060000000  0.4643100000000 1.0
C      1  0.6129070000000  0.4901770000000  0.4747470000000 1.0
C      1  0.5494370000000  0.4911990000000  0.4998450000000 1.0
C      1  0.4837870000000  0.4482640000000  0.5040480000000 1.0
C      1  0.5207170000000  0.4683500000000  0.5976630000000 1.0
C      1  0.6154090000000  0.4839520000000  0.5008050000000 1.0
C      1  0.4595380000000  0.6048940000000  0.5168990000000 1.0
C      1  0.5235700000000  0.4780690000000  0.4033920000000 1.0
C      1  0.4779560000000  0.5345930000000  0.4172250000000 1.0
C      1  0.5347450000000  0.5273380000000  0.5460210000000 1.0
C      1  0.5353990000000  0.5480700000000  0.5662170000000 1.0
C      1  0.5566650000000  0.5331850000000  0.4494100000000 1.0
C      1  0.4596150000000  0.5734910000000  0.4423700000000 1.0
C      1  0.4727040000000  0.5203220000000  0.5444080000000 1.0
C      1  0.4397550000000  0.5526820000000  0.5403170000000 1.0
C      1  0.4773780000000  0.5293060000000  0.4983110000000 1.0
C      1  0.4190740000000  0.4718110000000  0.4601700000000 1.0
C      1  0.5178500000000  0.4745730000000  0.5353210000000 1.0
C      1  0.4285680000000  0.4908850000000  0.5708490000000 1.0
C      1  0.5458940000000  0.4352510000000  0.5598460000000 1.0
C      1  0.4357220000000  0.4095710000000  0.5362670000000 1.0
C      1  0.5129790000000  0.5467980000000  0.5842950000000 1.0
C      1  0.4598000000000  0.4076770000000  0.5480630000000 1.0
C      1  0.5020890000000  0.4920630000000  0.4908170000000 1.0
C      1  0.4295160000000  0.4444840000000  0.4983620000000 1.0
C      1  0.5421210000000  0.4862330000000  0.5274330000000 1.0
C      1  0.4403310000000  0.5504950000000  0.4435850000000 1.0
C      1  0.5377680000000  0.4136860000000  0.4228000000000 1.0
C      1  0.4550140000000  0.4863270000000  0.5741780000000 1.0
C      1  0.5674280000000  0.5578520000000  0.4410070000000 1.0
C      1  0.4825770000000  0.4488990000000  0.3952470000000 1.0
C      1  0.4620390000000  0.5150520000000  0.5186290000000 1.0
C      1  0.4262910000000  0.5374900000000  0.5606350000000 1.0
C      1  0.4615040000000  0.4415000000000  0.4595610000000 1.0
C      1  0.5284120000000  0.4955330000000  0.5925910000000 1.0
C      1  0.5009810000000  0.5387500000000  0.4599430000000 1.0
C      1  0.4815730000000  0.5589720000000  0.4975810000000 1.0
END
