TITL C-3201374-830-29 148306.743433467 125000 -1129.75485983663 0 0 182 (C1) n - 1
REM
REM in /home/nfs/bkarasulu/CARBON/AIRSS/Generating-Clusters/LCBOP/Higher-Symm/SD-CG/FIRE-CG
REM
REM
REM
REM
REM
REM ./C.cell (b20cbc046b6831c77cfcea5457e17084)
REM AIRSS Version 0.9.1 bugfix July 2018 build 013d7b7c2542+ Fri, 06 Jul 2018 19:26:36 +0100
REM compiler GCC version 9.2.1 20190827 (Red Hat 9.2.1-1)
REM options -cpp -mtune=generic -march=x86-64 -g -O0 -fpre-include=/usr/include/finclude/math-vector-fortran.h
REM seed 306030346 670375951 1687203681 1042369226 1894549855 1383323182 -861929209 -1137510551 -246970803 -283460575 1417145227 -974933746 -524596129 -1071158650 -619528622 1354346935 -1977878726 962009333 -166317135 -892496113 -547787615 -1033215967 1734182472 1873851306 -427633890 1207632041 -1226369812 171677381 -975268357 -1669881769 -1840078185 -389800393 70478945
REM
CELL 1.54180   50.00000   50.00000   50.00000   90.00000   90.00000   90.00000
LATT -1
SFAC C  
C      1  0.5152730000000  0.4808020000000  0.3674010000000 1.0
C      1  0.5227730000000  0.4900460000000  0.6318510000000 1.0
C      1  0.5247780000000  0.5086450000000  0.3662470000000 1.0
C      1  0.5148380000000  0.5188550000000  0.6314630000000 1.0
C      1  0.5004060000000  0.5264130000000  0.3663950000000 1.0
C      1  0.4854700000000  0.5197910000000  0.6309230000000 1.0
C      1  0.4768980000000  0.5088410000000  0.3675730000000 1.0
C      1  0.4750710000000  0.4924100000000  0.6322680000000 1.0
C      1  0.4854230000000  0.4801930000000  0.3667990000000 1.0
C      1  0.4984820000000  0.4737700000000  0.6327080000000 1.0
C      1  0.5978600000000  0.4772290000000  0.4848280000000 1.0
C      1  0.5931620000000  0.5371050000000  0.5116810000000 1.0
C      1  0.5526330000000  0.5839100000000  0.4873940000000 1.0
C      1  0.4921630000000  0.5971530000000  0.5119730000000 1.0
C      1  0.4372060000000  0.5740680000000  0.4869960000000 1.0
C      1  0.4047320000000  0.5234830000000  0.5136200000000 1.0
C      1  0.4102740000000  0.4637560000000  0.4883750000000 1.0
C      1  0.4469590000000  0.4169570000000  0.5148230000000 1.0
C      1  0.5077020000000  0.4005240000000  0.4917350000000 1.0
C      1  0.5673820000000  0.4285620000000  0.5055540000000 1.0
C      1  0.4754770000000  0.4663600000000  0.3915840000000 1.0
C      1  0.4961120000000  0.4578570000000  0.6077330000000 1.0
C      1  0.5216200000000  0.4689040000000  0.3938920000000 1.0
C      1  0.5366160000000  0.4858000000000  0.6059820000000 1.0
C      1  0.5398450000000  0.5159590000000  0.3912650000000 1.0
C      1  0.5246440000000  0.5309410000000  0.6060230000000 1.0
C      1  0.5026950000000  0.5428420000000  0.3914730000000 1.0
C      1  0.4769620000000  0.5313570000000  0.6045120000000 1.0
C      1  0.4640480000000  0.5112210000000  0.3941440000000 1.0
C      1  0.4591050000000  0.4873720000000  0.6073740000000 1.0
C      1  0.6016050000000  0.4482160000000  0.4845930000000 1.0
C      1  0.6120370000000  0.5134680000000  0.5110110000000 1.0
C      1  0.5818830000000  0.5769920000000  0.4872710000000 1.0
C      1  0.5193800000000  0.6073110000000  0.5146040000000 1.0
C      1  0.4516630000000  0.5996810000000  0.4877910000000 1.0
C      1  0.4024060000000  0.5529990000000  0.5114880000000 1.0
C      1  0.3903660000000  0.4860080000000  0.4877820000000 1.0
C      1  0.4183870000000  0.4240270000000  0.5135180000000 1.0
C      1  0.4791060000000  0.3894500000000  0.4914950000000 1.0
C      1  0.5524870000000  0.4058930000000  0.5147510000000 1.0
C      1  0.5102110000000  0.4295200000000  0.4958340000000 1.0
C      1  0.5521140000000  0.4517310000000  0.5014950000000 1.0
C      1  0.5724910000000  0.4893150000000  0.4932660000000 1.0
C      1  0.5652100000000  0.5323550000000  0.5044100000000 1.0
C      1  0.5336970000000  0.5621190000000  0.4932450000000 1.0
C      1  0.4902870000000  0.5695840000000  0.5031200000000 1.0
C      1  0.4505050000000  0.5491750000000  0.4946170000000 1.0
C      1  0.4305660000000  0.5110150000000  0.5074390000000 1.0
C      1  0.4382040000000  0.4687510000000  0.4972210000000 1.0
C      1  0.4672800000000  0.4367470000000  0.5078560000000 1.0
C      1  0.5250150000000  0.4243850000000  0.4331360000000 1.0
C      1  0.5630040000000  0.4538890000000  0.5679510000000 1.0
C      1  0.5759480000000  0.5022260000000  0.4307590000000 1.0
C      1  0.5645120000000  0.5452950000000  0.5677890000000 1.0
C      1  0.5252870000000  0.5815990000000  0.4301650000000 1.0
C      1  0.4752530000000  0.5737340000000  0.5673590000000 1.0
C      1  0.4392250000000  0.5420070000000  0.4311880000000 1.0
C      1  0.4168170000000  0.4997450000000  0.5696950000000 1.0
C      1  0.4382360000000  0.4507180000000  0.4325490000000 1.0
C      1  0.4729840000000  0.4224380000000  0.5700580000000 1.0
C      1  0.4092800000000  0.5715440000000  0.5329350000000 1.0
C      1  0.3849660000000  0.5046360000000  0.4658860000000 1.0
C      1  0.4023590000000  0.4357590000000  0.5345720000000 1.0
C      1  0.4592230000000  0.3899230000000  0.4694750000000 1.0
C      1  0.5498110000000  0.4138220000000  0.5433660000000 1.0
C      1  0.5930670000000  0.4291690000000  0.4636340000000 1.0
C      1  0.6157950000000  0.4922040000000  0.5321550000000 1.0
C      1  0.5967060000000  0.5648240000000  0.4651620000000 1.0
C      1  0.5342940000000  0.5984590000000  0.5383070000000 1.0
C      1  0.4674370000000  0.6113420000000  0.4664550000000 1.0
C      1  0.5628300000000  0.5938360000000  0.5442830000000 1.0
C      1  0.4938200000000  0.6095450000000  0.4551930000000 1.0
C      1  0.4318240000000  0.5837250000000  0.5460520000000 1.0
C      1  0.3962350000000  0.5274490000000  0.4521080000000 1.0
C      1  0.3970270000000  0.4613740000000  0.5462760000000 1.0
C      1  0.4401690000000  0.4071100000000  0.4558740000000 1.0
C      1  0.4965460000000  0.3861340000000  0.5515170000000 1.0
C      1  0.5691210000000  0.4157260000000  0.4538910000000 1.0
C      1  0.6050720000000  0.4684200000000  0.5465810000000 1.0
C      1  0.6011560000000  0.5396510000000  0.4516530000000 1.0
C      1  0.4859330000000  0.4522110000000  0.5251960000000 1.0
C      1  0.5156420000000  0.4523140000000  0.4777960000000 1.0
C      1  0.5441820000000  0.4713440000000  0.5210560000000 1.0
C      1  0.5515320000000  0.5015530000000  0.4767730000000 1.0
C      1  0.5427560000000  0.5305850000000  0.5226960000000 1.0
C      1  0.5162200000000  0.5459200000000  0.4758450000000 1.0
C      1  0.4847950000000  0.5482890000000  0.5214400000000 1.0
C      1  0.4584560000000  0.5270850000000  0.4778250000000 1.0
C      1  0.4521620000000  0.5002300000000  0.5255590000000 1.0
C      1  0.4616480000000  0.4694750000000  0.4789550000000 1.0
C      1  0.4371020000000  0.5081400000000  0.4786980000000 1.0
C      1  0.4449620000000  0.4722110000000  0.5259090000000 1.0
C      1  0.4715320000000  0.4423460000000  0.4793000000000 1.0
C      1  0.5093600000000  0.4357220000000  0.5238870000000 1.0
C      1  0.5441200000000  0.4563860000000  0.4750060000000 1.0
C      1  0.5659450000000  0.4898450000000  0.5218600000000 1.0
C      1  0.5568890000000  0.5298190000000  0.4762860000000 1.0
C      1  0.5302580000000  0.5558360000000  0.5214190000000 1.0
C      1  0.4922600000000  0.5617950000000  0.4753920000000 1.0
C      1  0.4563680000000  0.5439330000000  0.5226140000000 1.0
C      1  0.4147250000000  0.4221050000000  0.4624580000000 1.0
C      1  0.4689830000000  0.3837760000000  0.5424060000000 1.0
C      1  0.5483180000000  0.3958810000000  0.4649580000000 1.0
C      1  0.5976110000000  0.4407660000000  0.5379740000000 1.0
C      1  0.6143710000000  0.5134860000000  0.4580860000000 1.0
C      1  0.5856430000000  0.5773760000000  0.5386220000000 1.0
C      1  0.5224190000000  0.6151780000000  0.4640970000000 1.0
C      1  0.4523590000000  0.6045160000000  0.5391190000000 1.0
C      1  0.4021900000000  0.5559260000000  0.4590930000000 1.0
C      1  0.3831780000000  0.4870260000000  0.5386150000000 1.0
C      1  0.4443620000000  0.4612140000000  0.5533750000000 1.0
C      1  0.4784490000000  0.4328200000000  0.4515250000000 1.0
C      1  0.5228940000000  0.4288140000000  0.5505710000000 1.0
C      1  0.5539560000000  0.4598340000000  0.4469270000000 1.0
C      1  0.5709940000000  0.4980610000000  0.5502790000000 1.0
C      1  0.5537990000000  0.5422140000000  0.4478650000000 1.0
C      1  0.5237670000000  0.5704310000000  0.5486970000000 1.0
C      1  0.4826900000000  0.5640440000000  0.4479120000000 1.0
C      1  0.4457590000000  0.5382450000000  0.5506820000000 1.0
C      1  0.4315370000000  0.4980070000000  0.4507400000000 1.0
C      1  0.5094940000000  0.5200530000000  0.4641950000000 1.0
C      1  0.4971010000000  0.5300360000000  0.5427070000000 1.0
C      1  0.4787450000000  0.5173540000000  0.4576920000000 1.0
C      1  0.4797720000000  0.5031270000000  0.5345950000000 1.0
C      1  0.4753330000000  0.4841140000000  0.4552290000000 1.0
C      1  0.4946610000000  0.4786210000000  0.5324750000000 1.0
C      1  0.5053100000000  0.4701900000000  0.4548480000000 1.0
C      1  0.5237720000000  0.4800660000000  0.5395500000000 1.0
C      1  0.5287750000000  0.4963820000000  0.4572430000000 1.0
C      1  0.5286770000000  0.5152260000000  0.5443560000000 1.0
C      1  0.4983060000000  0.4554250000000  0.4059420000000 1.0
C      1  0.5179990000000  0.4684060000000  0.5886370000000 1.0
C      1  0.5312390000000  0.4927850000000  0.4103510000000 1.0
C      1  0.5423870000000  0.5113720000000  0.5933220000000 1.0
C      1  0.5305150000000  0.5420590000000  0.4022050000000 1.0
C      1  0.5016230000000  0.5416350000000  0.5919230000000 1.0
C      1  0.4838710000000  0.5275530000000  0.4108210000000 1.0
C      1  0.4570590000000  0.5132080000000  0.5928990000000 1.0
C      1  0.4585190000000  0.4853930000000  0.4060860000000 1.0
C      1  0.4691600000000  0.4623750000000  0.5962270000000 1.0
C      1  0.4202970000000  0.5196100000000  0.4361260000000 1.0
C      1  0.4193920000000  0.4709820000000  0.5633470000000 1.0
C      1  0.4542690000000  0.4267000000000  0.4384270000000 1.0
C      1  0.5010120000000  0.4125690000000  0.5638190000000 1.0
C      1  0.5528620000000  0.4337180000000  0.4362940000000 1.0
C      1  0.5819330000000  0.4756650000000  0.5640710000000 1.0
C      1  0.5774350000000  0.5313120000000  0.4357330000000 1.0
C      1  0.5462460000000  0.5660380000000  0.5680340000000 1.0
C      1  0.4968530000000  0.5860200000000  0.4368980000000 1.0
C      1  0.4476850000000  0.5643910000000  0.5621690000000 1.0
C      1  0.4120990000000  0.4418380000000  0.4407670000000 1.0
C      1  0.4556690000000  0.4001370000000  0.5627330000000 1.0
C      1  0.5266290000000  0.3979070000000  0.4446510000000 1.0
C      1  0.5731490000000  0.4301770000000  0.5535510000000 1.0
C      1  0.6030070000000  0.4946710000000  0.4379120000000 1.0
C      1  0.5891300000000  0.5565010000000  0.5588310000000 1.0
C      1  0.5379380000000  0.6049130000000  0.4413110000000 1.0
C      1  0.4729220000000  0.6015330000000  0.5599880000000 1.0
C      1  0.4224590000000  0.5643740000000  0.4390680000000 1.0
C      1  0.3900520000000  0.5051660000000  0.5606690000000 1.0
C      1  0.5010610000000  0.4454500000000  0.4345480000000 1.0
C      1  0.5318330000000  0.4558950000000  0.5657210000000 1.0
C      1  0.5484790000000  0.4868890000000  0.4338320000000 1.0
C      1  0.5522830000000  0.5166700000000  0.5654280000000 1.0
C      1  0.5368450000000  0.5555550000000  0.4272400000000 1.0
C      1  0.5000470000000  0.5543980000000  0.5643850000000 1.0
C      1  0.4706460000000  0.5390010000000  0.4347740000000 1.0
C      1  0.4394560000000  0.5173350000000  0.5705680000000 1.0
C      1  0.4506960000000  0.4797830000000  0.4348870000000 1.0
C      1  0.4619700000000  0.4485700000000  0.5725180000000 1.0
C      1  0.5371570000000  0.3933110000000  0.4922660000000 1.0
C      1  0.5949680000000  0.4353420000000  0.5100430000000 1.0
C      1  0.6151050000000  0.5013830000000  0.4840170000000 1.0
C      1  0.5926870000000  0.5670880000000  0.5127720000000 1.0
C      1  0.5344970000000  0.6077710000000  0.4893680000000 1.0
C      1  0.4641470000000  0.6060050000000  0.5132800000000 1.0
C      1  0.4090360000000  0.5648590000000  0.4853660000000 1.0
C      1  0.3868910000000  0.4996900000000  0.5132990000000 1.0
C      1  0.4095090000000  0.4340950000000  0.4877790000000 1.0
C      1  0.4626830000000  0.3920290000000  0.5160590000000 1.0
C      1  0.5040560000000  0.5052710000000  0.4194870000000 1.0
C      1  0.5008700000000  0.4910920000000  0.5757280000000 1.0
END
