TITL C-3201376-6384-682 0.0268978879952202 125000 -813.821320888999 0 0 134 (C1) n - 1
REM
REM in /home/nfs/bkarasulu/CARBON/AIRSS/Generating-Clusters/LCBOP/Higher-Symm/SD-CG/FIRE-CG
REM
REM
REM
REM
REM
REM ./C.cell (b20cbc046b6831c77cfcea5457e17084)
REM AIRSS Version 0.9.1 bugfix July 2018 build 013d7b7c2542+ Fri, 06 Jul 2018 19:26:36 +0100
REM compiler GCC version 9.2.1 20190827 (Red Hat 9.2.1-1)
REM options -cpp -mtune=generic -march=x86-64 -g -O0 -fpre-include=/usr/include/finclude/math-vector-fortran.h
REM seed 1962580505 322584171 268127298 244319594 1076820772 -223736268 2108018789 -720474379 1466040994 949438381 278501958 -1922954023 -183878057 1297099435 -2066381642 -842853196 -293820263 600795705 396218009 -422904792 1211494647 2132813485 2074889318 -465694930 1518123327 736475040 -1272940323 -1653801711 323574650 1462479725 692986888 1628393084 1171880689
REM
CELL 1.54180   50.00000   50.00000   50.00000   90.00000   90.00000   90.00000
LATT -1
SFAC C  
C      1  0.3853030000000  0.5165810000000  0.5817200000000 1.0
C      1  0.4400990000000  0.5228060000000  0.4249660000000 1.0
C      1  0.5979850000000  0.5824790000000  0.5067890000000 1.0
C      1  0.5945410000000  0.5696170000000  0.4598470000000 1.0
C      1  0.4772510000000  0.5315560000000  0.5990680000000 1.0
C      1  0.5023520000000  0.5380040000000  0.4166170000000 1.0
C      1  0.5945380000000  0.4936560000000  0.5516720000000 1.0
C      1  0.5519510000000  0.4927450000000  0.4234690000000 1.0
C      1  0.5575940000000  0.4068140000000  0.5141300000000 1.0
C      1  0.5437330000000  0.3974260000000  0.4680190000000 1.0
C      1  0.5749890000000  0.4240210000000  0.5252810000000 1.0
C      1  0.5470950000000  0.4217270000000  0.4541490000000 1.0
C      1  0.4536910000000  0.4549540000000  0.6071490000000 1.0
C      1  0.4788010000000  0.4625010000000  0.4130200000000 1.0
C      1  0.4839240000000  0.4125240000000  0.4302680000000 1.0
C      1  0.4767430000000  0.4144950000000  0.5824850000000 1.0
C      1  0.4584520000000  0.4791170000000  0.5644450000000 1.0
C      1  0.4744350000000  0.4870570000000  0.4609660000000 1.0
C      1  0.4763860000000  0.4590840000000  0.4752550000000 1.0
C      1  0.4600220000000  0.4619560000000  0.5397940000000 1.0
C      1  0.3997120000000  0.4985590000000  0.5283240000000 1.0
C      1  0.4040280000000  0.5062740000000  0.4813810000000 1.0
C      1  0.5229590000000  0.5344510000000  0.4952430000000 1.0
C      1  0.5220910000000  0.5203270000000  0.5504750000000 1.0
C      1  0.4961400000000  0.5093510000000  0.4567380000000 1.0
C      1  0.4865530000000  0.4937540000000  0.5701530000000 1.0
C      1  0.5238420000000  0.5852670000000  0.4613360000000 1.0
C      1  0.4146250000000  0.5760170000000  0.6209210000000 1.0
C      1  0.4144770000000  0.5843720000000  0.5956230000000 1.0
C      1  0.4976230000000  0.5894540000000  0.4589530000000 1.0
C      1  0.3781670000000  0.5129730000000  0.4744560000000 1.0
C      1  0.3718130000000  0.4970970000000  0.5285900000000 1.0
C      1  0.4272260000000  0.5005100000000  0.4381280000000 1.0
C      1  0.4015310000000  0.4940520000000  0.5756310000000 1.0
C      1  0.4266740000000  0.5093620000000  0.4650680000000 1.0
C      1  0.4149080000000  0.5024500000000  0.5513170000000 1.0
C      1  0.4523740000000  0.5616210000000  0.4568810000000 1.0
C      1  0.3994970000000  0.5597920000000  0.5525830000000 1.0
C      1  0.4731650000000  0.4142950000000  0.5303480000000 1.0
C      1  0.4700520000000  0.4118830000000  0.4791490000000 1.0
C      1  0.4535640000000  0.4388560000000  0.4776130000000 1.0
C      1  0.4553280000000  0.4364170000000  0.5286340000000 1.0
C      1  0.5139660000000  0.4931260000000  0.5608170000000 1.0
C      1  0.5191530000000  0.5131400000000  0.4739410000000 1.0
C      1  0.4604920000000  0.5268890000000  0.5496480000000 1.0
C      1  0.4649280000000  0.5287490000000  0.4961180000000 1.0
C      1  0.5252910000000  0.4752590000000  0.5404230000000 1.0
C      1  0.5350560000000  0.4901150000000  0.4878180000000 1.0
C      1  0.4400950000000  0.4660380000000  0.5847680000000 1.0
C      1  0.4647210000000  0.4757770000000  0.4335970000000 1.0
C      1  0.4020270000000  0.4489590000000  0.5573310000000 1.0
C      1  0.4298360000000  0.4514330000000  0.4593120000000 1.0
C      1  0.5380990000000  0.4607140000000  0.4810200000000 1.0
C      1  0.5286420000000  0.4491710000000  0.5285630000000 1.0
C      1  0.4780950000000  0.5226900000000  0.5725360000000 1.0
C      1  0.4867620000000  0.5302610000000  0.4385490000000 1.0
C      1  0.4205580000000  0.5341140000000  0.6510910000000 1.0
C      1  0.5086560000000  0.5328080000000  0.3912920000000 1.0
C      1  0.4100300000000  0.5796170000000  0.5697170000000 1.0
C      1  0.4720500000000  0.5819500000000  0.4579970000000 1.0
C      1  0.5967930000000  0.5454100000000  0.5419830000000 1.0
C      1  0.5633170000000  0.5436270000000  0.4312060000000 1.0
C      1  0.3548060000000  0.5205770000000  0.4657590000000 1.0
C      1  0.3460590000000  0.4933200000000  0.5299870000000 1.0
C      1  0.4569790000000  0.4727020000000  0.6288320000000 1.0
C      1  0.4853000000000  0.4748910000000  0.3888740000000 1.0
C      1  0.4531820000000  0.5048360000000  0.4796840000000 1.0
C      1  0.4423230000000  0.5047730000000  0.5533870000000 1.0
C      1  0.5065420000000  0.5142840000000  0.3722890000000 1.0
C      1  0.4348070000000  0.5115180000000  0.6503000000000 1.0
C      1  0.4798490000000  0.4070780000000  0.5567940000000 1.0
C      1  0.4779190000000  0.4019320000000  0.4540700000000 1.0
C      1  0.6081260000000  0.4506460000000  0.5030450000000 1.0
C      1  0.5836180000000  0.4528050000000  0.4625130000000 1.0
C      1  0.5871530000000  0.5600860000000  0.5198530000000 1.0
C      1  0.5678700000000  0.5632440000000  0.4509960000000 1.0
C      1  0.3849620000000  0.5395450000000  0.5668070000000 1.0
C      1  0.4590940000000  0.5395420000000  0.4389730000000 1.0
C      1  0.4058620000000  0.4479250000000  0.4768090000000 1.0
C      1  0.3993320000000  0.4429770000000  0.5308410000000 1.0
C      1  0.4065430000000  0.5600850000000  0.5247970000000 1.0
C      1  0.4314700000000  0.5625060000000  0.4766830000000 1.0
C      1  0.4359410000000  0.4723820000000  0.4384110000000 1.0
C      1  0.4116930000000  0.4668420000000  0.5780110000000 1.0
C      1  0.6602340000000  0.5113660000000  0.4863590000000 1.0
C      1  0.6117240000000  0.5258940000000  0.4438040000000 1.0
C      1  0.4847550000000  0.4352360000000  0.4163710000000 1.0
C      1  0.4675560000000  0.4309570000000  0.6016760000000 1.0
C      1  0.5540330000000  0.4505230000000  0.4575840000000 1.0
C      1  0.5919140000000  0.4466980000000  0.5257430000000 1.0
C      1  0.4558770000000  0.5001150000000  0.6356250000000 1.0
C      1  0.4968170000000  0.4884930000000  0.3672310000000 1.0
C      1  0.5979200000000  0.5202720000000  0.5515720000000 1.0
C      1  0.5578260000000  0.5187990000000  0.4229620000000 1.0
C      1  0.5488330000000  0.4682720000000  0.4338100000000 1.0
C      1  0.5910430000000  0.4681620000000  0.5440870000000 1.0
C      1  0.5456890000000  0.5692650000000  0.4682340000000 1.0
C      1  0.4148090000000  0.5578180000000  0.6403570000000 1.0
C      1  0.6141900000000  0.4996660000000  0.4484440000000 1.0
C      1  0.6470070000000  0.4886040000000  0.4811190000000 1.0
C      1  0.4722050000000  0.5187510000000  0.6220790000000 1.0
C      1  0.4984920000000  0.4771520000000  0.3424710000000 1.0
C      1  0.6578350000000  0.5375990000000  0.4812810000000 1.0
C      1  0.6160020000000  0.5512880000000  0.4552990000000 1.0
C      1  0.6035530000000  0.6165870000000  0.4719090000000 1.0
C      1  0.5443570000000  0.5531020000000  0.4916350000000 1.0
C      1  0.4834860000000  0.4049650000000  0.5046900000000 1.0
C      1  0.4652860000000  0.5353380000000  0.5228020000000 1.0
C      1  0.6077940000000  0.6415070000000  0.4640040000000 1.0
C      1  0.6407810000000  0.5540420000000  0.4686390000000 1.0
C      1  0.5634460000000  0.4981600000000  0.4910310000000 1.0
C      1  0.6162720000000  0.6913310000000  0.4480260000000 1.0
C      1  0.4177440000000  0.5625120000000  0.5001680000000 1.0
C      1  0.4108930000000  0.4413420000000  0.5048640000000 1.0
C      1  0.6204420000000  0.7158360000000  0.4401670000000 1.0
C      1  0.5187330000000  0.4919440000000  0.5151240000000 1.0
C      1  0.4645620000000  0.4810900000000  0.5192640000000 1.0
C      1  0.4426090000000  0.4892650000000  0.5035290000000 1.0
C      1  0.5374860000000  0.3982480000000  0.4960310000000 1.0
C      1  0.5690890000000  0.5454380000000  0.5037550000000 1.0
C      1  0.4142820000000  0.4947340000000  0.5052800000000 1.0
C      1  0.6064840000000  0.4603320000000  0.4768130000000 1.0
C      1  0.5102750000000  0.3955090000000  0.5034540000000 1.0
C      1  0.6120320000000  0.6664160000000  0.4560170000000 1.0
C      1  0.5463320000000  0.3729720000000  0.4548890000000 1.0
C      1  0.4393590000000  0.4369380000000  0.5051550000000 1.0
C      1  0.6233370000000  0.4811560000000  0.4676820000000 1.0
C      1  0.5776160000000  0.5195910000000  0.4971520000000 1.0
C      1  0.4909590000000  0.4813480000000  0.5102390000000 1.0
C      1  0.5478500000000  0.3500290000000  0.4426230000000 1.0
C      1  0.5215980000000  0.4469770000000  0.5003000000000 1.0
C      1  0.4958250000000  0.4573510000000  0.4949220000000 1.0
C      1  0.5988560000000  0.5902300000000  0.4794980000000 1.0
C      1  0.5203720000000  0.5219410000000  0.5216470000000 1.0
END
