TITL C-3201374-830-534 -8.75053143610651e-07 125000 -379.478868771724 0 0 65 (C2) n - 1
REM
REM in /home/nfs/bkarasulu/CARBON/AIRSS/Generating-Clusters/LCBOP/Higher-Symm/SD-CG/FIRE-CG
REM
REM
REM
REM
REM
REM ./C.cell (b20cbc046b6831c77cfcea5457e17084)
REM AIRSS Version 0.9.1 bugfix July 2018 build 013d7b7c2542+ Fri, 06 Jul 2018 19:26:36 +0100
REM compiler GCC version 9.2.1 20190827 (Red Hat 9.2.1-1)
REM options -cpp -mtune=generic -march=x86-64 -g -O0 -fpre-include=/usr/include/finclude/math-vector-fortran.h
REM seed 1162161179 -1697348672 199401658 -1990066048 1169525176 -1296700646 829815379 -139770780 1730468616 1523950372 905131965 -205040647 1057151939 -2106809472 531349257 -153393598 1491524425 -1279645588 -1230157769 -1448283679 664801701 -753834876 -1109180418 -1664244349 1914056928 -2081378849 -905152573 293534552 833610449 -474588625 -1222173494 -2097884369 -317467183
REM
CELL 1.54180   50.00000   50.00000   50.00000   90.00000   90.00000   90.00000
LATT -1
SFAC C  
C      1  0.4768210000000  0.5046340000000  0.4865580000000 1.0
C      1  0.4768220000000  0.4965370000000  0.5141670000000 1.0
C      1  0.5055610000000  0.5830110000000  0.6030190000000 1.0
C      1  0.5055710000000  0.4181630000000  0.3977060000000 1.0
C      1  0.4446160000000  0.4640100000000  0.5327080000000 1.0
C      1  0.4446110000000  0.5371560000000  0.4680180000000 1.0
C      1  0.5887750000000  0.5006910000000  0.5355570000000 1.0
C      1  0.5887740000000  0.5004960000000  0.4651670000000 1.0
C      1  0.5113340000000  0.4650340000000  0.4073270000000 1.0
C      1  0.5113300000000  0.5361410000000  0.5933980000000 1.0
C      1  0.5046730000000  0.4311660000000  0.4906350000000 1.0
C      1  0.5046640000000  0.5700090000000  0.5100890000000 1.0
C      1  0.4676860000000  0.4858140000000  0.4658010000000 1.0
C      1  0.4676850000000  0.5153550000000  0.5349240000000 1.0
C      1  0.4926480000000  0.5881990000000  0.4933400000000 1.0
C      1  0.4926600000000  0.4129740000000  0.5073840000000 1.0
C      1  0.5772670000000  0.4649980000000  0.5072200000000 1.0
C      1  0.5772620000000  0.5361870000000  0.4935040000000 1.0
C      1  0.5558340000000  0.4581750000000  0.4454550000000 1.0
C      1  0.5558290000000  0.5430060000000  0.5552690000000 1.0
C      1  0.5841400000000  0.5278080000000  0.4664240000000 1.0
C      1  0.5841440000000  0.4733770000000  0.5342990000000 1.0
C      1  0.4227530000000  0.4773780000000  0.5174620000000 1.0
C      1  0.4227490000000  0.5237850000000  0.4832640000000 1.0
C      1  0.4222680000000  0.4724030000000  0.4893660000000 1.0
C      1  0.4222640000000  0.5287600000000  0.5113600000000 1.0
C      1  0.4628440000000  0.5324340000000  0.4217770000000 1.0
C      1  0.4628500000000  0.4687340000000  0.5789480000000 1.0
C      1  0.5563870000000  0.5542030000000  0.4989430000000 1.0
C      1  0.5563950000000  0.4469790000000  0.5017810000000 1.0
C      1  0.4893280000000  0.4700810000000  0.5826760000000 1.0
C      1  0.4893220000000  0.5310920000000  0.4180490000000 1.0
C      1  0.4461760000000  0.5234010000000  0.4420590000000 1.0
C      1  0.4461800000000  0.4777650000000  0.5586670000000 1.0
C      1  0.5101200000000  0.5142650000000  0.4264210000000 1.0
C      1  0.5101220000000  0.4869100000000  0.5743040000000 1.0
C      1  0.5316340000000  0.5628740000000  0.5048720000000 1.0
C      1  0.5316430000000  0.4383040000000  0.4958530000000 1.0
C      1  0.5048780000000  0.5622180000000  0.5853230000000 1.0
C      1  0.5048860000000  0.4389570000000  0.4154020000000 1.0
C      1  0.5305790000000  0.4974610000000  0.4721880000000 1.0
C      1  0.5305790000000  0.5037170000000  0.5285360000000 1.0
C      1  0.4218090000000  0.5053570000000  0.5282440000000 1.0
C      1  0.4218090000000  0.4958060000000  0.4724820000000 1.0
C      1  0.5855910000000  0.4882040000000  0.4911180000000 1.0
C      1  0.5855890000000  0.5129820000000  0.5096060000000 1.0
C      1  0.4977430000000  0.5663000000000  0.5585050000000 1.0
C      1  0.4977520000000  0.4348740000000  0.4422200000000 1.0
C      1  0.5148280000000  0.5100710000000  0.5895020000000 1.0
C      1  0.5148280000000  0.4911060000000  0.4112230000000 1.0
C      1  0.4436780000000  0.4960460000000  0.4515550000000 1.0
C      1  0.4436780000000  0.5051200000000  0.5491700000000 1.0
C      1  0.4894660000000  0.4410790000000  0.4683190000000 1.0
C      1  0.4894580000000  0.5600930000000  0.5324060000000 1.0
C      1  0.5202920000000  0.4859220000000  0.5479370000000 1.0
C      1  0.5202890000000  0.5152550000000  0.4527870000000 1.0
C      1  0.4664180000000  0.5435660000000  0.5297340000000 1.0
C      1  0.4664230000000  0.4576030000000  0.4709910000000 1.0
C      1  0.4703260000000  0.4690410000000  0.5202180000000 1.0
C      1  0.4703210000000  0.5321290000000  0.4805070000000 1.0
C      1  0.5428440000000  0.5263880000000  0.5398410000000 1.0
C      1  0.5428480000000  0.4747920000000  0.4608840000000 1.0
C      1  0.4398060000000  0.5499620000000  0.5208210000000 1.0
C      1  0.4398130000000  0.4512040000000  0.4799040000000 1.0
C      1  0.5288330000000  0.5005890000000  0.5003620000000 1.0
END
