TITL C-3201372-1405-1886 0.000114106937753439 125000 -483.043610423512 0 0 81 (Cs) n - 1
REM
REM in /home/nfs/bkarasulu/CARBON/AIRSS/Generating-Clusters/LCBOP/Higher-Symm/SD-CG/FIRE-CG
REM
REM
REM
REM
REM
REM ./C.cell (b20cbc046b6831c77cfcea5457e17084)
REM AIRSS Version 0.9.1 bugfix July 2018 build 013d7b7c2542+ Fri, 06 Jul 2018 19:26:36 +0100
REM compiler GCC version 9.2.1 20190827 (Red Hat 9.2.1-1)
REM options -cpp -mtune=generic -march=x86-64 -g -O0 -fpre-include=/usr/include/finclude/math-vector-fortran.h
REM seed 972559184 -766134656 -120347846 -1508864896 1459389996 2000715 504863691 -1553849255 -647059488 -108641872 105356921 612078297 -953666774 -935400734 1671567196 -1610189463 -1070116616 116449965 1081380386 865936868 -1399350525 -1663927363 1185042756 2086506821 1534327543 313919033 -1661171439 -1842603473 -890706685 -250558444 -345257074 -1333634634 -755516798
REM
CELL 1.54180   50.00000   50.00000   50.00000   90.00000   90.00000   90.00000
LATT -1
SFAC C  
C      1  0.5385100000000  0.4444560000000  0.4852230000000 1.0
C      1  0.5494820000000  0.5622180000000  0.5146610000000 1.0
C      1  0.4554780000000  0.4308860000000  0.4845750000000 1.0
C      1  0.4571360000000  0.5677020000000  0.5144270000000 1.0
C      1  0.5385090000000  0.4444520000000  0.5141880000000 1.0
C      1  0.5494830000000  0.5622210000000  0.4847820000000 1.0
C      1  0.4554770000000  0.4308820000000  0.5148280000000 1.0
C      1  0.4571370000000  0.5677060000000  0.4850110000000 1.0
C      1  0.4857020000000  0.5954020000000  0.4538060000000 1.0
C      1  0.4866950000000  0.4041970000000  0.5455060000000 1.0
C      1  0.5137420000000  0.5897230000000  0.4562570000000 1.0
C      1  0.5099470000000  0.4201680000000  0.5441810000000 1.0
C      1  0.4856990000000  0.5953900000000  0.5456410000000 1.0
C      1  0.4866980000000  0.4042090000000  0.4538920000000 1.0
C      1  0.5137390000000  0.5897120000000  0.5431910000000 1.0
C      1  0.5099500000000  0.4201800000000  0.4552220000000 1.0
C      1  0.5314590000000  0.6007380000000  0.5609590000000 1.0
C      1  0.5370820000000  0.4230990000000  0.4445240000000 1.0
C      1  0.4750260000000  0.6026410000000  0.5697980000000 1.0
C      1  0.4811620000000  0.3882800000000  0.4324410000000 1.0
C      1  0.5314630000000  0.6007540000000  0.4384930000000 1.0
C      1  0.5370780000000  0.4230840000000  0.5548810000000 1.0
C      1  0.4750310000000  0.6026590000000  0.4296500000000 1.0
C      1  0.4811570000000  0.3882620000000  0.5669520000000 1.0
C      1  0.4932230000000  0.5259910000000  0.5562600000000 1.0
C      1  0.4901660000000  0.4721560000000  0.4369260000000 1.0
C      1  0.5199750000000  0.5249650000000  0.5564130000000 1.0
C      1  0.5171320000000  0.4733460000000  0.4348620000000 1.0
C      1  0.4932270000000  0.5260060000000  0.4431700000000 1.0
C      1  0.4901620000000  0.4721400000000  0.5624900000000 1.0
C      1  0.5199790000000  0.5249800000000  0.4430190000000 1.0
C      1  0.5171270000000  0.4733290000000  0.5645550000000 1.0
C      1  0.4669690000000  0.5240240000000  0.4533570000000 1.0
C      1  0.4648920000000  0.4736650000000  0.5492120000000 1.0
C      1  0.5462390000000  0.5208710000000  0.4526970000000 1.0
C      1  0.5438650000000  0.4716690000000  0.5540540000000 1.0
C      1  0.4669650000000  0.5240120000000  0.5460700000000 1.0
C      1  0.4648950000000  0.4736780000000  0.4502020000000 1.0
C      1  0.5462360000000  0.5208590000000  0.5467350000000 1.0
C      1  0.5438690000000  0.4716830000000  0.4453650000000 1.0
C      1  0.4689900000000  0.4058130000000  0.5230730000000 1.0
C      1  0.4689800000000  0.5930950000000  0.4765170000000 1.0
C      1  0.5103800000000  0.4404270000000  0.5235830000000 1.0
C      1  0.5231310000000  0.5732710000000  0.4770070000000 1.0
C      1  0.4689910000000  0.4058190000000  0.4763240000000 1.0
C      1  0.4689790000000  0.5930890000000  0.5229290000000 1.0
C      1  0.5103820000000  0.4404330000000  0.4758250000000 1.0
C      1  0.5231290000000  0.5732650000000  0.5224370000000 1.0
C      1  0.5506630000000  0.4462850000000  0.5413250000000 1.0
C      1  0.5583240000000  0.5416260000000  0.4678320000000 1.0
C      1  0.4538230000000  0.4517710000000  0.5340950000000 1.0
C      1  0.4560340000000  0.5459450000000  0.4675260000000 1.0
C      1  0.5506660000000  0.4462960000000  0.4580870000000 1.0
C      1  0.5583220000000  0.5416180000000  0.5316060000000 1.0
C      1  0.4538250000000  0.4517800000000  0.4653130000000 1.0
C      1  0.4560310000000  0.5459370000000  0.5319060000000 1.0
C      1  0.4524570000000  0.4992970000000  0.5457110000000 1.0
C      1  0.5586710000000  0.4951340000000  0.4517850000000 1.0
C      1  0.5586670000000  0.4951210000000  0.5476410000000 1.0
C      1  0.4524600000000  0.4993090000000  0.4537090000000 1.0
C      1  0.4115620000000  0.4999320000000  0.5130310000000 1.0
C      1  0.4115630000000  0.4999360000000  0.4863870000000 1.0
C      1  0.5978320000000  0.4904560000000  0.5130270000000 1.0
C      1  0.5978320000000  0.4904590000000  0.4864000000000 1.0
C      1  0.4263170000000  0.4997450000000  0.5352280000000 1.0
C      1  0.5839450000000  0.4922400000000  0.4637420000000 1.0
C      1  0.4263190000000  0.4997540000000  0.4641910000000 1.0
C      1  0.5839420000000  0.4922310000000  0.5356850000000 1.0
C      1  0.4772170000000  0.3619790000000  0.4996930000000 1.0
C      1  0.4751150000000  0.6375770000000  0.4997290000000 1.0
C      1  0.4885890000000  0.3106630000000  0.4996870000000 1.0
C      1  0.4853810000000  0.6891250000000  0.4997360000000 1.0
C      1  0.4996240000000  0.5122620000000  0.4997130000000 1.0
C      1  0.5071760000000  0.5646310000000  0.4997200000000 1.0
C      1  0.4802010000000  0.6635750000000  0.4997320000000 1.0
C      1  0.4829150000000  0.3361080000000  0.4996900000000 1.0
C      1  0.4722130000000  0.3891730000000  0.4996960000000 1.0
C      1  0.4713500000000  0.6102120000000  0.4997250000000 1.0
C      1  0.4932530000000  0.4598280000000  0.5130760000000 1.0
C      1  0.4932540000000  0.4598310000000  0.4863360000000 1.0
C      1  0.4980690000000  0.5382570000000  0.4997170000000 1.0
END
