TITL C-3201379-3821-1200 -801.623307107903 125000 -1184.01067514853 0 0 192 (C1) n - 1
REM
REM in /home/nfs/bkarasulu/CARBON/AIRSS/Generating-Clusters/LCBOP/Higher-Symm/SD-CG/FIRE-CG
REM
REM
REM
REM
REM
REM ./C.cell (b20cbc046b6831c77cfcea5457e17084)
REM AIRSS Version 0.9.1 bugfix July 2018 build 013d7b7c2542+ Fri, 06 Jul 2018 19:26:36 +0100
REM compiler GCC version 9.2.1 20190827 (Red Hat 9.2.1-1)
REM options -cpp -mtune=generic -march=x86-64 -g -O0 -fpre-include=/usr/include/finclude/math-vector-fortran.h
REM seed 532707725 367632237 1665426468 1756975967 -1827186481 1531285291 -1360825185 185058214 -586805551 -479756694 771481660 1310950077 -260835800 -1698842057 890783098 -1900842593 -1792816861 1784539581 343008938 716074531 -929834941 -1543689893 1083309616 63127960 854981305 -976278407 1340307241 -658137381 -893183728 -1113637363 196617904 -66090299 -957901373
REM
CELL 1.54180   50.00000   50.00000   50.00000   90.00000   90.00000   90.00000
LATT -1
SFAC C  
C      1  0.4275400000000  0.5078310000000  0.5222640000000 1.0
C      1  0.4260830000000  0.4838140000000  0.5030750000000 1.0
C      1  0.4236090000000  0.4984780000000  0.4752500000000 1.0
C      1  0.5847390000000  0.3717500000000  0.3957050000000 1.0
C      1  0.5939460000000  0.6560750000000  0.4680210000000 1.0
C      1  0.5958150000000  0.4440520000000  0.6515150000000 1.0
C      1  0.5522130000000  0.4322260000000  0.5912990000000 1.0
C      1  0.5505120000000  0.4632950000000  0.4065920000000 1.0
C      1  0.5470210000000  0.6119820000000  0.5067850000000 1.0
C      1  0.4844340000000  0.4292900000000  0.4100420000000 1.0
C      1  0.4780890000000  0.6185560000000  0.4793140000000 1.0
C      1  0.4839320000000  0.4524710000000  0.6132980000000 1.0
C      1  0.5456930000000  0.3923590000000  0.5077810000000 1.0
C      1  0.5442100000000  0.5479620000000  0.4010920000000 1.0
C      1  0.5454520000000  0.5598270000000  0.5872720000000 1.0
C      1  0.5228480000000  0.3852970000000  0.4628480000000 1.0
C      1  0.5196800000000  0.5916170000000  0.4114690000000 1.0
C      1  0.5226000000000  0.5280070000000  0.6206050000000 1.0
C      1  0.4864300000000  0.4345600000000  0.4938830000000 1.0
C      1  0.4810900000000  0.5387200000000  0.4411670000000 1.0
C      1  0.4872710000000  0.5223520000000  0.5614970000000 1.0
C      1  0.4431500000000  0.5049610000000  0.4345570000000 1.0
C      1  0.4605410000000  0.5412650000000  0.5155070000000 1.0
C      1  0.4600860000000  0.4593120000000  0.5314230000000 1.0
C      1  0.3760490000000  0.4660650000000  0.5101870000000 1.0
C      1  0.3728320000000  0.5047280000000  0.4686170000000 1.0
C      1  0.3784620000000  0.5191600000000  0.5262410000000 1.0
C      1  0.5239110000000  0.4086530000000  0.5185640000000 1.0
C      1  0.5211460000000  0.5323860000000  0.4092440000000 1.0
C      1  0.5257920000000  0.5568150000000  0.5659640000000 1.0
C      1  0.4732480000000  0.5731780000000  0.3608220000000 1.0
C      1  0.4752750000000  0.5841540000000  0.6160780000000 1.0
C      1  0.4701060000000  0.3508440000000  0.5049960000000 1.0
C      1  0.4049620000000  0.4627760000000  0.5110860000000 1.0
C      1  0.4000470000000  0.5038320000000  0.4588720000000 1.0
C      1  0.4063620000000  0.5240650000000  0.5322270000000 1.0
C      1  0.5146360000000  0.5295370000000  0.5631620000000 1.0
C      1  0.5136130000000  0.4287830000000  0.4995940000000 1.0
C      1  0.5091570000000  0.5396280000000  0.4352620000000 1.0
C      1  0.6118360000000  0.6764780000000  0.4632470000000 1.0
C      1  0.6123700000000  0.4373200000000  0.6724850000000 1.0
C      1  0.5930870000000  0.3484770000000  0.3861520000000 1.0
C      1  0.5088260000000  0.4395830000000  0.3990240000000 1.0
C      1  0.5024410000000  0.6275170000000  0.4920270000000 1.0
C      1  0.5081440000000  0.4366450000000  0.6119310000000 1.0
C      1  0.3948680000000  0.4413550000000  0.4729160000000 1.0
C      1  0.3909720000000  0.5485480000000  0.4605890000000 1.0
C      1  0.3929990000000  0.5028660000000  0.5695560000000 1.0
C      1  0.4583790000000  0.5448290000000  0.3979660000000 1.0
C      1  0.4597790000000  0.5562040000000  0.5787520000000 1.0
C      1  0.4610470000000  0.3988040000000  0.5094900000000 1.0
C      1  0.4619020000000  0.4439070000000  0.3989080000000 1.0
C      1  0.4569830000000  0.6148870000000  0.4997250000000 1.0
C      1  0.4618790000000  0.4354720000000  0.6024630000000 1.0
C      1  0.4466390000000  0.5098800000000  0.4618260000000 1.0
C      1  0.4535930000000  0.5172840000000  0.5273780000000 1.0
C      1  0.4515120000000  0.4665850000000  0.5052360000000 1.0
C      1  0.4815700000000  0.5664730000000  0.4846660000000 1.0
C      1  0.4854290000000  0.4713340000000  0.5663790000000 1.0
C      1  0.4822410000000  0.4771400000000  0.4493360000000 1.0
C      1  0.3977050000000  0.5295490000000  0.4137500000000 1.0
C      1  0.4009680000000  0.5548150000000  0.5703880000000 1.0
C      1  0.4027110000000  0.4130030000000  0.5145220000000 1.0
C      1  0.3715480000000  0.5328530000000  0.4779810000000 1.0
C      1  0.3726590000000  0.4981440000000  0.5469500000000 1.0
C      1  0.3709940000000  0.4585200000000  0.4816230000000 1.0
C      1  0.6013690000000  0.3256130000000  0.3767560000000 1.0
C      1  0.6287520000000  0.6957920000000  0.4587740000000 1.0
C      1  0.6280390000000  0.4309960000000  0.6923260000000 1.0
C      1  0.5613640000000  0.5762770000000  0.4353350000000 1.0
C      1  0.5664480000000  0.5168300000000  0.5980350000000 1.0
C      1  0.5658110000000  0.4107620000000  0.4675420000000 1.0
C      1  0.3667400000000  0.5340730000000  0.5056960000000 1.0
C      1  0.3640400000000  0.4745040000000  0.5340850000000 1.0
C      1  0.3595340000000  0.4802200000000  0.4677650000000 1.0
C      1  0.5645970000000  0.6253080000000  0.4900980000000 1.0
C      1  0.5674290000000  0.4411460000000  0.6129350000000 1.0
C      1  0.5699240000000  0.4433550000000  0.4015570000000 1.0
C      1  0.4375530000000  0.5763820000000  0.4600390000000 1.0
C      1  0.4417250000000  0.4887090000000  0.5881160000000 1.0
C      1  0.4443910000000  0.4404840000000  0.4503760000000 1.0
C      1  0.4622400000000  0.5058210000000  0.6000080000000 1.0
C      1  0.4621890000000  0.4180630000000  0.4567950000000 1.0
C      1  0.4570830000000  0.5812300000000  0.4388280000000 1.0
C      1  0.5362390000000  0.4907560000000  0.4723420000000 1.0
C      1  0.5287300000000  0.5414720000000  0.5090590000000 1.0
C      1  0.5362790000000  0.4721220000000  0.5325840000000 1.0
C      1  0.5285380000000  0.4283470000000  0.4502990000000 1.0
C      1  0.5230940000000  0.5856970000000  0.4558210000000 1.0
C      1  0.5297860000000  0.4915730000000  0.5953300000000 1.0
C      1  0.5639070000000  0.6190890000000  0.4616820000000 1.0
C      1  0.5691680000000  0.4695720000000  0.6204290000000 1.0
C      1  0.5675570000000  0.4190820000000  0.4162740000000 1.0
C      1  0.5547870000000  0.5520410000000  0.4519570000000 1.0
C      1  0.5614830000000  0.5134490000000  0.5685310000000 1.0
C      1  0.5608880000000  0.4358740000000  0.4832110000000 1.0
C      1  0.5901860000000  0.4475160000000  0.3837130000000 1.0
C      1  0.5829610000000  0.6471150000000  0.4933930000000 1.0
C      1  0.5835570000000  0.4266440000000  0.6318270000000 1.0
C      1  0.4830660000000  0.4787510000000  0.5380390000000 1.0
C      1  0.4879570000000  0.4795410000000  0.4767740000000 1.0
C      1  0.4799000000000  0.5375100000000  0.4915590000000 1.0
C      1  0.4577290000000  0.4691750000000  0.5752470000000 1.0
C      1  0.4589220000000  0.4632690000000  0.4393530000000 1.0
C      1  0.4536940000000  0.5745990000000  0.4831890000000 1.0
C      1  0.3994200000000  0.5276690000000  0.4414340000000 1.0
C      1  0.4038460000000  0.5288090000000  0.5610310000000 1.0
C      1  0.4065700000000  0.4359700000000  0.4993130000000 1.0
C      1  0.5655180000000  0.5396280000000  0.4746310000000 1.0
C      1  0.5739940000000  0.5013760000000  0.5464670000000 1.0
C      1  0.5739400000000  0.4606040000000  0.4850060000000 1.0
C      1  0.4524350000000  0.4407200000000  0.5756980000000 1.0
C      1  0.4536430000000  0.4686730000000  0.4105720000000 1.0
C      1  0.4487140000000  0.5885580000000  0.5080370000000 1.0
C      1  0.4157300000000  0.4405910000000  0.4533780000000 1.0
C      1  0.4100360000000  0.5695570000000  0.4618010000000 1.0
C      1  0.4133890000000  0.4894210000000  0.5844460000000 1.0
C      1  0.5697800000000  0.3906610000000  0.5222990000000 1.0
C      1  0.5690840000000  0.5351480000000  0.3972790000000 1.0
C      1  0.5691340000000  0.5738060000000  0.5811360000000 1.0
C      1  0.5087270000000  0.4575290000000  0.5703440000000 1.0
C      1  0.5037040000000  0.4853280000000  0.4340600000000 1.0
C      1  0.5011670000000  0.5790680000000  0.4998620000000 1.0
C      1  0.5100210000000  0.5019960000000  0.6136360000000 1.0
C      1  0.5094200000000  0.4067140000000  0.4476260000000 1.0
C      1  0.5045620000000  0.5967540000000  0.4365880000000 1.0
C      1  0.5149150000000  0.4878790000000  0.3854940000000 1.0
C      1  0.5159350000000  0.6126270000000  0.5399910000000 1.0
C      1  0.5164520000000  0.4065760000000  0.5708310000000 1.0
C      1  0.5863350000000  0.4703310000000  0.6436750000000 1.0
C      1  0.5765160000000  0.3950060000000  0.4053470000000 1.0
C      1  0.5813420000000  0.6381300000000  0.4489300000000 1.0
C      1  0.4745490000000  0.3748460000000  0.5170480000000 1.0
C      1  0.4751840000000  0.5504220000000  0.3756220000000 1.0
C      1  0.4757980000000  0.5767030000000  0.5899780000000 1.0
C      1  0.5472980000000  0.3900040000000  0.4789750000000 1.0
C      1  0.5446720000000  0.5750980000000  0.4105930000000 1.0
C      1  0.5470220000000  0.5383890000000  0.6069070000000 1.0
C      1  0.4411880000000  0.5214860000000  0.3935960000000 1.0
C      1  0.4445770000000  0.5665630000000  0.5559210000000 1.0
C      1  0.4467220000000  0.4113020000000  0.5317320000000 1.0
C      1  0.5118210000000  0.3990670000000  0.5433690000000 1.0
C      1  0.5101380000000  0.5156100000000  0.3885980000000 1.0
C      1  0.5138350000000  0.5818940000000  0.5497010000000 1.0
C      1  0.5254070000000  0.5555190000000  0.4529870000000 1.0
C      1  0.5323530000000  0.5081550000000  0.5700250000000 1.0
C      1  0.5316300000000  0.4376770000000  0.4790170000000 1.0
C      1  0.5769590000000  0.4521700000000  0.5479020000000 1.0
C      1  0.5755940000000  0.4885040000000  0.4446110000000 1.0
C      1  0.5698340000000  0.5651750000000  0.5153230000000 1.0
C      1  0.4536530000000  0.4348360000000  0.5467360000000 1.0
C      1  0.4470890000000  0.4966770000000  0.4075800000000 1.0
C      1  0.4518140000000  0.5668730000000  0.5279010000000 1.0
C      1  0.5134590000000  0.4807130000000  0.5199600000000 1.0
C      1  0.5120930000000  0.4947420000000  0.4917050000000 1.0
C      1  0.5072650000000  0.5247680000000  0.4982330000000 1.0
C      1  0.5886400000000  0.5222910000000  0.4104470000000 1.0
C      1  0.5874490000000  0.5735730000000  0.5615430000000 1.0
C      1  0.5894950000000  0.4066110000000  0.5309690000000 1.0
C      1  0.4644220000000  0.5561720000000  0.4243910000000 1.0
C      1  0.4690260000000  0.5292190000000  0.5828460000000 1.0
C      1  0.4685370000000  0.4135880000000  0.4856720000000 1.0
C      1  0.5888750000000  0.5671830000000  0.5355120000000 1.0
C      1  0.5937680000000  0.4320560000000  0.5383890000000 1.0
C      1  0.5930690000000  0.5057930000000  0.4312960000000 1.0
C      1  0.5575870000000  0.5426920000000  0.5016260000000 1.0
C      1  0.5657970000000  0.4765620000000  0.5352110000000 1.0
C      1  0.5656120000000  0.4844750000000  0.4721670000000 1.0
C      1  0.4929790000000  0.3784850000000  0.5381370000000 1.0
C      1  0.4939640000000  0.5300130000000  0.3705190000000 1.0
C      1  0.4920630000000  0.5879730000000  0.5703400000000 1.0
C      1  0.4747110000000  0.4600820000000  0.4906080000000 1.0
C      1  0.4691460000000  0.5267190000000  0.4655880000000 1.0
C      1  0.4751230000000  0.5067470000000  0.5410850000000 1.0
C      1  0.5316460000000  0.4548650000000  0.5552980000000 1.0
C      1  0.5295420000000  0.4875430000000  0.4437760000000 1.0
C      1  0.5214300000000  0.5702990000000  0.5198670000000 1.0
C      1  0.4135480000000  0.5272440000000  0.3921920000000 1.0
C      1  0.4183710000000  0.5740760000000  0.5633240000000 1.0
C      1  0.4197180000000  0.4032900000000  0.5328180000000 1.0
C      1  0.4842250000000  0.4888370000000  0.6130390000000 1.0
C      1  0.4839780000000  0.4145140000000  0.4364870000000 1.0
C      1  0.4782540000000  0.6015110000000  0.4475320000000 1.0
C      1  0.5248090000000  0.4625970000000  0.3940160000000 1.0
C      1  0.5211680000000  0.6227700000000  0.5133320000000 1.0
C      1  0.5254400000000  0.4215010000000  0.5941960000000 1.0
C      1  0.5567910000000  0.4906490000000  0.6074180000000 1.0
C      1  0.5555210000000  0.4194880000000  0.4414870000000 1.0
C      1  0.5502380000000  0.5970350000000  0.4524590000000 1.0
C      1  0.5526820000000  0.4805550000000  0.4286320000000 1.0
C      1  0.5489150000000  0.5849090000000  0.5148450000000 1.0
C      1  0.5558580000000  0.4438690000000  0.5658860000000 1.0
END
