TITL C-3201377-4638-1427 5.48002868534999e-08 125000 -472.350032507324 0 0 80 (C1) n - 1
REM
REM in /home/nfs/bkarasulu/CARBON/AIRSS/Generating-Clusters/LCBOP/Higher-Symm/SD-CG/FIRE-CG
REM
REM
REM
REM
REM
REM ./C.cell (b20cbc046b6831c77cfcea5457e17084)
REM AIRSS Version 0.9.1 bugfix July 2018 build 013d7b7c2542+ Fri, 06 Jul 2018 19:26:36 +0100
REM compiler GCC version 9.2.1 20190827 (Red Hat 9.2.1-1)
REM options -cpp -mtune=generic -march=x86-64 -g -O0 -fpre-include=/usr/include/finclude/math-vector-fortran.h
REM seed 842830184 445642919 -416942081 649160403 239764563 1674271735 977776779 -597350249 1387650826 -1054112935 534577552 -1694752348 190696928 721558218 -1316941787 -260974052 149566898 221709354 709407383 1468492193 -1652734299 1303823790 -2067865131 1176363480 -244381462 -1164062000 1943671132 -1128603294 -441213280 -390948202 1114012780 -1198706741 -449278974
REM
CELL 1.54180   50.00000   50.00000   50.00000   90.00000   90.00000   90.00000
LATT -1
SFAC C  
C      1  0.4677680000000  0.4539350000000  0.4856020000000 1.0
C      1  0.4752300000000  0.5418090000000  0.4599070000000 1.0
C      1  0.4713600000000  0.5170710000000  0.5553190000000 1.0
C      1  0.4592480000000  0.6149700000000  0.5624150000000 1.0
C      1  0.5065510000000  0.4266000000000  0.5817180000000 1.0
C      1  0.5055610000000  0.4600450000000  0.3908970000000 1.0
C      1  0.4832060000000  0.4558470000000  0.4370980000000 1.0
C      1  0.4143010000000  0.6075590000000  0.5453390000000 1.0
C      1  0.4857210000000  0.4713600000000  0.5734840000000 1.0
C      1  0.4353490000000  0.5130750000000  0.4574330000000 1.0
C      1  0.4367180000000  0.5146700000000  0.5188220000000 1.0
C      1  0.4380230000000  0.4855880000000  0.5160940000000 1.0
C      1  0.5644780000000  0.3751300000000  0.5003450000000 1.0
C      1  0.5734880000000  0.4948730000000  0.4450200000000 1.0
C      1  0.5599070000000  0.5679380000000  0.5230980000000 1.0
C      1  0.4935280000000  0.5084800000000  0.4192050000000 1.0
C      1  0.4775200000000  0.5665080000000  0.5419340000000 1.0
C      1  0.4860910000000  0.4293190000000  0.5297580000000 1.0
C      1  0.5409530000000  0.4664440000000  0.4763500000000 1.0
C      1  0.5372460000000  0.5425800000000  0.4864870000000 1.0
C      1  0.5327150000000  0.5023480000000  0.5461970000000 1.0
C      1  0.4898000000000  0.5167910000000  0.4477810000000 1.0
C      1  0.4830790000000  0.5385600000000  0.5369520000000 1.0
C      1  0.4847100000000  0.4526190000000  0.5122290000000 1.0
C      1  0.4924380000000  0.5297840000000  0.5092870000000 1.0
C      1  0.4945870000000  0.4791780000000  0.5233610000000 1.0
C      1  0.4947850000000  0.4947560000000  0.4697690000000 1.0
C      1  0.5090620000000  0.4123480000000  0.5345820000000 1.0
C      1  0.5187520000000  0.5049120000000  0.4045910000000 1.0
C      1  0.4964710000000  0.5846380000000  0.5537830000000 1.0
C      1  0.4446400000000  0.5380900000000  0.5030910000000 1.0
C      1  0.4485130000000  0.4742780000000  0.5406380000000 1.0
C      1  0.4467110000000  0.4887720000000  0.4486960000000 1.0
C      1  0.5249100000000  0.4920960000000  0.4676990000000 1.0
C      1  0.5211930000000  0.5366780000000  0.5101990000000 1.0
C      1  0.5247070000000  0.4778740000000  0.5309680000000 1.0
C      1  0.4849020000000  0.4625790000000  0.4096040000000 1.0
C      1  0.4404790000000  0.6002250000000  0.5473150000000 1.0
C      1  0.4845480000000  0.4430260000000  0.5754010000000 1.0
C      1  0.5058530000000  0.4281710000000  0.4675840000000 1.0
C      1  0.5181350000000  0.5703320000000  0.4441970000000 1.0
C      1  0.5109040000000  0.5195670000000  0.5867560000000 1.0
C      1  0.4688580000000  0.4326960000000  0.5531580000000 1.0
C      1  0.4733330000000  0.4893710000000  0.4093270000000 1.0
C      1  0.4511770000000  0.5769890000000  0.5345640000000 1.0
C      1  0.5319740000000  0.4379560000000  0.4728470000000 1.0
C      1  0.5440950000000  0.5641660000000  0.4406270000000 1.0
C      1  0.5333540000000  0.5186070000000  0.5697110000000 1.0
C      1  0.4418390000000  0.5199470000000  0.5476000000000 1.0
C      1  0.4415290000000  0.4665710000000  0.4950830000000 1.0
C      1  0.4466450000000  0.5373820000000  0.4513480000000 1.0
C      1  0.4762420000000  0.4866810000000  0.5487790000000 1.0
C      1  0.4736540000000  0.4734550000000  0.4614900000000 1.0
C      1  0.4711400000000  0.5397690000000  0.4904690000000 1.0
C      1  0.5196430000000  0.4828240000000  0.3862990000000 1.0
C      1  0.4850640000000  0.6077200000000  0.5654240000000 1.0
C      1  0.5177520000000  0.4119210000000  0.5618170000000 1.0
C      1  0.5423290000000  0.5148730000000  0.4777760000000 1.0
C      1  0.5398490000000  0.5188330000000  0.5239890000000 1.0
C      1  0.5437890000000  0.4745170000000  0.5068650000000 1.0
C      1  0.4842880000000  0.5214440000000  0.5818560000000 1.0
C      1  0.4791150000000  0.4286330000000  0.4731790000000 1.0
C      1  0.4928800000000  0.5643590000000  0.4514530000000 1.0
C      1  0.5437680000000  0.5138050000000  0.4123420000000 1.0
C      1  0.5240670000000  0.5812030000000  0.5526170000000 1.0
C      1  0.5243610000000  0.3984060000000  0.5160000000000 1.0
C      1  0.5810460000000  0.3550430000000  0.5014650000000 1.0
C      1  0.5667280000000  0.4729120000000  0.4599610000000 1.0
C      1  0.5561120000000  0.5618490000000  0.4966330000000 1.0
C      1  0.4475590000000  0.4886570000000  0.4202710000000 1.0
C      1  0.4369900000000  0.5629710000000  0.5145230000000 1.0
C      1  0.4450270000000  0.4473330000000  0.5486860000000 1.0
C      1  0.5635050000000  0.5182100000000  0.4317020000000 1.0
C      1  0.5469810000000  0.5653890000000  0.5485550000000 1.0
C      1  0.5467780000000  0.3965350000000  0.4992420000000 1.0
C      1  0.5636850000000  0.5454590000000  0.4396170000000 1.0
C      1  0.5488130000000  0.5427060000000  0.5659530000000 1.0
C      1  0.5500740000000  0.4178760000000  0.4812680000000 1.0
C      1  0.4918830000000  0.5002070000000  0.5010190000000 1.0
C      1  0.5532110000000  0.5028170000000  0.5035470000000 1.0
END
