TITL C-3201379-3821-2301 1620816.36416471 125000 -1135.31339850385 0 0 193 (C1) n - 1
REM
REM in /home/nfs/bkarasulu/CARBON/AIRSS/Generating-Clusters/LCBOP/Higher-Symm/SD-CG/FIRE-CG
REM
REM
REM
REM
REM
REM ./C.cell (b20cbc046b6831c77cfcea5457e17084)
REM AIRSS Version 0.9.1 bugfix July 2018 build 013d7b7c2542+ Fri, 06 Jul 2018 19:26:36 +0100
REM compiler GCC version 9.2.1 20190827 (Red Hat 9.2.1-1)
REM options -cpp -mtune=generic -march=x86-64 -g -O0 -fpre-include=/usr/include/finclude/math-vector-fortran.h
REM seed -1079965794 -86424581 -1341610552 852196649 1715337068 1634044903 1458816055 -1048051434 1817548884 -743679555 1494195165 1293254333 -569966539 117282000 -1616098639 41337921 120231386 -1517497546 318772360 532478482 790093758 -193591313 -737855811 1133392325 599823545 -832185914 49157839 -669605155 -1429672900 1101108055 711583142 2030891456 -1021822904
REM
CELL 1.54180   50.00000   50.00000   50.00000   90.00000   90.00000   90.00000
LATT -1
SFAC C  
C      1  0.4743960000000  0.4932850000000  0.4820890000000 1.0
C      1  0.4713130000000  0.4633530000000  0.4842860000000 1.0
C      1  0.5180320000000  0.4723150000000  0.4865990000000 1.0
C      1  0.5195000000000  0.5164010000000  0.4795260000000 1.0
C      1  0.4954470000000  0.5596320000000  0.4840780000000 1.0
C      1  0.4734760000000  0.5054430000000  0.5092290000000 1.0
C      1  0.4821370000000  0.4612280000000  0.5125150000000 1.0
C      1  0.5101450000000  0.4730500000000  0.5148420000000 1.0
C      1  0.5466230000000  0.5200440000000  0.5177330000000 1.0
C      1  0.5022880000000  0.5463420000000  0.5088070000000 1.0
C      1  0.4571320000000  0.5047420000000  0.4616560000000 1.0
C      1  0.4879200000000  0.4564180000000  0.4612820000000 1.0
C      1  0.5357740000000  0.4576700000000  0.4720610000000 1.0
C      1  0.5335260000000  0.5313240000000  0.4615590000000 1.0
C      1  0.4843540000000  0.5461020000000  0.4624820000000 1.0
C      1  0.4523370000000  0.5054280000000  0.5299610000000 1.0
C      1  0.4776480000000  0.4498550000000  0.5390560000000 1.0
C      1  0.5316700000000  0.4677590000000  0.5354310000000 1.0
C      1  0.5434640000000  0.5304900000000  0.5443110000000 1.0
C      1  0.4936130000000  0.5535750000000  0.5378430000000 1.0
C      1  0.5585360000000  0.4240340000000  0.4355850000000 1.0
C      1  0.5894580000000  0.5276700000000  0.4328370000000 1.0
C      1  0.5025710000000  0.5926120000000  0.4340330000000 1.0
C      1  0.4131400000000  0.5231300000000  0.4380830000000 1.0
C      1  0.4510380000000  0.4204110000000  0.4358440000000 1.0
C      1  0.5441100000000  0.4385380000000  0.5536500000000 1.0
C      1  0.5674440000000  0.5302320000000  0.5631280000000 1.0
C      1  0.5004500000000  0.5817540000000  0.5591780000000 1.0
C      1  0.4144340000000  0.5261650000000  0.5716370000000 1.0
C      1  0.4546550000000  0.4338380000000  0.5546560000000 1.0
C      1  0.5121060000000  0.5229070000000  0.3829070000000 1.0
C      1  0.4817680000000  0.5117620000000  0.3855530000000 1.0
C      1  0.4827470000000  0.4799020000000  0.3838850000000 1.0
C      1  0.5143660000000  0.4698190000000  0.3848240000000 1.0
C      1  0.5322280000000  0.4957640000000  0.3871380000000 1.0
C      1  0.5041780000000  0.5269140000000  0.6230650000000 1.0
C      1  0.4744340000000  0.5175500000000  0.6185040000000 1.0
C      1  0.4735300000000  0.4862410000000  0.6158450000000 1.0
C      1  0.5040130000000  0.4747340000000  0.6190810000000 1.0
C      1  0.5233470000000  0.4995970000000  0.6202100000000 1.0
C      1  0.4539050000000  0.4661080000000  0.4007530000000 1.0
C      1  0.5164350000000  0.4457580000000  0.4032110000000 1.0
C      1  0.5578410000000  0.4926460000000  0.4107660000000 1.0
C      1  0.5267470000000  0.5511930000000  0.3987780000000 1.0
C      1  0.4600870000000  0.5336080000000  0.4047750000000 1.0
C      1  0.4519030000000  0.4769050000000  0.5948320000000 1.0
C      1  0.5078170000000  0.4492470000000  0.5979480000000 1.0
C      1  0.5504210000000  0.4938580000000  0.5974950000000 1.0
C      1  0.5197610000000  0.5487990000000  0.6009440000000 1.0
C      1  0.4586690000000  0.5350970000000  0.5991360000000 1.0
C      1  0.3955460000000  0.4785880000000  0.5560860000000 1.0
C      1  0.4863130000000  0.3915570000000  0.5576030000000 1.0
C      1  0.5911800000000  0.4603090000000  0.5515480000000 1.0
C      1  0.5739810000000  0.5790170000000  0.5536800000000 1.0
C      1  0.4507240000000  0.5927450000000  0.5667570000000 1.0
C      1  0.3971110000000  0.4740690000000  0.4402460000000 1.0
C      1  0.4905400000000  0.3893360000000  0.4438750000000 1.0
C      1  0.5990590000000  0.4536060000000  0.4435010000000 1.0
C      1  0.5772990000000  0.5770400000000  0.4391420000000 1.0
C      1  0.4506360000000  0.5890630000000  0.4499260000000 1.0
C      1  0.5697770000000  0.4481800000000  0.5661710000000 1.0
C      1  0.5781180000000  0.5555080000000  0.5695370000000 1.0
C      1  0.4768490000000  0.5878890000000  0.5763020000000 1.0
C      1  0.4021560000000  0.5006100000000  0.5736810000000 1.0
C      1  0.4676580000000  0.4104640000000  0.5698820000000 1.0
C      1  0.5804540000000  0.4396080000000  0.4268310000000 1.0
C      1  0.5835490000000  0.5538540000000  0.4236580000000 1.0
C      1  0.4738720000000  0.5921950000000  0.4327480000000 1.0
C      1  0.4052890000000  0.4984170000000  0.4271000000000 1.0
C      1  0.4719450000000  0.4034590000000  0.4270620000000 1.0
C      1  0.6072710000000  0.5052540000000  0.5319360000000 1.0
C      1  0.5357220000000  0.6137630000000  0.5418290000000 1.0
C      1  0.4146160000000  0.5658960000000  0.5442260000000 1.0
C      1  0.4080890000000  0.4296220000000  0.5393800000000 1.0
C      1  0.5363860000000  0.3920230000000  0.5391970000000 1.0
C      1  0.6165140000000  0.4994750000000  0.4607630000000 1.0
C      1  0.5412030000000  0.6064970000000  0.4612160000000 1.0
C      1  0.4069890000000  0.5637000000000  0.4670750000000 1.0
C      1  0.4122510000000  0.4293810000000  0.4636450000000 1.0
C      1  0.5394100000000  0.3895830000000  0.4638510000000 1.0
C      1  0.4030950000000  0.5777000000000  0.4923510000000 1.0
C      1  0.3954810000000  0.4265350000000  0.4871860000000 1.0
C      1  0.5360790000000  0.3746450000000  0.4885220000000 1.0
C      1  0.6283330000000  0.4920060000000  0.4857570000000 1.0
C      1  0.5501420000000  0.6182020000000  0.4870460000000 1.0
C      1  0.4061030000000  0.5781820000000  0.5196660000000 1.0
C      1  0.3921610000000  0.4265900000000  0.5146110000000 1.0
C      1  0.5349290000000  0.3741300000000  0.5159890000000 1.0
C      1  0.6250890000000  0.4930470000000  0.5128090000000 1.0
C      1  0.5484720000000  0.6217920000000  0.5149430000000 1.0
C      1  0.5850510000000  0.4208180000000  0.4832060000000 1.0
C      1  0.6017560000000  0.5561320000000  0.4801420000000 1.0
C      1  0.4634720000000  0.6138630000000  0.4981000000000 1.0
C      1  0.3818760000000  0.5059220000000  0.4798850000000 1.0
C      1  0.4531910000000  0.3924190000000  0.4828860000000 1.0
C      1  0.5817360000000  0.4241080000000  0.5136230000000 1.0
C      1  0.5998450000000  0.5558560000000  0.5101600000000 1.0
C      1  0.4727110000000  0.6144390000000  0.5254130000000 1.0
C      1  0.3776100000000  0.4994070000000  0.5078680000000 1.0
C      1  0.4528590000000  0.3943460000000  0.5147300000000 1.0
C      1  0.5979660000000  0.4424020000000  0.5294380000000 1.0
C      1  0.5896220000000  0.5767990000000  0.5285620000000 1.0
C      1  0.4527160000000  0.6118650000000  0.5455590000000 1.0
C      1  0.3819460000000  0.4865570000000  0.5316020000000 1.0
C      1  0.4727540000000  0.3823610000000  0.5327310000000 1.0
C      1  0.6031770000000  0.4385770000000  0.4681460000000 1.0
C      1  0.5934810000000  0.5775620000000  0.4632120000000 1.0
C      1  0.4527260000000  0.6042340000000  0.4748290000000 1.0
C      1  0.3794910000000  0.4836950000000  0.4613640000000 1.0
C      1  0.4756160000000  0.3793740000000  0.4674980000000 1.0
C      1  0.5194870000000  0.3964580000000  0.4412470000000 1.0
C      1  0.6034960000000  0.4823810000000  0.4391130000000 1.0
C      1  0.5515350000000  0.5907230000000  0.4367290000000 1.0
C      1  0.4295040000000  0.5680870000000  0.4453250000000 1.0
C      1  0.4125690000000  0.4488820000000  0.4397170000000 1.0
C      1  0.5157120000000  0.3986760000000  0.5609990000000 1.0
C      1  0.5938170000000  0.4898030000000  0.5544940000000 1.0
C      1  0.5483090000000  0.5932410000000  0.5612090000000 1.0
C      1  0.4311110000000  0.5716480000000  0.5689090000000 1.0
C      1  0.4096360000000  0.4525940000000  0.5595460000000 1.0
C      1  0.5483860000000  0.5526740000000  0.4704470000000 1.0
C      1  0.4599720000000  0.5336800000000  0.4673060000000 1.0
C      1  0.4313310000000  0.4926760000000  0.4687030000000 1.0
C      1  0.4952560000000  0.4297930000000  0.4640980000000 1.0
C      1  0.5530490000000  0.4737070000000  0.4570230000000 1.0
C      1  0.5331340000000  0.5575780000000  0.5371710000000 1.0
C      1  0.4662660000000  0.5624230000000  0.5303810000000 1.0
C      1  0.4376250000000  0.4801110000000  0.5315440000000 1.0
C      1  0.4965670000000  0.4273000000000  0.5352180000000 1.0
C      1  0.5565850000000  0.4736180000000  0.5216170000000 1.0
C      1  0.4535790000000  0.5631180000000  0.5070080000000 1.0
C      1  0.4269140000000  0.4656500000000  0.5108690000000 1.0
C      1  0.5057220000000  0.4191340000000  0.5104770000000 1.0
C      1  0.5721800000000  0.4724060000000  0.5000870000000 1.0
C      1  0.5359860000000  0.5732900000000  0.5149970000000 1.0
C      1  0.4451730000000  0.5447330000000  0.4880570000000 1.0
C      1  0.4194350000000  0.4785780000000  0.4877300000000 1.0
C      1  0.4900600000000  0.4181040000000  0.4876770000000 1.0
C      1  0.5706590000000  0.4857100000000  0.4753380000000 1.0
C      1  0.5515360000000  0.5667750000000  0.4928380000000 1.0
C      1  0.4321570000000  0.5427390000000  0.4268730000000 1.0
C      1  0.4372580000000  0.4423800000000  0.4217980000000 1.0
C      1  0.5315810000000  0.4199610000000  0.4230790000000 1.0
C      1  0.5850710000000  0.5003750000000  0.4211380000000 1.0
C      1  0.5262950000000  0.5819150000000  0.4177010000000 1.0
C      1  0.4330210000000  0.5451480000000  0.5866430000000 1.0
C      1  0.4369070000000  0.4527020000000  0.5739980000000 1.0
C      1  0.5237280000000  0.4259980000000  0.5755900000000 1.0
C      1  0.5756200000000  0.5051050000000  0.5738090000000 1.0
C      1  0.5255800000000  0.5770630000000  0.5780250000000 1.0
C      1  0.4915270000000  0.5280180000000  0.5562080000000 1.0
C      1  0.4709780000000  0.5029700000000  0.5546690000000 1.0
C      1  0.4876500000000  0.4727470000000  0.5573500000000 1.0
C      1  0.5203990000000  0.4849830000000  0.5579590000000 1.0
C      1  0.5207500000000  0.5168290000000  0.5595470000000 1.0
C      1  0.4955750000000  0.5410740000000  0.4374590000000 1.0
C      1  0.4669290000000  0.4928100000000  0.4366190000000 1.0
C      1  0.4911950000000  0.4737370000000  0.4373360000000 1.0
C      1  0.5155480000000  0.4939250000000  0.4343030000000 1.0
C      1  0.5204550000000  0.5245080000000  0.4361300000000 1.0
C      1  0.4387410000000  0.4407970000000  0.5076800000000 1.0
C      1  0.5328250000000  0.4241250000000  0.5060910000000 1.0
C      1  0.5710970000000  0.5211600000000  0.5052540000000 1.0
C      1  0.5137480000000  0.5908900000000  0.5092990000000 1.0
C      1  0.4281190000000  0.5233830000000  0.5238890000000 1.0
C      1  0.4539840000000  0.4392190000000  0.4844170000000 1.0
C      1  0.5409530000000  0.4324940000000  0.4810190000000 1.0
C      1  0.5760160000000  0.5128630000000  0.4788880000000 1.0
C      1  0.5029390000000  0.5868990000000  0.4837160000000 1.0
C      1  0.4228740000000  0.5291670000000  0.4962700000000 1.0
C      1  0.4935660000000  0.4511140000000  0.4181760000000 1.0
C      1  0.5424930000000  0.4830290000000  0.4329740000000 1.0
C      1  0.5393410000000  0.5363850000000  0.4173830000000 1.0
C      1  0.4798470000000  0.5486780000000  0.4158620000000 1.0
C      1  0.4488320000000  0.4883330000000  0.4159090000000 1.0
C      1  0.4879690000000  0.4567540000000  0.5816010000000 1.0
C      1  0.5372470000000  0.4771600000000  0.5809430000000 1.0
C      1  0.5281450000000  0.5292470000000  0.5852070000000 1.0
C      1  0.4796230000000  0.5414430000000  0.5804960000000 1.0
C      1  0.4522000000000  0.4990770000000  0.5772040000000 1.0
C      1  0.4423360000000  0.4180280000000  0.4661980000000 1.0
C      1  0.5591520000000  0.4142460000000  0.4660610000000 1.0
C      1  0.5980330000000  0.5251730000000  0.4627350000000 1.0
C      1  0.5126300000000  0.5997130000000  0.4606280000000 1.0
C      1  0.4029190000000  0.5308280000000  0.4708760000000 1.0
C      1  0.4373010000000  0.4219410000000  0.5302930000000 1.0
C      1  0.5505480000000  0.4185270000000  0.5293970000000 1.0
C      1  0.5944850000000  0.5286000000000  0.5200240000000 1.0
C      1  0.5056750000000  0.6046560000000  0.5346490000000 1.0
C      1  0.4143740000000  0.5368570000000  0.5444820000000 1.0
C      1  0.5043550000000  0.4942740000000  0.4750880000000 1.0
C      1  0.5010290000000  0.5020860000000  0.5181330000000 1.0
C      1  0.5195880000000  0.5223250000000  0.5072460000000 1.0
END
