TITL C-3201372-1405-809 848626.19923304 125000 -1186.39759920759 0 0 196 (C1) n - 1
REM
REM in /home/nfs/bkarasulu/CARBON/AIRSS/Generating-Clusters/LCBOP/Higher-Symm/SD-CG/FIRE-CG
REM
REM
REM
REM
REM
REM ./C.cell (b20cbc046b6831c77cfcea5457e17084)
REM AIRSS Version 0.9.1 bugfix July 2018 build 013d7b7c2542+ Fri, 06 Jul 2018 19:26:36 +0100
REM compiler GCC version 9.2.1 20190827 (Red Hat 9.2.1-1)
REM options -cpp -mtune=generic -march=x86-64 -g -O0 -fpre-include=/usr/include/finclude/math-vector-fortran.h
REM seed -770289028 -1140366304 2103795744 1571882882 1850310860 2059926675 264146627 -2100459832 -591825763 68388313 1937310651 -791046469 -651004484 909627945 949565782 1928079078 1071144596 -587588928 -68839290 -215026420 881274150 -1186519590 501466423 1869376035 -1344928653 1580080780 68375192 850193096 -1051957248 -1853750082 850856772 957744552 -2037054450
REM
CELL 1.54180   50.00000   50.00000   50.00000   90.00000   90.00000   90.00000
LATT -1
SFAC C  
C      1  0.4506570000000  0.5448310000000  0.3983880000000 1.0
C      1  0.6082160000000  0.5340780000000  0.5208010000000 1.0
C      1  0.4311280000000  0.5381150000000  0.5819400000000 1.0
C      1  0.4785630000000  0.5389070000000  0.3912270000000 1.0
C      1  0.6084210000000  0.5313390000000  0.5509130000000 1.0
C      1  0.4061140000000  0.5382260000000  0.5666260000000 1.0
C      1  0.4906050000000  0.4637820000000  0.4865270000000 1.0
C      1  0.5207120000000  0.4661120000000  0.4922640000000 1.0
C      1  0.4808250000000  0.4593370000000  0.5165470000000 1.0
C      1  0.5303090000000  0.4442320000000  0.5074290000000 1.0
C      1  0.4679770000000  0.4341120000000  0.5221940000000 1.0
C      1  0.4908470000000  0.4423460000000  0.4612860000000 1.0
C      1  0.5791360000000  0.5562990000000  0.5878060000000 1.0
C      1  0.3822870000000  0.5569040000000  0.5215430000000 1.0
C      1  0.5213830000000  0.5730830000000  0.3895360000000 1.0
C      1  0.5308660000000  0.4149830000000  0.5879390000000 1.0
C      1  0.3964380000000  0.4181400000000  0.4741390000000 1.0
C      1  0.5755620000000  0.4181150000000  0.4253650000000 1.0
C      1  0.5677400000000  0.5101890000000  0.5171370000000 1.0
C      1  0.4538690000000  0.5116840000000  0.5512370000000 1.0
C      1  0.4877120000000  0.5058900000000  0.4300820000000 1.0
C      1  0.4355640000000  0.5056200000000  0.5311110000000 1.0
C      1  0.5133460000000  0.4988130000000  0.4215150000000 1.0
C      1  0.5554310000000  0.5092290000000  0.5418330000000 1.0
C      1  0.4414450000000  0.4477090000000  0.4360920000000 1.0
C      1  0.5959380000000  0.4544330000000  0.4748350000000 1.0
C      1  0.4800860000000  0.4551070000000  0.5982620000000 1.0
C      1  0.5065670000000  0.5547270000000  0.4324760000000 1.0
C      1  0.5377430000000  0.5660760000000  0.5569570000000 1.0
C      1  0.4314670000000  0.5547750000000  0.5144530000000 1.0
C      1  0.6246380000000  0.5085350000000  0.5583600000000 1.0
C      1  0.3886910000000  0.5177380000000  0.5770420000000 1.0
C      1  0.4827960000000  0.5113200000000  0.3818090000000 1.0
C      1  0.5573440000000  0.4967750000000  0.4067440000000 1.0
C      1  0.5439480000000  0.5136220000000  0.5887150000000 1.0
C      1  0.4048470000000  0.5101450000000  0.4931640000000 1.0
C      1  0.5638590000000  0.4882910000000  0.5002020000000 1.0
C      1  0.4689630000000  0.4882420000000  0.5574300000000 1.0
C      1  0.4746960000000  0.4844320000000  0.4435390000000 1.0
C      1  0.5877820000000  0.4267400000000  0.4767290000000 1.0
C      1  0.4789790000000  0.4278220000000  0.5894500000000 1.0
C      1  0.4389280000000  0.4188710000000  0.4413020000000 1.0
C      1  0.4668250000000  0.4736350000000  0.5812540000000 1.0
C      1  0.4678780000000  0.4578450000000  0.4395340000000 1.0
C      1  0.5854870000000  0.4716460000000  0.4944020000000 1.0
C      1  0.4708750000000  0.5177670000000  0.6055290000000 1.0
C      1  0.4241140000000  0.5213670000000  0.4349160000000 1.0
C      1  0.6454270000000  0.5314210000000  0.4878210000000 1.0
C      1  0.5246980000000  0.3991220000000  0.4921240000000 1.0
C      1  0.4581450000000  0.3891320000000  0.5371620000000 1.0
C      1  0.5067980000000  0.3950390000000  0.4693120000000 1.0
C      1  0.4222060000000  0.4959250000000  0.6032110000000 1.0
C      1  0.4521860000000  0.4764610000000  0.3692340000000 1.0
C      1  0.6322570000000  0.4927910000000  0.5155380000000 1.0
C      1  0.5555570000000  0.4891640000000  0.4344630000000 1.0
C      1  0.5265690000000  0.4937240000000  0.5749030000000 1.0
C      1  0.4230470000000  0.4863180000000  0.4896400000000 1.0
C      1  0.5703650000000  0.5453270000000  0.4822670000000 1.0
C      1  0.4773940000000  0.5532610000000  0.5766040000000 1.0
C      1  0.4603980000000  0.5441900000000  0.4466200000000 1.0
C      1  0.4402210000000  0.5184470000000  0.6028460000000 1.0
C      1  0.4278370000000  0.5448680000000  0.4165940000000 1.0
C      1  0.6300730000000  0.5201740000000  0.5073020000000 1.0
C      1  0.3869930000000  0.4592450000000  0.5185030000000 1.0
C      1  0.5361980000000  0.4347300000000  0.3917220000000 1.0
C      1  0.5741730000000  0.4453880000000  0.5804740000000 1.0
C      1  0.5433870000000  0.6064480000000  0.4708730000000 1.0
C      1  0.5005630000000  0.6033870000000  0.5549280000000 1.0
C      1  0.4534800000000  0.6103510000000  0.4817760000000 1.0
C      1  0.5421290000000  0.3898950000000  0.4089930000000 1.0
C      1  0.5596380000000  0.4104260000000  0.5475730000000 1.0
C      1  0.3954850000000  0.4115240000000  0.5233560000000 1.0
C      1  0.5235000000000  0.4627690000000  0.3906090000000 1.0
C      1  0.5802530000000  0.4752490000000  0.5696600000000 1.0
C      1  0.3932720000000  0.4821640000000  0.5348260000000 1.0
C      1  0.4540010000000  0.5372350000000  0.5651680000000 1.0
C      1  0.4851450000000  0.5338100000000  0.4380940000000 1.0
C      1  0.5835540000000  0.5312080000000  0.5061950000000 1.0
C      1  0.5159760000000  0.3762910000000  0.4501400000000 1.0
C      1  0.5271010000000  0.3834760000000  0.5160040000000 1.0
C      1  0.4344720000000  0.3787060000000  0.5297440000000 1.0
C      1  0.6220910000000  0.4857600000000  0.5411700000000 1.0
C      1  0.4012160000000  0.4926470000000  0.5836680000000 1.0
C      1  0.4771050000000  0.4827040000000  0.3795350000000 1.0
C      1  0.5260140000000  0.5412200000000  0.5816270000000 1.0
C      1  0.4223970000000  0.5362530000000  0.4857570000000 1.0
C      1  0.5376350000000  0.5473180000000  0.4390470000000 1.0
C      1  0.4853000000000  0.5487320000000  0.5290070000000 1.0
C      1  0.4683840000000  0.5592360000000  0.4865630000000 1.0
C      1  0.5245610000000  0.5536090000000  0.4934750000000 1.0
C      1  0.5509470000000  0.5616780000000  0.4969880000000 1.0
C      1  0.4899900000000  0.5624850000000  0.5522840000000 1.0
C      1  0.4543480000000  0.5665720000000  0.4625630000000 1.0
C      1  0.4722570000000  0.6042250000000  0.5533840000000 1.0
C      1  0.4637300000000  0.6167850000000  0.4558190000000 1.0
C      1  0.5577220000000  0.6073680000000  0.4957130000000 1.0
C      1  0.5449810000000  0.4464370000000  0.4474600000000 1.0
C      1  0.5200150000000  0.4505610000000  0.5596900000000 1.0
C      1  0.4340160000000  0.4411100000000  0.4866180000000 1.0
C      1  0.5536150000000  0.4161620000000  0.4070170000000 1.0
C      1  0.5541970000000  0.4238430000000  0.5737420000000 1.0
C      1  0.3895760000000  0.4279580000000  0.4999660000000 1.0
C      1  0.4506540000000  0.4271690000000  0.5013720000000 1.0
C      1  0.5186070000000  0.4435270000000  0.4490750000000 1.0
C      1  0.5250860000000  0.4438420000000  0.5346900000000 1.0
C      1  0.4809450000000  0.5739560000000  0.5983760000000 1.0
C      1  0.4199700000000  0.5701940000000  0.4295040000000 1.0
C      1  0.5863230000000  0.5626470000000  0.4637590000000 1.0
C      1  0.4321740000000  0.4342810000000  0.5736490000000 1.0
C      1  0.4752300000000  0.4145660000000  0.4103190000000 1.0
C      1  0.5794500000000  0.4228140000000  0.5285590000000 1.0
C      1  0.5133090000000  0.4191630000000  0.3812800000000 1.0
C      1  0.5997170000000  0.4313310000000  0.5715350000000 1.0
C      1  0.3952940000000  0.4315610000000  0.5430260000000 1.0
C      1  0.4086950000000  0.4457100000000  0.5628810000000 1.0
C      1  0.4882050000000  0.4303870000000  0.3905340000000 1.0
C      1  0.5995360000000  0.4389430000000  0.5428980000000 1.0
C      1  0.5716670000000  0.4207850000000  0.5000020000000 1.0
C      1  0.4584670000000  0.4238190000000  0.5701970000000 1.0
C      1  0.4657670000000  0.4083640000000  0.4370450000000 1.0
C      1  0.5870070000000  0.5344200000000  0.5703910000000 1.0
C      1  0.4046340000000  0.5414130000000  0.5352710000000 1.0
C      1  0.5012040000000  0.5568050000000  0.4011570000000 1.0
C      1  0.5287250000000  0.3749810000000  0.4266990000000 1.0
C      1  0.5426210000000  0.3896770000000  0.5375520000000 1.0
C      1  0.4097170000000  0.3876930000000  0.5246700000000 1.0
C      1  0.5359440000000  0.5814160000000  0.5326730000000 1.0
C      1  0.4610630000000  0.5656360000000  0.5152440000000 1.0
C      1  0.5024930000000  0.5854360000000  0.4499250000000 1.0
C      1  0.4658420000000  0.4156130000000  0.5440010000000 1.0
C      1  0.4850710000000  0.4123190000000  0.4594200000000 1.0
C      1  0.5427000000000  0.4217560000000  0.4955670000000 1.0
C      1  0.4197470000000  0.4629280000000  0.4464990000000 1.0
C      1  0.5933090000000  0.4650890000000  0.4485730000000 1.0
C      1  0.5060230000000  0.4633170000000  0.6055470000000 1.0
C      1  0.5010800000000  0.5260560000000  0.5207160000000 1.0
C      1  0.4814470000000  0.5338320000000  0.4826950000000 1.0
C      1  0.5084820000000  0.5294100000000  0.4918760000000 1.0
C      1  0.5178630000000  0.4717810000000  0.6292930000000 1.0
C      1  0.3957130000000  0.4747330000000  0.4382390000000 1.0
C      1  0.6089540000000  0.4819390000000  0.4320610000000 1.0
C      1  0.4230390000000  0.4635510000000  0.4746040000000 1.0
C      1  0.5655100000000  0.4647580000000  0.4421930000000 1.0
C      1  0.5204260000000  0.4678730000000  0.5815770000000 1.0
C      1  0.3801140000000  0.5393440000000  0.4629690000000 1.0
C      1  0.5752810000000  0.5413030000000  0.4057750000000 1.0
C      1  0.5375990000000  0.5407150000000  0.6289990000000 1.0
C      1  0.4931210000000  0.5307130000000  0.5898670000000 1.0
C      1  0.4416460000000  0.5240110000000  0.4598920000000 1.0
C      1  0.5492310000000  0.5328300000000  0.4625540000000 1.0
C      1  0.5574190000000  0.6022740000000  0.4462220000000 1.0
C      1  0.5176160000000  0.6000280000000  0.5796190000000 1.0
C      1  0.4270870000000  0.5983030000000  0.4824550000000 1.0
C      1  0.4818690000000  0.6028790000000  0.4410440000000 1.0
C      1  0.5551520000000  0.5844740000000  0.5122520000000 1.0
C      1  0.4581740000000  0.5862610000000  0.5391830000000 1.0
C      1  0.4149690000000  0.5857410000000  0.5050970000000 1.0
C      1  0.5463450000000  0.6066280000000  0.4198110000000 1.0
C      1  0.5446520000000  0.5885230000000  0.5755890000000 1.0
C      1  0.5696470000000  0.5089290000000  0.5710500000000 1.0
C      1  0.4052180000000  0.5112540000000  0.5253220000000 1.0
C      1  0.5303300000000  0.4893230000000  0.3986650000000 1.0
C      1  0.5431770000000  0.5143960000000  0.6191570000000 1.0
C      1  0.3830690000000  0.5120450000000  0.4716100000000 1.0
C      1  0.5800980000000  0.5134790000000  0.4034180000000 1.0
C      1  0.6000820000000  0.4684880000000  0.5465650000000 1.0
C      1  0.4013460000000  0.4736410000000  0.5624630000000 1.0
C      1  0.4936180000000  0.4598780000000  0.3871460000000 1.0
C      1  0.5439950000000  0.5822800000000  0.4041730000000 1.0
C      1  0.5576610000000  0.5738800000000  0.5969260000000 1.0
C      1  0.3909130000000  0.5729270000000  0.4988860000000 1.0
C      1  0.5589250000000  0.5609850000000  0.4209400000000 1.0
C      1  0.5319050000000  0.5613750000000  0.6089380000000 1.0
C      1  0.4011340000000  0.5579720000000  0.4731390000000 1.0
C      1  0.4759760000000  0.4871320000000  0.4724980000000 1.0
C      1  0.5382000000000  0.4876660000000  0.4885610000000 1.0
C      1  0.4860190000000  0.4810340000000  0.5354700000000 1.0
C      1  0.4730260000000  0.6006360000000  0.4997430000000 1.0
C      1  0.5158170000000  0.5967420000000  0.4739970000000 1.0
C      1  0.5129800000000  0.5980540000000  0.5288460000000 1.0
C      1  0.5061770000000  0.5010510000000  0.5319630000000 1.0
C      1  0.4639170000000  0.5115890000000  0.4776240000000 1.0
C      1  0.5305620000000  0.5102600000000  0.4711560000000 1.0
C      1  0.5038540000000  0.4135870000000  0.5910600000000 1.0
C      1  0.4150870000000  0.4111340000000  0.4552710000000 1.0
C      1  0.5846730000000  0.4144340000000  0.4508720000000 1.0
C      1  0.5356070000000  0.4915050000000  0.6335420000000 1.0
C      1  0.3798880000000  0.4914430000000  0.4524750000000 1.0
C      1  0.6039800000000  0.5012530000000  0.4135110000000 1.0
C      1  0.4419470000000  0.4872520000000  0.5107260000000 1.0
C      1  0.5301050000000  0.4966760000000  0.4446250000000 1.0
C      1  0.5292400000000  0.4998030000000  0.5471390000000 1.0
C      1  0.4243310000000  0.5770750000000  0.4596150000000 1.0
C      1  0.5739210000000  0.5777160000000  0.4430740000000 1.0
C      1  0.5079570000000  0.5830030000000  0.6026020000000 1.0
C      1  0.5015670000000  0.6002430000000  0.5010520000000 1.0
END
