TITL C-3201377-4638-179 -143.281223791477 125000 -1106.28634016536 0 0 182 (C1) n - 1
REM
REM in /home/nfs/bkarasulu/CARBON/AIRSS/Generating-Clusters/LCBOP/Higher-Symm/SD-CG/FIRE-CG
REM
REM
REM
REM
REM
REM ./C.cell (b20cbc046b6831c77cfcea5457e17084)
REM AIRSS Version 0.9.1 bugfix July 2018 build 013d7b7c2542+ Fri, 06 Jul 2018 19:26:36 +0100
REM compiler GCC version 9.2.1 20190827 (Red Hat 9.2.1-1)
REM options -cpp -mtune=generic -march=x86-64 -g -O0 -fpre-include=/usr/include/finclude/math-vector-fortran.h
REM seed -1112883026 -280652670 1279889348 1671323032 1068866280 -840374078 -2022828191 -1150844252 869435008 1196700069 691656638 1341275237 -1107155066 1160377381 -645967072 1145126663 1248868604 1910569863 1674864677 1174145288 -835605832 1812489730 -1570912128 567207647 243733197 -36246663 1027379216 -1674006900 -274087061 1386839953 -2084535923 -698050194 -1694018308
REM
CELL 1.54180   50.00000   50.00000   50.00000   90.00000   90.00000   90.00000
LATT -1
SFAC C  
C      1  0.4724650000000  0.5961510000000  0.5150620000000 1.0
C      1  0.4723340000000  0.5446310000000  0.4097910000000 1.0
C      1  0.4731090000000  0.4335910000000  0.4289760000000 1.0
C      1  0.4757730000000  0.4068290000000  0.5467140000000 1.0
C      1  0.4816150000000  0.5173360000000  0.6030180000000 1.0
C      1  0.4435460000000  0.5752980000000  0.4378810000000 1.0
C      1  0.4418480000000  0.4658190000000  0.4071930000000 1.0
C      1  0.4540490000000  0.3915340000000  0.5052920000000 1.0
C      1  0.4494880000000  0.4727130000000  0.6005640000000 1.0
C      1  0.4416110000000  0.5810620000000  0.5532960000000 1.0
C      1  0.5632290000000  0.5788060000000  0.5710850000000 1.0
C      1  0.5633840000000  0.5907910000000  0.4451460000000 1.0
C      1  0.5622900000000  0.4775810000000  0.3914950000000 1.0
C      1  0.5620990000000  0.3934380000000  0.4816440000000 1.0
C      1  0.5636130000000  0.4519470000000  0.5959860000000 1.0
C      1  0.4287790000000  0.4838950000000  0.5835820000000 1.0
C      1  0.4249330000000  0.5578450000000  0.5496970000000 1.0
C      1  0.4289060000000  0.5647760000000  0.4600320000000 1.0
C      1  0.4278370000000  0.4835290000000  0.4246560000000 1.0
C      1  0.4290210000000  0.4267010000000  0.5044610000000 1.0
C      1  0.4834050000000  0.4952030000000  0.3952860000000 1.0
C      1  0.4847500000000  0.4077010000000  0.4703850000000 1.0
C      1  0.4846260000000  0.4412460000000  0.5830240000000 1.0
C      1  0.4847090000000  0.5622400000000  0.5779880000000 1.0
C      1  0.4850260000000  0.5940230000000  0.4635920000000 1.0
C      1  0.5350650000000  0.3936910000000  0.4818090000000 1.0
C      1  0.5364900000000  0.4505980000000  0.5972730000000 1.0
C      1  0.5363640000000  0.5801960000000  0.5748930000000 1.0
C      1  0.5367410000000  0.5960560000000  0.4457780000000 1.0
C      1  0.5358360000000  0.4796510000000  0.3852280000000 1.0
C      1  0.5541390000000  0.5149650000000  0.5985600000000 1.0
C      1  0.5522470000000  0.5997990000000  0.5130790000000 1.0
C      1  0.5532690000000  0.5428920000000  0.4095430000000 1.0
C      1  0.5586310000000  0.4332000000000  0.4310740000000 1.0
C      1  0.5565220000000  0.4129420000000  0.5398230000000 1.0
C      1  0.4147340000000  0.5270320000000  0.5046560000000 1.0
C      1  0.4157600000000  0.5148040000000  0.4762210000000 1.0
C      1  0.4152190000000  0.4834530000000  0.4800410000000 1.0
C      1  0.4122220000000  0.4759860000000  0.5103240000000 1.0
C      1  0.4127360000000  0.5035470000000  0.5243550000000 1.0
C      1  0.6062500000000  0.4960890000000  0.4494630000000 1.0
C      1  0.6029950000000  0.4492720000000  0.4896150000000 1.0
C      1  0.6097200000000  0.4710810000000  0.5448900000000 1.0
C      1  0.6103720000000  0.5300200000000  0.5420710000000 1.0
C      1  0.6102200000000  0.5477840000000  0.4831600000000 1.0
C      1  0.5407180000000  0.3909350000000  0.5465350000000 1.0
C      1  0.5400780000000  0.5314470000000  0.6161780000000 1.0
C      1  0.5362650000000  0.6176370000000  0.5274120000000 1.0
C      1  0.5371030000000  0.5604780000000  0.3949990000000 1.0
C      1  0.5404240000000  0.4211350000000  0.4132950000000 1.0
C      1  0.5155890000000  0.4184400000000  0.4040290000000 1.0
C      1  0.5178190000000  0.3788350000000  0.5521730000000 1.0
C      1  0.5181710000000  0.5362720000000  0.6304920000000 1.0
C      1  0.5114730000000  0.6252130000000  0.5330670000000 1.0
C      1  0.5126710000000  0.5687790000000  0.3887670000000 1.0
C      1  0.5873380000000  0.5785140000000  0.4482390000000 1.0
C      1  0.5851370000000  0.4764210000000  0.4061220000000 1.0
C      1  0.5877470000000  0.4019070000000  0.4830460000000 1.0
C      1  0.5893730000000  0.4575440000000  0.5893030000000 1.0
C      1  0.5877120000000  0.5721900000000  0.5615550000000 1.0
C      1  0.4556450000000  0.4869100000000  0.3905570000000 1.0
C      1  0.4585220000000  0.3982530000000  0.4775430000000 1.0
C      1  0.4565920000000  0.4453710000000  0.5904630000000 1.0
C      1  0.4569910000000  0.5703640000000  0.5774520000000 1.0
C      1  0.4577010000000  0.5973340000000  0.4532730000000 1.0
C      1  0.5744260000000  0.6098360000000  0.5004950000000 1.0
C      1  0.5774770000000  0.5359340000000  0.3988000000000 1.0
C      1  0.5846460000000  0.4249090000000  0.4312100000000 1.0
C      1  0.5834340000000  0.4107700000000  0.5447140000000 1.0
C      1  0.5785280000000  0.5060700000000  0.6075110000000 1.0
C      1  0.4927380000000  0.5292270000000  0.6261150000000 1.0
C      1  0.4869780000000  0.6164130000000  0.5278770000000 1.0
C      1  0.4874970000000  0.5628220000000  0.3948610000000 1.0
C      1  0.4898990000000  0.4241130000000  0.4085560000000 1.0
C      1  0.4918860000000  0.3846890000000  0.5527970000000 1.0
C      1  0.5444730000000  0.5332120000000  0.4348280000000 1.0
C      1  0.5487480000000  0.4538840000000  0.4477990000000 1.0
C      1  0.5452420000000  0.4362230000000  0.5278440000000 1.0
C      1  0.5450380000000  0.5087430000000  0.5721500000000 1.0
C      1  0.5456360000000  0.5721260000000  0.5118790000000 1.0
C      1  0.4837870000000  0.5184260000000  0.4145020000000 1.0
C      1  0.4846000000000  0.4335320000000  0.4553940000000 1.0
C      1  0.4859950000000  0.4323510000000  0.5547800000000 1.0
C      1  0.4867960000000  0.5321760000000  0.5786720000000 1.0
C      1  0.4848780000000  0.5830530000000  0.4920690000000 1.0
C      1  0.5008780000000  0.4822660000000  0.4832740000000 1.0
C      1  0.4791760000000  0.4741620000000  0.5276540000000 1.0
C      1  0.4846050000000  0.5211350000000  0.5278450000000 1.0
C      1  0.4859280000000  0.5307020000000  0.4855500000000 1.0
C      1  0.4866340000000  0.4940270000000  0.4607460000000 1.0
C      1  0.4630210000000  0.5421230000000  0.5239610000000 1.0
C      1  0.4639480000000  0.5339340000000  0.4680990000000 1.0
C      1  0.4624590000000  0.4786890000000  0.4563880000000 1.0
C      1  0.4578730000000  0.4568290000000  0.5171080000000 1.0
C      1  0.4574190000000  0.4918960000000  0.5503170000000 1.0
C      1  0.4362920000000  0.5112930000000  0.3912860000000 1.0
C      1  0.4370570000000  0.4070680000000  0.4596920000000 1.0
C      1  0.4363760000000  0.4304480000000  0.5728710000000 1.0
C      1  0.4366880000000  0.5435330000000  0.5901840000000 1.0
C      1  0.4378830000000  0.6050710000000  0.4762580000000 1.0
C      1  0.6203980000000  0.5215990000000  0.4908760000000 1.0
C      1  0.6188330000000  0.4956380000000  0.4754310000000 1.0
C      1  0.6188320000000  0.4731120000000  0.4947330000000 1.0
C      1  0.6220120000000  0.4848430000000  0.5225720000000 1.0
C      1  0.6217930000000  0.5148040000000  0.5200640000000 1.0
C      1  0.4020580000000  0.5207620000000  0.4308580000000 1.0
C      1  0.4016980000000  0.4439000000000  0.4575500000000 1.0
C      1  0.3942400000000  0.4431540000000  0.5377770000000 1.0
C      1  0.3962030000000  0.5223540000000  0.5632890000000 1.0
C      1  0.4014860000000  0.5715730000000  0.4964130000000 1.0
C      1  0.4014320000000  0.4905570000000  0.4325310000000 1.0
C      1  0.3897540000000  0.4379180000000  0.4838980000000 1.0
C      1  0.3870240000000  0.4689090000000  0.5521770000000 1.0
C      1  0.3987540000000  0.5471320000000  0.5458360000000 1.0
C      1  0.4018150000000  0.5602730000000  0.4681040000000 1.0
C      1  0.4463920000000  0.4960740000000  0.4412690000000 1.0
C      1  0.4482040000000  0.4451620000000  0.4934410000000 1.0
C      1  0.4374670000000  0.4712380000000  0.5576440000000 1.0
C      1  0.4453080000000  0.5377850000000  0.5464360000000 1.0
C      1  0.4479060000000  0.5552900000000  0.4787260000000 1.0
C      1  0.6027950000000  0.4790830000000  0.4267850000000 1.0
C      1  0.6067150000000  0.4213780000000  0.4854710000000 1.0
C      1  0.6100020000000  0.4661490000000  0.5733110000000 1.0
C      1  0.6074550000000  0.5574820000000  0.5497710000000 1.0
C      1  0.6065680000000  0.5622540000000  0.4587000000000 1.0
C      1  0.5178860000000  0.5346250000000  0.4452160000000 1.0
C      1  0.5219480000000  0.4624890000000  0.4447830000000 1.0
C      1  0.5184540000000  0.4416440000000  0.5202690000000 1.0
C      1  0.5191370000000  0.5009320000000  0.5623400000000 1.0
C      1  0.5200000000000  0.5594640000000  0.5163140000000 1.0
C      1  0.3973260000000  0.5326890000000  0.4579130000000 1.0
C      1  0.3984910000000  0.4733410000000  0.4559160000000 1.0
C      1  0.3922320000000  0.4515990000000  0.5093520000000 1.0
C      1  0.3920400000000  0.4979430000000  0.5473150000000 1.0
C      1  0.3958130000000  0.5495890000000  0.5160630000000 1.0
C      1  0.5550900000000  0.5081710000000  0.5249570000000 1.0
C      1  0.5576220000000  0.5269170000000  0.5036650000000 1.0
C      1  0.5516020000000  0.5141140000000  0.4787620000000 1.0
C      1  0.5427070000000  0.4869330000000  0.4840610000000 1.0
C      1  0.5473060000000  0.4833070000000  0.5134520000000 1.0
C      1  0.5750270000000  0.4541770000000  0.4912400000000 1.0
C      1  0.5842990000000  0.4617810000000  0.5374910000000 1.0
C      1  0.5907750000000  0.5152160000000  0.5560090000000 1.0
C      1  0.5927590000000  0.5587810000000  0.5025600000000 1.0
C      1  0.5881490000000  0.5174030000000  0.4476540000000 1.0
C      1  0.5154260000000  0.4844890000000  0.4272240000000 1.0
C      1  0.5128440000000  0.4351440000000  0.4933530000000 1.0
C      1  0.5120040000000  0.4731490000000  0.5622820000000 1.0
C      1  0.5146370000000  0.5514250000000  0.5438180000000 1.0
C      1  0.5138020000000  0.5578910000000  0.4622200000000 1.0
C      1  0.4326640000000  0.4623160000000  0.5306300000000 1.0
C      1  0.4387190000000  0.5115660000000  0.5424020000000 1.0
C      1  0.4424250000000  0.5454040000000  0.5038660000000 1.0
C      1  0.4427810000000  0.5172850000000  0.4584380000000 1.0
C      1  0.4455480000000  0.4643580000000  0.4736890000000 1.0
C      1  0.5638300000000  0.5109210000000  0.5513250000000 1.0
C      1  0.5658780000000  0.5533580000000  0.5067470000000 1.0
C      1  0.5618610000000  0.5224110000000  0.4539050000000 1.0
C      1  0.5583600000000  0.4653420000000  0.4714970000000 1.0
C      1  0.5630860000000  0.4579250000000  0.5187110000000 1.0
C      1  0.4690310000000  0.4922440000000  0.6070030000000 1.0
C      1  0.4450870000000  0.5920160000000  0.5248690000000 1.0
C      1  0.4456860000000  0.5528010000000  0.4181860000000 1.0
C      1  0.4454380000000  0.4412050000000  0.4238400000000 1.0
C      1  0.4523800000000  0.4022450000000  0.5318080000000 1.0
C      1  0.4250880000000  0.5924660000000  0.5014420000000 1.0
C      1  0.4250530000000  0.5312920000000  0.4116780000000 1.0
C      1  0.4256260000000  0.4298770000000  0.4446550000000 1.0
C      1  0.4237920000000  0.4224290000000  0.5414130000000 1.0
C      1  0.4189380000000  0.5174170000000  0.5837210000000 1.0
C      1  0.5109530000000  0.4833260000000  0.3984630000000 1.0
C      1  0.5105230000000  0.4074390000000  0.4843190000000 1.0
C      1  0.5107350000000  0.4560330000000  0.5863440000000 1.0
C      1  0.5112880000000  0.5700140000000  0.5662680000000 1.0
C      1  0.5114390000000  0.5853720000000  0.4528270000000 1.0
C      1  0.5047200000000  0.4538420000000  0.4705670000000 1.0
C      1  0.4998700000000  0.4561790000000  0.5392650000000 1.0
C      1  0.5020120000000  0.5240850000000  0.5520010000000 1.0
C      1  0.5022060000000  0.5555710000000  0.4909880000000 1.0
C      1  0.5010340000000  0.5092930000000  0.4392210000000 1.0
C      1  0.4568710000000  0.4997430000000  0.4973910000000 1.0
C      1  0.4856670000000  0.4972830000000  0.5077000000000 1.0
END
