TITL C-3201373-1215-1565 3.45530101044812e-08 125000 -230.26495425363 0 0 38 (Ci) n - 1
REM
REM in /home/nfs/bkarasulu/CARBON/AIRSS/Generating-Clusters/LCBOP/Higher-Symm/SD-CG/FIRE-CG
REM
REM
REM
REM
REM
REM ./C.cell (b20cbc046b6831c77cfcea5457e17084)
REM AIRSS Version 0.9.1 bugfix July 2018 build 013d7b7c2542+ Fri, 06 Jul 2018 19:26:36 +0100
REM compiler GCC version 9.2.1 20190827 (Red Hat 9.2.1-1)
REM options -cpp -mtune=generic -march=x86-64 -g -O0 -fpre-include=/usr/include/finclude/math-vector-fortran.h
REM seed 1942429257 1936553045 243490240 -1515821137 -786062867 -209048338 1832290797 -1662841524 -1767523962 -1118694240 620542325 -1101441946 -1717594254 -1311288079 1879314054 463649738 -39516812 -288804902 -1571052673 -908435943 -1719739662 1013918713 490284625 -293415652 -1154100408 -1943491149 -853052486 -861748112 -909738036 1518604686 1410832684 -48749897 251068422
REM
CELL 1.54180   50.00000   50.00000   50.00000   90.00000   90.00000   90.00000
LATT -1
SFAC C  
C      1  0.5220560000000  0.4355310000000  0.4814070000000 1.0
C      1  0.4779440000000  0.5644690000000  0.5185930000000 1.0
C      1  0.5609860000000  0.4882510000000  0.4930640000000 1.0
C      1  0.4390140000000  0.5117490000000  0.5069360000000 1.0
C      1  0.4769790000000  0.5273840000000  0.5501620000000 1.0
C      1  0.5230210000000  0.4726160000000  0.4498380000000 1.0
C      1  0.4671530000000  0.4435280000000  0.5261470000000 1.0
C      1  0.5328470000000  0.5564720000000  0.4738530000000 1.0
C      1  0.5481970000000  0.4858020000000  0.5438980000000 1.0
C      1  0.4518030000000  0.5141980000000  0.4561020000000 1.0
C      1  0.4531390000000  0.4918130000000  0.5225900000000 1.0
C      1  0.5468610000000  0.5081870000000  0.4774100000000 1.0
C      1  0.5007160000000  0.5119230000000  0.4630820000000 1.0
C      1  0.4992840000000  0.4880770000000  0.5369180000000 1.0
C      1  0.5262910000000  0.4996580000000  0.4579750000000 1.0
C      1  0.4737090000000  0.5003420000000  0.5420250000000 1.0
C      1  0.4565370000000  0.4652260000000  0.5112270000000 1.0
C      1  0.5434630000000  0.5347740000000  0.4887730000000 1.0
C      1  0.4960890000000  0.5085910000000  0.4906180000000 1.0
C      1  0.5039110000000  0.4914090000000  0.5093820000000 1.0
C      1  0.4881750000000  0.4274720000000  0.5207790000000 1.0
C      1  0.5118250000000  0.5725280000000  0.4792210000000 1.0
C      1  0.5621500000000  0.4902650000000  0.5213510000000 1.0
C      1  0.4378500000000  0.5097350000000  0.4786490000000 1.0
C      1  0.4774870000000  0.5164730000000  0.4480850000000 1.0
C      1  0.5225130000000  0.4835270000000  0.5519150000000 1.0
C      1  0.5499200000000  0.4398020000000  0.4820480000000 1.0
C      1  0.4500800000000  0.5601980000000  0.5179520000000 1.0
C      1  0.5649220000000  0.4621110000000  0.4831260000000 1.0
C      1  0.4350780000000  0.5378890000000  0.5168740000000 1.0
C      1  0.5201870000000  0.5450160000000  0.5342170000000 1.0
C      1  0.4798130000000  0.4549840000000  0.4657830000000 1.0
C      1  0.4919280000000  0.5758370000000  0.4969410000000 1.0
C      1  0.5080720000000  0.4241630000000  0.5030590000000 1.0
C      1  0.5395900000000  0.5382890000000  0.5167970000000 1.0
C      1  0.4604100000000  0.4617110000000  0.4832030000000 1.0
C      1  0.4922200000000  0.5478820000000  0.5373310000000 1.0
C      1  0.5077800000000  0.4521180000000  0.4626690000000 1.0
END
