TITL C-3201373-1215-1542 3.64136719520189e-07 125000 -110.746527462612 0 0 21 (C1) n - 1
REM
REM in /home/nfs/bkarasulu/CARBON/AIRSS/Generating-Clusters/LCBOP/Higher-Symm/SD-CG/FIRE-CG
REM
REM
REM
REM
REM
REM ./C.cell (b20cbc046b6831c77cfcea5457e17084)
REM AIRSS Version 0.9.1 bugfix July 2018 build 013d7b7c2542+ Fri, 06 Jul 2018 19:26:36 +0100
REM compiler GCC version 9.2.1 20190827 (Red Hat 9.2.1-1)
REM options -cpp -mtune=generic -march=x86-64 -g -O0 -fpre-include=/usr/include/finclude/math-vector-fortran.h
REM seed 321648111 1020375421 1087525950 713146054 -742813411 1081937959 1343282401 1391439772 -1861251042 -1264064461 -1748943440 -910804443 -971291201 -1293885771 -779979813 2026790321 1676569184 911122369 575683847 1079646953 -46811142 76074214 -1468390433 193614897 1508274977 -1712994902 -1842461719 1458179655 25878873 1832176770 -1748341134 874076728 -2110916348
REM
CELL 1.54180   50.00000   50.00000   50.00000   90.00000   90.00000   90.00000
LATT -1
SFAC C  
C      1  0.5443960000000  0.5191640000000  0.5226310000000 1.0
C      1  0.5064970000000  0.4505560000000  0.5249070000000 1.0
C      1  0.4495080000000  0.5089100000000  0.5065590000000 1.0
C      1  0.5225590000000  0.4659210000000  0.4619850000000 1.0
C      1  0.5387630000000  0.5289570000000  0.4782220000000 1.0
C      1  0.4940330000000  0.4859710000000  0.5511790000000 1.0
C      1  0.4758080000000  0.5443240000000  0.4941500000000 1.0
C      1  0.4781620000000  0.4757150000000  0.4562580000000 1.0
C      1  0.5036830000000  0.4416200000000  0.5512750000000 1.0
C      1  0.4334370000000  0.5317250000000  0.5044550000000 1.0
C      1  0.5134450000000  0.4530800000000  0.4388500000000 1.0
C      1  0.5653030000000  0.5358400000000  0.5143930000000 1.0
C      1  0.4961030000000  0.4631570000000  0.5672560000000 1.0
C      1  0.4494340000000  0.5532600000000  0.4969080000000 1.0
C      1  0.4864440000000  0.4590380000000  0.4353690000000 1.0
C      1  0.5618790000000  0.5417980000000  0.4873850000000 1.0
C      1  0.5005330000000  0.4793090000000  0.5232540000000 1.0
C      1  0.5006340000000  0.4810980000000  0.4744530000000 1.0
C      1  0.5262490000000  0.5137810000000  0.5001200000000 1.0
C      1  0.4774470000000  0.5155710000000  0.5001180000000 1.0
C      1  0.5012160000000  0.4974400000000  0.4994860000000 1.0
END
