TITL C-3201372-1405-209 -2.64118623498341e-07 125000 -18.9723641415037 0 0 4 (D(inf)h) n - 1
REM
REM in /home/nfs/bkarasulu/CARBON/AIRSS/Generating-Clusters/LCBOP/Higher-Symm/SD-CG/FIRE-CG
REM
REM
REM
REM
REM
REM ./C.cell (b20cbc046b6831c77cfcea5457e17084)
REM AIRSS Version 0.9.1 bugfix July 2018 build 013d7b7c2542+ Fri, 06 Jul 2018 19:26:36 +0100
REM compiler GCC version 9.2.1 20190827 (Red Hat 9.2.1-1)
REM options -cpp -mtune=generic -march=x86-64 -g -O0 -fpre-include=/usr/include/finclude/math-vector-fortran.h
REM seed 913484272 1830896263 -1673549909 -628133444 -1410765633 -105062232 -1199950521 -568426627 -1989927039 1830655232 1517897396 -1657295768 -1543781001 491302071 -2133299731 723293594 1976047740 -9170614 -1696466600 1095598280 -124687780 1227083935 362526613 36812821 -1643605436 1902694766 -509520182 -378311570 -1394008728 -1753665925 -296162390 -2051641656 -841924299
REM
CELL 1.54180   50.00000   50.00000   50.00000   90.00000   90.00000   90.00000
LATT -1
SFAC C  
C      1  0.5034100000000  0.5071250000000  0.5132570000000 1.0
C      1  0.5034100000000  0.5071250000000  0.4606730000000 1.0
C      1  0.5034100000000  0.5071250000000  0.4867430000000 1.0
C      1  0.5034100000000  0.5071250000000  0.5393270000000 1.0
END
