TITL C-3201379-3821-2180 125365.387254238 125000 -1125.24165061431 0 0 187 (C1) n - 1
REM
REM in /home/nfs/bkarasulu/CARBON/AIRSS/Generating-Clusters/LCBOP/Higher-Symm/SD-CG/FIRE-CG
REM
REM
REM
REM
REM
REM ./C.cell (b20cbc046b6831c77cfcea5457e17084)
REM AIRSS Version 0.9.1 bugfix July 2018 build 013d7b7c2542+ Fri, 06 Jul 2018 19:26:36 +0100
REM compiler GCC version 9.2.1 20190827 (Red Hat 9.2.1-1)
REM options -cpp -mtune=generic -march=x86-64 -g -O0 -fpre-include=/usr/include/finclude/math-vector-fortran.h
REM seed -296050975 -815065919 -974076559 237091128 1840219605 -468306079 -1027498942 1082275918 -184710272 2072738679 -951571490 963673537 114632172 153750915 699119559 1847250471 1274499489 -994788086 1889126034 -1188034599 -2075778119 1447439916 1610752608 -1179815120 1829588401 -1255871609 -1846023254 724399096 620804965 1439743316 -955467007 -639156338 -339032368
REM
CELL 1.54180   50.00000   50.00000   50.00000   90.00000   90.00000   90.00000
LATT -1
SFAC C  
C      1  0.4476820000000  0.4422880000000  0.4223730000000 1.0
C      1  0.5962720000000  0.4479600000000  0.4933840000000 1.0
C      1  0.4532850000000  0.4371520000000  0.5912820000000 1.0
C      1  0.4530520000000  0.5646580000000  0.4159890000000 1.0
C      1  0.5999340000000  0.5607670000000  0.4951280000000 1.0
C      1  0.4572650000000  0.5581910000000  0.5824560000000 1.0
C      1  0.5005470000000  0.4809870000000  0.5638220000000 1.0
C      1  0.4460670000000  0.4923950000000  0.4723120000000 1.0
C      1  0.5498710000000  0.4940810000000  0.4564940000000 1.0
C      1  0.5015880000000  0.5073770000000  0.5563410000000 1.0
C      1  0.4467030000000  0.5190560000000  0.4664610000000 1.0
C      1  0.5583500000000  0.5199440000000  0.4551030000000 1.0
C      1  0.5731190000000  0.5164730000000  0.4148070000000 1.0
C      1  0.5332270000000  0.5124170000000  0.5993640000000 1.0
C      1  0.3965750000000  0.5186780000000  0.4796270000000 1.0
C      1  0.5728860000000  0.4864780000000  0.4165700000000 1.0
C      1  0.5337810000000  0.4834220000000  0.6003000000000 1.0
C      1  0.3973340000000  0.4887590000000  0.4820850000000 1.0
C      1  0.4995490000000  0.5529830000000  0.4372800000000 1.0
C      1  0.5512100000000  0.5454520000000  0.5189980000000 1.0
C      1  0.4496300000000  0.5631840000000  0.5254160000000 1.0
C      1  0.5012140000000  0.4544760000000  0.4416540000000 1.0
C      1  0.5499620000000  0.4497430000000  0.5247120000000 1.0
C      1  0.4410290000000  0.4526770000000  0.5447420000000 1.0
C      1  0.4283520000000  0.5208560000000  0.5829720000000 1.0
C      1  0.4669780000000  0.5102810000000  0.3974450000000 1.0
C      1  0.6050640000000  0.5170700000000  0.5215830000000 1.0
C      1  0.4240120000000  0.4915050000000  0.5847650000000 1.0
C      1  0.4654380000000  0.4807500000000  0.3969080000000 1.0
C      1  0.6048260000000  0.4871900000000  0.5209090000000 1.0
C      1  0.5909450000000  0.4442720000000  0.4350030000000 1.0
C      1  0.5097310000000  0.4414200000000  0.6106330000000 1.0
C      1  0.4025490000000  0.4443190000000  0.4615670000000 1.0
C      1  0.5894870000000  0.5622340000000  0.4319120000000 1.0
C      1  0.5099400000000  0.5551720000000  0.6010190000000 1.0
C      1  0.4042100000000  0.5603010000000  0.4515330000000 1.0
C      1  0.5301970000000  0.4486960000000  0.4481780000000 1.0
C      1  0.5335580000000  0.4480990000000  0.5505060000000 1.0
C      1  0.4396030000000  0.4494140000000  0.5157680000000 1.0
C      1  0.5258470000000  0.5507380000000  0.4488540000000 1.0
C      1  0.5369020000000  0.5358790000000  0.5429450000000 1.0
C      1  0.4340400000000  0.5571300000000  0.5009230000000 1.0
C      1  0.5072770000000  0.5226300000000  0.5112930000000 1.0
C      1  0.4642760000000  0.5268970000000  0.5075920000000 1.0
C      1  0.5084960000000  0.5248600000000  0.4827980000000 1.0
C      1  0.5158890000000  0.4774750000000  0.5227540000000 1.0
C      1  0.4742090000000  0.4699490000000  0.4995260000000 1.0
C      1  0.5157550000000  0.4747190000000  0.4794870000000 1.0
C      1  0.5281570000000  0.5849950000000  0.4213680000000 1.0
C      1  0.5560160000000  0.5736140000000  0.5568470000000 1.0
C      1  0.4122730000000  0.5876630000000  0.5228420000000 1.0
C      1  0.5235980000000  0.4212040000000  0.4152880000000 1.0
C      1  0.5651370000000  0.4211000000000  0.5625490000000 1.0
C      1  0.4128910000000  0.4169100000000  0.5265820000000 1.0
C      1  0.4719860000000  0.5881650000000  0.4183390000000 1.0
C      1  0.5850160000000  0.5791600000000  0.5129290000000 1.0
C      1  0.4492440000000  0.5825070000000  0.5665710000000 1.0
C      1  0.4699270000000  0.4231040000000  0.4242890000000 1.0
C      1  0.5879750000000  0.4254580000000  0.5102010000000 1.0
C      1  0.4430030000000  0.4149540000000  0.5758190000000 1.0
C      1  0.5330290000000  0.5606910000000  0.4998420000000 1.0
C      1  0.4777670000000  0.5643600000000  0.5242390000000 1.0
C      1  0.4670360000000  0.5623980000000  0.4707460000000 1.0
C      1  0.5360700000000  0.4371100000000  0.5004020000000 1.0
C      1  0.4891410000000  0.4367750000000  0.5462960000000 1.0
C      1  0.4807080000000  0.4229540000000  0.5008890000000 1.0
C      1  0.4988410000000  0.5768040000000  0.4194550000000 1.0
C      1  0.5740620000000  0.5608690000000  0.5342930000000 1.0
C      1  0.4293250000000  0.5722820000000  0.5454240000000 1.0
C      1  0.4955890000000  0.4377750000000  0.4153850000000 1.0
C      1  0.5779750000000  0.4395480000000  0.5353510000000 1.0
C      1  0.4278000000000  0.4261080000000  0.5536970000000 1.0
C      1  0.3993100000000  0.4741540000000  0.5099640000000 1.0
C      1  0.5476780000000  0.4699140000000  0.4086290000000 1.0
C      1  0.5560620000000  0.4697890000000  0.5841420000000 1.0
C      1  0.3956810000000  0.5355970000000  0.5059930000000 1.0
C      1  0.5454900000000  0.5303000000000  0.4097210000000 1.0
C      1  0.5545430000000  0.5261280000000  0.5833890000000 1.0
C      1  0.4853110000000  0.6325080000000  0.5117580000000 1.0
C      1  0.5006270000000  0.6286920000000  0.4798630000000 1.0
C      1  0.5213800000000  0.6290660000000  0.5112570000000 1.0
C      1  0.4993620000000  0.3202460000000  0.4862160000000 1.0
C      1  0.4983330000000  0.3665140000000  0.4618310000000 1.0
C      1  0.4986990000000  0.3419660000000  0.4718070000000 1.0
C      1  0.4065930000000  0.4831510000000  0.5625160000000 1.0
C      1  0.4934800000000  0.4652010000000  0.3963300000000 1.0
C      1  0.5906760000000  0.4699260000000  0.5432450000000 1.0
C      1  0.4163310000000  0.5387370000000  0.5548460000000 1.0
C      1  0.4922790000000  0.5182830000000  0.4086240000000 1.0
C      1  0.5904830000000  0.5309350000000  0.5444500000000 1.0
C      1  0.4589030000000  0.5291430000000  0.4435250000000 1.0
C      1  0.5670540000000  0.5341260000000  0.4765160000000 1.0
C      1  0.4766260000000  0.5208120000000  0.5578710000000 1.0
C      1  0.4571850000000  0.4730340000000  0.4556880000000 1.0
C      1  0.5638030000000  0.4796590000000  0.4767420000000 1.0
C      1  0.4765570000000  0.4702960000000  0.5721790000000 1.0
C      1  0.5298660000000  0.4504810000000  0.4766160000000 1.0
C      1  0.5085580000000  0.4602640000000  0.5446490000000 1.0
C      1  0.4631200000000  0.4446220000000  0.5002680000000 1.0
C      1  0.5246510000000  0.5473620000000  0.4762660000000 1.0
C      1  0.4860030000000  0.5392500000000  0.5176360000000 1.0
C      1  0.4520440000000  0.5406210000000  0.4860540000000 1.0
C      1  0.5631200000000  0.5982010000000  0.5000050000000 1.0
C      1  0.4733520000000  0.5997280000000  0.5530300000000 1.0
C      1  0.4681280000000  0.6062890000000  0.4439450000000 1.0
C      1  0.5688430000000  0.4042700000000  0.4990470000000 1.0
C      1  0.4694950000000  0.3944350000000  0.5633270000000 1.0
C      1  0.4701270000000  0.4068230000000  0.4507890000000 1.0
C      1  0.5076440000000  0.5267920000000  0.6064780000000 1.0
C      1  0.4032700000000  0.5310550000000  0.4516510000000 1.0
C      1  0.5936090000000  0.5325020000000  0.4329570000000 1.0
C      1  0.5085770000000  0.4702380000000  0.6108990000000 1.0
C      1  0.4022120000000  0.4731700000000  0.4567880000000 1.0
C      1  0.5932950000000  0.4734650000000  0.4347970000000 1.0
C      1  0.5009800000000  0.4087510000000  0.4878840000000 1.0
C      1  0.5247560000000  0.4107960000000  0.5025130000000 1.0
C      1  0.4815680000000  0.4169560000000  0.5281410000000 1.0
C      1  0.4850800000000  0.5820250000000  0.4794170000000 1.0
C      1  0.5185730000000  0.5829820000000  0.5089020000000 1.0
C      1  0.4889760000000  0.5858570000000  0.5083360000000 1.0
C      1  0.5414580000000  0.4444970000000  0.4219220000000 1.0
C      1  0.5502440000000  0.4431010000000  0.5735820000000 1.0
C      1  0.4112110000000  0.4443180000000  0.5127010000000 1.0
C      1  0.5409080000000  0.5571420000000  0.4245270000000 1.0
C      1  0.5453470000000  0.5482910000000  0.5675390000000 1.0
C      1  0.4066150000000  0.5634270000000  0.5054620000000 1.0
C      1  0.4874270000000  0.5259660000000  0.4373370000000 1.0
C      1  0.5610850000000  0.5225300000000  0.5018470000000 1.0
C      1  0.4558800000000  0.5029050000000  0.5461630000000 1.0
C      1  0.4836330000000  0.4751290000000  0.4485330000000 1.0
C      1  0.5593380000000  0.4938830000000  0.5019010000000 1.0
C      1  0.4543980000000  0.4759700000000  0.5556390000000 1.0
C      1  0.5013790000000  0.4243900000000  0.5891190000000 1.0
C      1  0.4279120000000  0.4309760000000  0.4647520000000 1.0
C      1  0.5740970000000  0.4323880000000  0.4552360000000 1.0
C      1  0.5016870000000  0.5649780000000  0.5756800000000 1.0
C      1  0.4275340000000  0.5765950000000  0.4536170000000 1.0
C      1  0.5762220000000  0.5766480000000  0.4536870000000 1.0
C      1  0.4767110000000  0.4861620000000  0.6122930000000 1.0
C      1  0.4181510000000  0.4865020000000  0.4283860000000 1.0
C      1  0.6074320000000  0.4892880000000  0.4629780000000 1.0
C      1  0.4785450000000  0.5155350000000  0.6083760000000 1.0
C      1  0.4176580000000  0.5169620000000  0.4265210000000 1.0
C      1  0.6077340000000  0.5179540000000  0.4628190000000 1.0
C      1  0.5182700000000  0.5175090000000  0.5368590000000 1.0
C      1  0.4515690000000  0.5055220000000  0.5187590000000 1.0
C      1  0.5006210000000  0.5096360000000  0.4578650000000 1.0
C      1  0.5442830000000  0.4786460000000  0.5193540000000 1.0
C      1  0.4519270000000  0.4866070000000  0.4984530000000 1.0
C      1  0.5225730000000  0.4916950000000  0.4582690000000 1.0
C      1  0.4952710000000  0.6053810000000  0.4622790000000 1.0
C      1  0.5359360000000  0.6045430000000  0.5197660000000 1.0
C      1  0.4706630000000  0.6085590000000  0.5194180000000 1.0
C      1  0.4984840000000  0.3961470000000  0.4607160000000 1.0
C      1  0.5450560000000  0.3973250000000  0.5175540000000 1.0
C      1  0.4636600000000  0.3962750000000  0.5348400000000 1.0
C      1  0.4387030000000  0.6036080000000  0.5026420000000 1.0
C      1  0.5290510000000  0.5993380000000  0.4492380000000 1.0
C      1  0.5348220000000  0.5946550000000  0.5499770000000 1.0
C      1  0.4381440000000  0.4004460000000  0.5101310000000 1.0
C      1  0.5285250000000  0.4037250000000  0.4448140000000 1.0
C      1  0.5375950000000  0.4006070000000  0.5519840000000 1.0
C      1  0.5559630000000  0.5957180000000  0.4657390000000 1.0
C      1  0.5055930000000  0.5899070000000  0.5610310000000 1.0
C      1  0.4408840000000  0.6001330000000  0.4667980000000 1.0
C      1  0.5583700000000  0.4092800000000  0.4640720000000 1.0
C      1  0.5054800000000  0.4020340000000  0.5700470000000 1.0
C      1  0.4433670000000  0.4086280000000  0.4754400000000 1.0
C      1  0.6104430000000  0.5327670000000  0.4956060000000 1.0
C      1  0.4502840000000  0.5336510000000  0.5966910000000 1.0
C      1  0.4411530000000  0.5324490000000  0.4044640000000 1.0
C      1  0.6091260000000  0.4738740000000  0.4945490000000 1.0
C      1  0.4461910000000  0.4701670000000  0.6028670000000 1.0
C      1  0.4417730000000  0.4683490000000  0.4100300000000 1.0
C      1  0.5750070000000  0.4533440000000  0.4750860000000 1.0
C      1  0.4794230000000  0.4411760000000  0.5759150000000 1.0
C      1  0.4445320000000  0.4488420000000  0.4501080000000 1.0
C      1  0.5807020000000  0.5579520000000  0.4745240000000 1.0
C      1  0.4798080000000  0.5480340000000  0.5670770000000 1.0
C      1  0.4517040000000  0.5588550000000  0.4450940000000 1.0
C      1  0.4018510000000  0.5222860000000  0.5323960000000 1.0
C      1  0.5203920000000  0.5119240000000  0.4024850000000 1.0
C      1  0.5769500000000  0.5138320000000  0.5671720000000 1.0
C      1  0.4004810000000  0.4924260000000  0.5351070000000 1.0
C      1  0.5228660000000  0.4827900000000  0.3982130000000 1.0
C      1  0.5767140000000  0.4843230000000  0.5666990000000 1.0
C      1  0.4999250000000  0.4774660000000  0.5009010000000 1.0
END
