TITL C-3201372-1405-1007 -1.432121050769e-06 125000 -613.606059229681 0 0 102 (C1) n - 1
REM
REM in /home/nfs/bkarasulu/CARBON/AIRSS/Generating-Clusters/LCBOP/Higher-Symm/SD-CG/FIRE-CG
REM
REM
REM
REM
REM
REM ./C.cell (b20cbc046b6831c77cfcea5457e17084)
REM AIRSS Version 0.9.1 bugfix July 2018 build 013d7b7c2542+ Fri, 06 Jul 2018 19:26:36 +0100
REM compiler GCC version 9.2.1 20190827 (Red Hat 9.2.1-1)
REM options -cpp -mtune=generic -march=x86-64 -g -O0 -fpre-include=/usr/include/finclude/math-vector-fortran.h
REM seed -1602842416 2135837536 1281626153 867833636 831643407 747867583 -1664685974 -1028190775 894190692 346200140 941242314 402111476 -621453502 40949961 -1278690738 -1397143887 687370699 151987170 -1194609979 16479550 -1040419374 505469251 -868268051 -1454548936 -1863646453 -110304893 472266791 -1044826137 280231231 1260524586 -1150087530 -1609815533 -1228315464
REM
CELL 1.54180   50.00000   50.00000   50.00000   90.00000   90.00000   90.00000
LATT -1
SFAC C  
C      1  0.5194370000000  0.5207410000000  0.5402720000000 1.0
C      1  0.4594980000000  0.4655690000000  0.4705690000000 1.0
C      1  0.5218300000000  0.4624790000000  0.4164840000000 1.0
C      1  0.4815860000000  0.5366270000000  0.5876730000000 1.0
C      1  0.5024230000000  0.4435750000000  0.4910060000000 1.0
C      1  0.4899800000000  0.5485350000000  0.5066840000000 1.0
C      1  0.4880960000000  0.5231790000000  0.4955150000000 1.0
C      1  0.5185200000000  0.4569130000000  0.5093720000000 1.0
C      1  0.5893700000000  0.4960620000000  0.4949900000000 1.0
C      1  0.4043950000000  0.5018020000000  0.4777980000000 1.0
C      1  0.5348190000000  0.4488340000000  0.5648770000000 1.0
C      1  0.4607950000000  0.5424090000000  0.4406010000000 1.0
C      1  0.4901910000000  0.5225450000000  0.5420940000000 1.0
C      1  0.5173040000000  0.4738410000000  0.4596200000000 1.0
C      1  0.4755290000000  0.4299570000000  0.5392130000000 1.0
C      1  0.5294840000000  0.5618040000000  0.4494190000000 1.0
C      1  0.5525090000000  0.5170110000000  0.4345220000000 1.0
C      1  0.4435570000000  0.5095160000000  0.5935930000000 1.0
C      1  0.5719380000000  0.5390930000000  0.4969270000000 1.0
C      1  0.4361150000000  0.4640480000000  0.4886300000000 1.0
C      1  0.4907560000000  0.5907510000000  0.4937580000000 1.0
C      1  0.5203080000000  0.4049170000000  0.5031090000000 1.0
C      1  0.4507130000000  0.5069360000000  0.5179780000000 1.0
C      1  0.5091690000000  0.5042160000000  0.4943030000000 1.0
C      1  0.5553150000000  0.4313010000000  0.5557820000000 1.0
C      1  0.4447160000000  0.5630180000000  0.4516230000000 1.0
C      1  0.4783410000000  0.5029510000000  0.4202700000000 1.0
C      1  0.5156900000000  0.4906690000000  0.5805170000000 1.0
C      1  0.6134920000000  0.5790670000000  0.4537210000000 1.0
C      1  0.3908810000000  0.4450560000000  0.5406920000000 1.0
C      1  0.5607630000000  0.4904130000000  0.4456150000000 1.0
C      1  0.4339270000000  0.5306070000000  0.5766920000000 1.0
C      1  0.4421160000000  0.4711030000000  0.4220140000000 1.0
C      1  0.5569120000000  0.5180420000000  0.5672500000000 1.0
C      1  0.4832360000000  0.4357460000000  0.4341410000000 1.0
C      1  0.5179110000000  0.5601950000000  0.5646220000000 1.0
C      1  0.4695320000000  0.5986930000000  0.5130320000000 1.0
C      1  0.5447870000000  0.4196770000000  0.4913140000000 1.0
C      1  0.4721820000000  0.5083130000000  0.5931010000000 1.0
C      1  0.5327520000000  0.5152890000000  0.4126670000000 1.0
C      1  0.4941790000000  0.5697230000000  0.5516520000000 1.0
C      1  0.5082130000000  0.4270940000000  0.4458400000000 1.0
C      1  0.4613310000000  0.4962630000000  0.4666690000000 1.0
C      1  0.5277490000000  0.4937130000000  0.5370610000000 1.0
C      1  0.5000160000000  0.4185790000000  0.5478540000000 1.0
C      1  0.5022320000000  0.5712950000000  0.4480660000000 1.0
C      1  0.4699600000000  0.4767210000000  0.4138530000000 1.0
C      1  0.5298100000000  0.5168540000000  0.5836100000000 1.0
C      1  0.5654010000000  0.4232860000000  0.4693630000000 1.0
C      1  0.4498390000000  0.5805730000000  0.5261170000000 1.0
C      1  0.4625050000000  0.5138400000000  0.4424440000000 1.0
C      1  0.5300010000000  0.4761230000000  0.5600830000000 1.0
C      1  0.4679170000000  0.6255680000000  0.5194050000000 1.0
C      1  0.5445690000000  0.4470800000000  0.5027320000000 1.0
C      1  0.5112610000000  0.4331910000000  0.5698400000000 1.0
C      1  0.4850830000000  0.5554700000000  0.4312010000000 1.0
C      1  0.5474110000000  0.4079060000000  0.5437050000000 1.0
C      1  0.4570930000000  0.5861970000000  0.4594280000000 1.0
C      1  0.5318710000000  0.5480320000000  0.5411420000000 1.0
C      1  0.4660920000000  0.4389520000000  0.4583280000000 1.0
C      1  0.5320560000000  0.5651270000000  0.5177780000000 1.0
C      1  0.4702880000000  0.4161540000000  0.4773260000000 1.0
C      1  0.5716800000000  0.5163660000000  0.5427950000000 1.0
C      1  0.4225810000000  0.4723570000000  0.4416680000000 1.0
C      1  0.6068630000000  0.4484380000000  0.4912580000000 1.0
C      1  0.4148700000000  0.5505540000000  0.4960300000000 1.0
C      1  0.4911940000000  0.4573400000000  0.4163910000000 1.0
C      1  0.5113230000000  0.5403400000000  0.5846380000000 1.0
C      1  0.5493490000000  0.4640460000000  0.4321560000000 1.0
C      1  0.4559480000000  0.5509090000000  0.5745430000000 1.0
C      1  0.4509240000000  0.5717850000000  0.5543840000000 1.0
C      1  0.5586440000000  0.4385870000000  0.4449930000000 1.0
C      1  0.5054380000000  0.5130390000000  0.4211800000000 1.0
C      1  0.4863520000000  0.4872940000000  0.5789910000000 1.0
C      1  0.4386610000000  0.4567960000000  0.5174050000000 1.0
C      1  0.5720450000000  0.5484500000000  0.4701080000000 1.0
C      1  0.4626170000000  0.5107290000000  0.4920770000000 1.0
C      1  0.5172530000000  0.4843470000000  0.5131610000000 1.0
C      1  0.4725900000000  0.4780190000000  0.5530360000000 1.0
C      1  0.5086790000000  0.5185570000000  0.4494460000000 1.0
C      1  0.4946360000000  0.4159010000000  0.4931630000000 1.0
C      1  0.5084590000000  0.5699920000000  0.5025850000000 1.0
C      1  0.4852130000000  0.5882010000000  0.4657330000000 1.0
C      1  0.5210510000000  0.4045300000000  0.5322890000000 1.0
C      1  0.4191060000000  0.5239870000000  0.5536300000000 1.0
C      1  0.5702330000000  0.4875310000000  0.4739260000000 1.0
C      1  0.6078340000000  0.4745390000000  0.4992940000000 1.0
C      1  0.4056600000000  0.5277690000000  0.4849320000000 1.0
C      1  0.5935040000000  0.5644000000000  0.4617520000000 1.0
C      1  0.4138960000000  0.4496970000000  0.5293890000000 1.0
C      1  0.5584560000000  0.4656900000000  0.4875880000000 1.0
C      1  0.4259800000000  0.5135370000000  0.5297080000000 1.0
C      1  0.4710350000000  0.5024140000000  0.5378290000000 1.0
C      1  0.5159380000000  0.4996770000000  0.4680360000000 1.0
C      1  0.4831780000000  0.5491920000000  0.5344440000000 1.0
C      1  0.5127220000000  0.4475440000000  0.4650860000000 1.0
C      1  0.5920390000000  0.4288700000000  0.4795020000000 1.0
C      1  0.4298190000000  0.5682170000000  0.5098040000000 1.0
C      1  0.4619590000000  0.4551190000000  0.5367950000000 1.0
C      1  0.5514940000000  0.5424310000000  0.4507670000000 1.0
C      1  0.4158940000000  0.4768180000000  0.4703470000000 1.0
C      1  0.5791300000000  0.5167550000000  0.5135820000000 1.0
END
