TITL C-3201376-6384-1799 305.032181280397 125000 -409.967897477293 0 0 70 (C1) n - 1
REM
REM in /home/nfs/bkarasulu/CARBON/AIRSS/Generating-Clusters/LCBOP/Higher-Symm/SD-CG/FIRE-CG
REM
REM
REM
REM
REM
REM ./C.cell (b20cbc046b6831c77cfcea5457e17084)
REM AIRSS Version 0.9.1 bugfix July 2018 build 013d7b7c2542+ Fri, 06 Jul 2018 19:26:36 +0100
REM compiler GCC version 9.2.1 20190827 (Red Hat 9.2.1-1)
REM options -cpp -mtune=generic -march=x86-64 -g -O0 -fpre-include=/usr/include/finclude/math-vector-fortran.h
REM seed -361103064 543787410 1730137118 -1217164680 91405952 1351714658 -1032050066 657396157 954045999 -1777950307 1283539056 462264228 607527117 86493990 -1521913 -1622290466 1648414577 1832905859 -976143463 -435392914 1495537718 98323274 220279740 -727578610 845124724 1965915556 -1839089964 632528177 24736699 -958214826 -1356319532 2146685601 409281034
REM
CELL 1.54180   50.00000   50.00000   50.00000   90.00000   90.00000   90.00000
LATT -1
SFAC C  
C      1  0.4283090000000  0.4343910000000  0.4905280000000 1.0
C      1  0.5625130000000  0.4347800000000  0.4802120000000 1.0
C      1  0.4541130000000  0.4871000000000  0.4477050000000 1.0
C      1  0.5508910000000  0.4849910000000  0.4493500000000 1.0
C      1  0.4509030000000  0.4628290000000  0.5592340000000 1.0
C      1  0.5469350000000  0.4604150000000  0.5600950000000 1.0
C      1  0.5298320000000  0.5604860000000  0.5456570000000 1.0
C      1  0.4775690000000  0.5592660000000  0.5511800000000 1.0
C      1  0.4649490000000  0.6125690000000  0.5051620000000 1.0
C      1  0.5321990000000  0.6157490000000  0.5006430000000 1.0
C      1  0.4596500000000  0.4357370000000  0.5542470000000 1.0
C      1  0.5359970000000  0.4345800000000  0.5532530000000 1.0
C      1  0.4301400000000  0.4805990000000  0.5455890000000 1.0
C      1  0.5698170000000  0.4761450000000  0.5474870000000 1.0
C      1  0.4880870000000  0.5836540000000  0.5419890000000 1.0
C      1  0.5165980000000  0.5844330000000  0.5393950000000 1.0
C      1  0.4717040000000  0.6020540000000  0.5287370000000 1.0
C      1  0.5295250000000  0.6043450000000  0.5246160000000 1.0
C      1  0.4353330000000  0.5084400000000  0.5530270000000 1.0
C      1  0.5680880000000  0.5045940000000  0.5543550000000 1.0
C      1  0.5111780000000  0.4232560000000  0.5528800000000 1.0
C      1  0.4840490000000  0.4234390000000  0.5535730000000 1.0
C      1  0.4783700000000  0.4633180000000  0.5201940000000 1.0
C      1  0.5203860000000  0.4732870000000  0.5212220000000 1.0
C      1  0.5205340000000  0.6178350000000  0.4766720000000 1.0
C      1  0.4730890000000  0.6153310000000  0.4798440000000 1.0
C      1  0.4561110000000  0.5180550000000  0.5365440000000 1.0
C      1  0.5520840000000  0.5183370000000  0.5351160000000 1.0
C      1  0.5732250000000  0.4877930000000  0.4694620000000 1.0
C      1  0.4333610000000  0.4963510000000  0.4672910000000 1.0
C      1  0.4413490000000  0.4566180000000  0.4949480000000 1.0
C      1  0.5549260000000  0.4526410000000  0.4986970000000 1.0
C      1  0.4576340000000  0.4760740000000  0.5077900000000 1.0
C      1  0.5440070000000  0.4773020000000  0.5079450000000 1.0
C      1  0.5288970000000  0.5327360000000  0.5425520000000 1.0
C      1  0.4789670000000  0.5318570000000  0.5457890000000 1.0
C      1  0.5515780000000  0.5049110000000  0.5099060000000 1.0
C      1  0.4587390000000  0.5052780000000  0.5108390000000 1.0
C      1  0.4788850000000  0.4962210000000  0.4317310000000 1.0
C      1  0.5303170000000  0.5040440000000  0.4406030000000 1.0
C      1  0.5601610000000  0.4370110000000  0.4534580000000 1.0
C      1  0.4724690000000  0.4394800000000  0.4489710000000 1.0
C      1  0.4532210000000  0.4580870000000  0.4448570000000 1.0
C      1  0.5447100000000  0.4573690000000  0.4414250000000 1.0
C      1  0.4158070000000  0.4838080000000  0.5182610000000 1.0
C      1  0.5860530000000  0.4744190000000  0.5214270000000 1.0
C      1  0.5869140000000  0.4822400000000  0.4937940000000 1.0
C      1  0.4182080000000  0.4932100000000  0.4911740000000 1.0
C      1  0.4726330000000  0.4752800000000  0.5751810000000 1.0
C      1  0.5262980000000  0.4738600000000  0.5764530000000 1.0
C      1  0.5804900000000  0.5159410000000  0.5757400000000 1.0
C      1  0.4218840000000  0.5221230000000  0.5722370000000 1.0
C      1  0.4994040000000  0.4449420000000  0.4557680000000 1.0
C      1  0.4970650000000  0.5677850000000  0.4328440000000 1.0
C      1  0.5041710000000  0.4910170000000  0.5346470000000 1.0
C      1  0.4962260000000  0.6103300000000  0.4646100000000 1.0
C      1  0.5178770000000  0.4504980000000  0.4341480000000 1.0
C      1  0.4859790000000  0.4774740000000  0.4106190000000 1.0
C      1  0.5028880000000  0.5138540000000  0.4349670000000 1.0
C      1  0.5039900000000  0.5182140000000  0.5425900000000 1.0
C      1  0.4994680000000  0.5414570000000  0.4305610000000 1.0
C      1  0.5053480000000  0.4882530000000  0.4748620000000 1.0
C      1  0.5137940000000  0.4461850000000  0.3855180000000 1.0
C      1  0.4961210000000  0.5126200000000  0.4807310000000 1.0
C      1  0.4958400000000  0.5920810000000  0.4435050000000 1.0
C      1  0.4731000000000  0.5202180000000  0.4918680000000 1.0
C      1  0.5016740000000  0.4557830000000  0.5072820000000 1.0
C      1  0.5031200000000  0.4603130000000  0.4793300000000 1.0
C      1  0.5061930000000  0.4576380000000  0.4090470000000 1.0
C      1  0.4993720000000  0.4764280000000  0.5809970000000 1.0
END
