TITL C-3201377-4638-2089 2747.5095715874 125000 -480.42711382406 0 0 82 (C1) n - 1
REM
REM in /home/nfs/bkarasulu/CARBON/AIRSS/Generating-Clusters/LCBOP/Higher-Symm/SD-CG/FIRE-CG
REM
REM
REM
REM
REM
REM ./C.cell (b20cbc046b6831c77cfcea5457e17084)
REM AIRSS Version 0.9.1 bugfix July 2018 build 013d7b7c2542+ Fri, 06 Jul 2018 19:26:36 +0100
REM compiler GCC version 9.2.1 20190827 (Red Hat 9.2.1-1)
REM options -cpp -mtune=generic -march=x86-64 -g -O0 -fpre-include=/usr/include/finclude/math-vector-fortran.h
REM seed -1769097455 247101295 722656889 -1018682614 1877371190 -497113733 -1384164011 1459438075 1975835086 -607059833 -1059441942 1929955584 430365304 132646967 -1542551413 -590922775 1216626133 -85060532 -1688537546 719744400 -1806126759 1530935899 -1014407806 -1419387915 680749094 -321277260 -1012727997 -35174928 467554495 1209522908 -242953557 -1732425784 -294601851
REM
CELL 1.54180   50.00000   50.00000   50.00000   90.00000   90.00000   90.00000
LATT -1
SFAC C  
C      1  0.5702660000000  0.4946730000000  0.5523040000000 1.0
C      1  0.4331150000000  0.4956330000000  0.4433690000000 1.0
C      1  0.4617620000000  0.4602810000000  0.4651520000000 1.0
C      1  0.5463880000000  0.5412580000000  0.5441820000000 1.0
C      1  0.5118980000000  0.4999960000000  0.4238650000000 1.0
C      1  0.4827820000000  0.5077420000000  0.5792510000000 1.0
C      1  0.4753440000000  0.4829430000000  0.4698920000000 1.0
C      1  0.5278150000000  0.5230770000000  0.5371880000000 1.0
C      1  0.5148140000000  0.5006870000000  0.4515950000000 1.0
C      1  0.4826370000000  0.5118280000000  0.5514010000000 1.0
C      1  0.5490760000000  0.4374340000000  0.4751490000000 1.0
C      1  0.4522920000000  0.5650670000000  0.5300570000000 1.0
C      1  0.4212510000000  0.4668660000000  0.5418050000000 1.0
C      1  0.5780400000000  0.5361430000000  0.4588220000000 1.0
C      1  0.4848480000000  0.5714910000000  0.4835710000000 1.0
C      1  0.5141920000000  0.4265730000000  0.5222570000000 1.0
C      1  0.4759270000000  0.4691540000000  0.4191080000000 1.0
C      1  0.5254110000000  0.5276020000000  0.5854150000000 1.0
C      1  0.5441070000000  0.5107480000000  0.4895920000000 1.0
C      1  0.4589570000000  0.4920360000000  0.5150120000000 1.0
C      1  0.5571940000000  0.4791030000000  0.4536200000000 1.0
C      1  0.4388370000000  0.5248640000000  0.5483430000000 1.0
C      1  0.5459060000000  0.4527310000000  0.5495570000000 1.0
C      1  0.4359810000000  0.5301720000000  0.4066900000000 1.0
C      1  0.5041090000000  0.4765620000000  0.5327830000000 1.0
C      1  0.4985300000000  0.5247780000000  0.4880110000000 1.0
C      1  0.4786840000000  0.4691990000000  0.5170810000000 1.0
C      1  0.5253620000000  0.5327140000000  0.4942350000000 1.0
C      1  0.5538010000000  0.5497850000000  0.4480720000000 1.0
C      1  0.4439970000000  0.4515730000000  0.5549260000000 1.0
C      1  0.4067390000000  0.4911190000000  0.5488120000000 1.0
C      1  0.5910010000000  0.5116090000000  0.4498200000000 1.0
C      1  0.4914690000000  0.4467710000000  0.4295430000000 1.0
C      1  0.5119890000000  0.5517720000000  0.5757420000000 1.0
C      1  0.4684950000000  0.4375040000000  0.5525690000000 1.0
C      1  0.5286230000000  0.5610890000000  0.4520100000000 1.0
C      1  0.5774250000000  0.5068950000000  0.5275760000000 1.0
C      1  0.4288320000000  0.4940960000000  0.4720010000000 1.0
C      1  0.3946970000000  0.5097460000000  0.5287500000000 1.0
C      1  0.6050140000000  0.4932500000000  0.4684460000000 1.0
C      1  0.4232120000000  0.4635940000000  0.5130240000000 1.0
C      1  0.5795070000000  0.5392870000000  0.4876720000000 1.0
C      1  0.4762510000000  0.5709220000000  0.5116700000000 1.0
C      1  0.5259120000000  0.4301360000000  0.4944550000000 1.0
C      1  0.5374940000000  0.5585670000000  0.5015450000000 1.0
C      1  0.4666360000000  0.4435420000000  0.5063790000000 1.0
C      1  0.5702110000000  0.5153830000000  0.5017190000000 1.0
C      1  0.4344790000000  0.4868510000000  0.4991650000000 1.0
C      1  0.5371080000000  0.4310910000000  0.4483390000000 1.0
C      1  0.4649450000000  0.5679000000000  0.5574820000000 1.0
C      1  0.5695220000000  0.4660920000000  0.5509560000000 1.0
C      1  0.4258980000000  0.5189070000000  0.4289660000000 1.0
C      1  0.5216150000000  0.4665190000000  0.5549950000000 1.0
C      1  0.4568340000000  0.5252290000000  0.3904850000000 1.0
C      1  0.5083250000000  0.4329480000000  0.4481150000000 1.0
C      1  0.4940350000000  0.5661240000000  0.5577440000000 1.0
C      1  0.5247590000000  0.4841840000000  0.5778580000000 1.0
C      1  0.4780200000000  0.5087340000000  0.3899490000000 1.0
C      1  0.5682930000000  0.4586930000000  0.4713820000000 1.0
C      1  0.4296980000000  0.5463910000000  0.5310610000000 1.0
C      1  0.5653940000000  0.5619660000000  0.4969900000000 1.0
C      1  0.4381620000000  0.4405800000000  0.5069630000000 1.0
C      1  0.4925950000000  0.4279790000000  0.5408600000000 1.0
C      1  0.5047770000000  0.5688150000000  0.4641940000000 1.0
C      1  0.5027340000000  0.4268540000000  0.4758990000000 1.0
C      1  0.4995930000000  0.5738180000000  0.5301610000000 1.0
C      1  0.4789880000000  0.4248220000000  0.4896960000000 1.0
C      1  0.5241700000000  0.5768850000000  0.5177740000000 1.0
C      1  0.5061120000000  0.5056190000000  0.5368400000000 1.0
C      1  0.4927170000000  0.5046410000000  0.4688850000000 1.0
C      1  0.4596450000000  0.5105770000000  0.5366120000000 1.0
C      1  0.5383180000000  0.4955330000000  0.4659800000000 1.0
C      1  0.5643560000000  0.5576130000000  0.5539900000000 1.0
C      1  0.4454980000000  0.4410920000000  0.4572560000000 1.0
C      1  0.5532230000000  0.5057090000000  0.5724930000000 1.0
C      1  0.4493690000000  0.4772520000000  0.4275800000000 1.0
C      1  0.5738650000000  0.4933700000000  0.4355750000000 1.0
C      1  0.4218610000000  0.5095130000000  0.5648350000000 1.0
C      1  0.4045580000000  0.5350770000000  0.5213580000000 1.0
C      1  0.5946700000000  0.4689890000000  0.4777190000000 1.0
C      1  0.5081560000000  0.5046620000000  0.5902330000000 1.0
C      1  0.4908740000000  0.4909800000000  0.4075740000000 1.0
END
