TITL C-3201372-1405-732 -0.0240362708120257 125000 -223.21665821085 0 0 37 (C1) n - 1
REM
REM in /home/nfs/bkarasulu/CARBON/AIRSS/Generating-Clusters/LCBOP/Higher-Symm/SD-CG/FIRE-CG
REM
REM
REM
REM
REM
REM ./C.cell (b20cbc046b6831c77cfcea5457e17084)
REM AIRSS Version 0.9.1 bugfix July 2018 build 013d7b7c2542+ Fri, 06 Jul 2018 19:26:36 +0100
REM compiler GCC version 9.2.1 20190827 (Red Hat 9.2.1-1)
REM options -cpp -mtune=generic -march=x86-64 -g -O0 -fpre-include=/usr/include/finclude/math-vector-fortran.h
REM seed -1466255357 810060345 763425572 -48391792 1333521682 -1949664766 1411076129 -61254682 1047224517 -624842519 -83519484 1151779243 -548306398 -1883849278 -528773768 571709703 -1609741486 1655548037 990845996 -679120996 -1759809298 -471077415 -1025775045 -942903772 -315090158 -1590884251 -2063708918 817462087 1277893385 327846509 1091970731 366185107 1479518492
REM
CELL 1.54180   50.00000   50.00000   50.00000   90.00000   90.00000   90.00000
LATT -1
SFAC C  
C      1  0.5187040000000  0.5463220000000  0.4967830000000 1.0
C      1  0.5452460000000  0.5954930000000  0.5493370000000 1.0
C      1  0.5377000000000  0.3999520000000  0.4304040000000 1.0
C      1  0.5362460000000  0.4482260000000  0.4320740000000 1.0
C      1  0.5414820000000  0.5857520000000  0.5249100000000 1.0
C      1  0.4657390000000  0.4906740000000  0.5207260000000 1.0
C      1  0.4373320000000  0.5137180000000  0.4559220000000 1.0
C      1  0.4794630000000  0.5086900000000  0.5699780000000 1.0
C      1  0.5350680000000  0.4323400000000  0.4913280000000 1.0
C      1  0.4669680000000  0.5329900000000  0.4886150000000 1.0
C      1  0.4907420000000  0.5454950000000  0.4953840000000 1.0
C      1  0.4635380000000  0.4631630000000  0.5139450000000 1.0
C      1  0.5201810000000  0.4226200000000  0.4696460000000 1.0
C      1  0.5306550000000  0.5829810000000  0.5968990000000 1.0
C      1  0.5429450000000  0.4523350000000  0.5069880000000 1.0
C      1  0.5409880000000  0.5038350000000  0.5072380000000 1.0
C      1  0.4528270000000  0.5366560000000  0.4634880000000 1.0
C      1  0.5315350000000  0.4230760000000  0.4435610000000 1.0
C      1  0.5156250000000  0.5635820000000  0.6071290000000 1.0
C      1  0.4556110000000  0.4508650000000  0.4895010000000 1.0
C      1  0.5330970000000  0.5232670000000  0.4886250000000 1.0
C      1  0.4333060000000  0.4684980000000  0.4445260000000 1.0
C      1  0.4738120000000  0.4992460000000  0.5458650000000 1.0
C      1  0.5381910000000  0.4992780000000  0.4418350000000 1.0
C      1  0.5320000000000  0.5686190000000  0.5069990000000 1.0
C      1  0.5382500000000  0.4747150000000  0.4316840000000 1.0
C      1  0.5446180000000  0.4781520000000  0.5131510000000 1.0
C      1  0.4574640000000  0.5080480000000  0.4999870000000 1.0
C      1  0.5364630000000  0.5171110000000  0.4614830000000 1.0
C      1  0.4927410000000  0.4182220000000  0.4730900000000 1.0
C      1  0.4691990000000  0.4283170000000  0.4803280000000 1.0
C      1  0.5415070000000  0.5947190000000  0.5756470000000 1.0
C      1  0.4404740000000  0.4676300000000  0.4725170000000 1.0
C      1  0.4402830000000  0.4959150000000  0.4801500000000 1.0
C      1  0.4315860000000  0.4946200000000  0.4351980000000 1.0
C      1  0.4880090000000  0.5229000000000  0.5906880000000 1.0
C      1  0.5004080000000  0.5419780000000  0.6043680000000 1.0
END
