TITL C-3201377-4638-1370 2.44638787880801e-07 125000 -366.118357731625 0 0 56 (Cs) n - 1
REM
REM in /home/nfs/bkarasulu/CARBON/AIRSS/Generating-Clusters/LCBOP/Higher-Symm/SD-CG/FIRE-CG
REM
REM
REM
REM
REM
REM ./C.cell (b20cbc046b6831c77cfcea5457e17084)
REM AIRSS Version 0.9.1 bugfix July 2018 build 013d7b7c2542+ Fri, 06 Jul 2018 19:26:36 +0100
REM compiler GCC version 9.2.1 20190827 (Red Hat 9.2.1-1)
REM options -cpp -mtune=generic -march=x86-64 -g -O0 -fpre-include=/usr/include/finclude/math-vector-fortran.h
REM seed -1862585682 1863409152 538753907 1064683117 498097465 -547957253 -1069340506 830023598 27272458 -1252625509 -1205542694 1809169970 -593667461 -1427309510 -428267305 1887793888 -1968851365 -816212582 -1459227398 981983461 1396581588 -534520638 -68891171 -1476802606 1907151709 748225704 585563338 774446812 27971416 -516103003 -812001723 -1608287630 1104312920
REM
CELL 1.54180   50.00000   50.00000   50.00000   90.00000   90.00000   90.00000
LATT -1
SFAC C  
C      1  0.4725690000000  0.4513360000000  0.5107250000000 1.0
C      1  0.4775610000000  0.4509910000000  0.4816600000000 1.0
C      1  0.5051400000000  0.4507730000000  0.4711850000000 1.0
C      1  0.5278540000000  0.4507710000000  0.4899350000000 1.0
C      1  0.5227940000000  0.4509860000000  0.5189990000000 1.0
C      1  0.4952010000000  0.4513340000000  0.5294070000000 1.0
C      1  0.4745170000000  0.5549050000000  0.4955610000000 1.0
C      1  0.4909670000000  0.5590290000000  0.4723060000000 1.0
C      1  0.5196380000000  0.5589100000000  0.4767680000000 1.0
C      1  0.5294510000000  0.5590250000000  0.5040740000000 1.0
C      1  0.5097340000000  0.5549010000000  0.5246330000000 1.0
C      1  0.4811580000000  0.5624250000000  0.5233840000000 1.0
C      1  0.4903560000000  0.4607630000000  0.5567210000000 1.0
C      1  0.4466690000000  0.4607670000000  0.5206580000000 1.0
C      1  0.4564280000000  0.4606900000000  0.4640220000000 1.0
C      1  0.5098020000000  0.4609310000000  0.4441220000000 1.0
C      1  0.5535450000000  0.4609260000000  0.4802310000000 1.0
C      1  0.5441170000000  0.4606810000000  0.5364090000000 1.0
C      1  0.4643320000000  0.5489800000000  0.5437640000000 1.0
C      1  0.4686690000000  0.5267270000000  0.4987780000000 1.0
C      1  0.4816290000000  0.5470750000000  0.4481110000000 1.0
C      1  0.5358680000000  0.5464340000000  0.4571060000000 1.0
C      1  0.5549760000000  0.5470670000000  0.5086590000000 1.0
C      1  0.5076790000000  0.5267230000000  0.5309810000000 1.0
C      1  0.4562240000000  0.5228150000000  0.5535830000000 1.0
C      1  0.4428040000000  0.5176440000000  0.4920340000000 1.0
C      1  0.4771400000000  0.5218480000000  0.4363790000000 1.0
C      1  0.5439630000000  0.5214260000000  0.4472960000000 1.0
C      1  0.5673430000000  0.5218380000000  0.5108410000000 1.0
C      1  0.5192000000000  0.5176360000000  0.5550980000000 1.0
C      1  0.4664660000000  0.4759950000000  0.5631290000000 1.0
C      1  0.4288740000000  0.4753270000000  0.5029740000000 1.0
C      1  0.4632050000000  0.4760880000000  0.4404000000000 1.0
C      1  0.5336400000000  0.4759850000000  0.4377950000000 1.0
C      1  0.5708300000000  0.4761340000000  0.4976480000000 1.0
C      1  0.5372370000000  0.4756690000000  0.5602750000000 1.0
C      1  0.5660300000000  0.4760780000000  0.5252810000000 1.0
C      1  0.5110930000000  0.4753180000000  0.5708450000000 1.0
C      1  0.4449050000000  0.4759980000000  0.5453310000000 1.0
C      1  0.4343000000000  0.4756800000000  0.4753010000000 1.0
C      1  0.4894270000000  0.4761420000000  0.4304510000000 1.0
C      1  0.5552420000000  0.4759830000000  0.4556270000000 1.0
C      1  0.5643570000000  0.5046200000000  0.5340540000000 1.0
C      1  0.5013430000000  0.5036520000000  0.5730550000000 1.0
C      1  0.4372930000000  0.5044740000000  0.5400620000000 1.0
C      1  0.4384200000000  0.5042010000000  0.4668350000000 1.0
C      1  0.4984070000000  0.5044940000000  0.4267720000000 1.0
C      1  0.5628580000000  0.5043690000000  0.4613120000000 1.0
C      1  0.5266200000000  0.5043720000000  0.4313970000000 1.0
C      1  0.5447720000000  0.5041900000000  0.5546280000000 1.0
C      1  0.4730860000000  0.5044700000000  0.5696080000000 1.0
C      1  0.4285540000000  0.5036600000000  0.5129690000000 1.0
C      1  0.5727450000000  0.5044860000000  0.4881370000000 1.0
C      1  0.4549100000000  0.5046310000000  0.4437070000000 1.0
C      1  0.5053140000000  0.4956790000000  0.4941120000000 1.0
C      1  0.4919280000000  0.5130380000000  0.5103300000000 1.0
END
