TITL C-3201372-1405-1357 1466888.94833274 125000 -701.267348805039 0 0 118 (C1) n - 1
REM
REM in /home/nfs/bkarasulu/CARBON/AIRSS/Generating-Clusters/LCBOP/Higher-Symm/SD-CG/FIRE-CG
REM
REM
REM
REM
REM
REM ./C.cell (b20cbc046b6831c77cfcea5457e17084)
REM AIRSS Version 0.9.1 bugfix July 2018 build 013d7b7c2542+ Fri, 06 Jul 2018 19:26:36 +0100
REM compiler GCC version 9.2.1 20190827 (Red Hat 9.2.1-1)
REM options -cpp -mtune=generic -march=x86-64 -g -O0 -fpre-include=/usr/include/finclude/math-vector-fortran.h
REM seed -546962653 -1509810861 884969642 1865000437 -385864768 -1031144652 -1631790221 -610741375 -1821478447 -31001265 141719349 529994078 -1443864924 1304996014 -1350553943 341914607 -91476594 -760605772 -1743395697 -499406950 -1519959990 -2003861243 1621722126 -1790820769 -276170652 409219082 170054311 -1865466065 1149048631 -1786225721 1556148070 -1432396193 406382542
REM
CELL 1.54180   50.00000   50.00000   50.00000   90.00000   90.00000   90.00000
LATT -1
SFAC C  
C      1  0.5669970000000  0.4354630000000  0.5302380000000 1.0
C      1  0.5310560000000  0.4373890000000  0.4202830000000 1.0
C      1  0.4290580000000  0.4338820000000  0.4709050000000 1.0
C      1  0.4697910000000  0.4317350000000  0.5778900000000 1.0
C      1  0.5702130000000  0.5679930000000  0.4672790000000 1.0
C      1  0.5306080000000  0.5677770000000  0.5755450000000 1.0
C      1  0.4330590000000  0.5642130000000  0.5291260000000 1.0
C      1  0.4686230000000  0.5660150000000  0.4183580000000 1.0
C      1  0.4513600000000  0.4463620000000  0.5581160000000 1.0
C      1  0.5523800000000  0.4487810000000  0.5529860000000 1.0
C      1  0.5523570000000  0.4480740000000  0.4398120000000 1.0
C      1  0.4440500000000  0.4472350000000  0.4478140000000 1.0
C      1  0.4488510000000  0.5536750000000  0.4387660000000 1.0
C      1  0.5539930000000  0.5531490000000  0.4474890000000 1.0
C      1  0.5494450000000  0.5546160000000  0.5542650000000 1.0
C      1  0.4474810000000  0.5497870000000  0.5513530000000 1.0
C      1  0.4716840000000  0.4402460000000  0.4368130000000 1.0
C      1  0.4396620000000  0.4460040000000  0.5283170000000 1.0
C      1  0.5279770000000  0.4436430000000  0.5707600000000 1.0
C      1  0.5592730000000  0.4375790000000  0.4692950000000 1.0
C      1  0.4734350000000  0.5544120000000  0.5681930000000 1.0
C      1  0.4398060000000  0.5637630000000  0.4684050000000 1.0
C      1  0.5276460000000  0.5603920000000  0.4337860000000 1.0
C      1  0.5618870000000  0.5587060000000  0.5253700000000 1.0
C      1  0.5094420000000  0.4751520000000  0.4776290000000 1.0
C      1  0.4831460000000  0.4878980000000  0.4760610000000 1.0
C      1  0.4857580000000  0.4744810000000  0.5207930000000 1.0
C      1  0.5157820000000  0.4715810000000  0.5051040000000 1.0
C      1  0.5048970000000  0.5157660000000  0.5197910000000 1.0
C      1  0.4808210000000  0.5027360000000  0.5190630000000 1.0
C      1  0.4889320000000  0.5152220000000  0.4789640000000 1.0
C      1  0.5115610000000  0.5190900000000  0.4936190000000 1.0
C      1  0.5160300000000  0.4607560000000  0.4080860000000 1.0
C      1  0.4104240000000  0.4570520000000  0.4848090000000 1.0
C      1  0.4862040000000  0.4581800000000  0.5968620000000 1.0
C      1  0.5834580000000  0.4574850000000  0.5147720000000 1.0
C      1  0.5172050000000  0.5432040000000  0.5935130000000 1.0
C      1  0.4148310000000  0.5438250000000  0.5134620000000 1.0
C      1  0.4853380000000  0.5420670000000  0.4053630000000 1.0
C      1  0.5884100000000  0.5419770000000  0.4844530000000 1.0
C      1  0.4848520000000  0.4166870000000  0.4205980000000 1.0
C      1  0.4359050000000  0.4180680000000  0.5167930000000 1.0
C      1  0.5166670000000  0.4159080000000  0.5802050000000 1.0
C      1  0.5726650000000  0.4142430000000  0.4865210000000 1.0
C      1  0.4833330000000  0.5829050000000  0.5767370000000 1.0
C      1  0.4266700000000  0.5870430000000  0.4863220000000 1.0
C      1  0.5147780000000  0.5863320000000  0.4223960000000 1.0
C      1  0.5662480000000  0.5865340000000  0.5125020000000 1.0
C      1  0.4852120000000  0.4327730000000  0.4644720000000 1.0
C      1  0.4650250000000  0.4576480000000  0.5070440000000 1.0
C      1  0.5066590000000  0.4487900000000  0.5495080000000 1.0
C      1  0.5303850000000  0.4280210000000  0.4764780000000 1.0
C      1  0.4951530000000  0.5492180000000  0.5464100000000 1.0
C      1  0.4684170000000  0.5724490000000  0.4765490000000 1.0
C      1  0.5098240000000  0.5587270000000  0.4603080000000 1.0
C      1  0.5395140000000  0.5497780000000  0.5058160000000 1.0
C      1  0.5246940000000  0.5121150000000  0.4149600000000 1.0
C      1  0.4213310000000  0.5099050000000  0.4777540000000 1.0
C      1  0.4803280000000  0.5078360000000  0.5854520000000 1.0
C      1  0.5782040000000  0.5097040000000  0.5219290000000 1.0
C      1  0.5237560000000  0.4920830000000  0.5847650000000 1.0
C      1  0.4156740000000  0.4917420000000  0.5198330000000 1.0
C      1  0.4831760000000  0.4927040000000  0.4222350000000 1.0
C      1  0.5731410000000  0.4911070000000  0.4798210000000 1.0
C      1  0.5103740000000  0.5865890000000  0.5645210000000 1.0
C      1  0.5546500000000  0.5864770000000  0.4845030000000 1.0
C      1  0.4863000000000  0.5861570000000  0.4301230000000 1.0
C      1  0.4437280000000  0.5848030000000  0.5118760000000 1.0
C      1  0.5132570000000  0.4171310000000  0.4301820000000 1.0
C      1  0.5559280000000  0.4157180000000  0.5121390000000 1.0
C      1  0.4894860000000  0.4126490000000  0.5674350000000 1.0
C      1  0.4456950000000  0.4179060000000  0.4895110000000 1.0
C      1  0.5166830000000  0.4639340000000  0.5919580000000 1.0
C      1  0.5754570000000  0.4624800000000  0.4854200000000 1.0
C      1  0.4882300000000  0.4654860000000  0.4185600000000 1.0
C      1  0.4148680000000  0.4628200000000  0.5149110000000 1.0
C      1  0.5160330000000  0.5397380000000  0.4110620000000 1.0
C      1  0.5839280000000  0.5382220000000  0.5144860000000 1.0
C      1  0.4864570000000  0.5362680000000  0.5901720000000 1.0
C      1  0.4218100000000  0.5384420000000  0.4837270000000 1.0
C      1  0.4560290000000  0.5125970000000  0.5205590000000 1.0
C      1  0.5112990000000  0.5236630000000  0.5462690000000 1.0
C      1  0.5391470000000  0.5247600000000  0.4897780000000 1.0
C      1  0.4922840000000  0.5286830000000  0.4544100000000 1.0
C      1  0.4566420000000  0.4780660000000  0.4843820000000 1.0
C      1  0.5237940000000  0.4854980000000  0.4551820000000 1.0
C      1  0.5381780000000  0.4821600000000  0.5182550000000 1.0
C      1  0.4901350000000  0.4731190000000  0.5495170000000 1.0
C      1  0.5400880000000  0.5269350000000  0.5574860000000 1.0
C      1  0.5525960000000  0.5272050000000  0.4609430000000 1.0
C      1  0.4606650000000  0.5277290000000  0.4401530000000 1.0
C      1  0.4413860000000  0.5222490000000  0.5435570000000 1.0
C      1  0.5462770000000  0.4767900000000  0.4383850000000 1.0
C      1  0.5534450000000  0.4763180000000  0.5432100000000 1.0
C      1  0.4615190000000  0.4731310000000  0.5624660000000 1.0
C      1  0.4419140000000  0.4746100000000  0.4569650000000 1.0
C      1  0.4692680000000  0.5172540000000  0.4143050000000 1.0
C      1  0.4134930000000  0.5189480000000  0.5323070000000 1.0
C      1  0.5354090000000  0.5190480000000  0.5861970000000 1.0
C      1  0.5800790000000  0.5171630000000  0.4678050000000 1.0
C      1  0.4683580000000  0.4815540000000  0.5901120000000 1.0
C      1  0.4146960000000  0.4826360000000  0.4661050000000 1.0
C      1  0.5352960000000  0.4847760000000  0.4110750000000 1.0
C      1  0.5814900000000  0.4824430000000  0.5332120000000 1.0
C      1  0.5051600000000  0.5751700000000  0.5376000000000 1.0
C      1  0.5265840000000  0.5719590000000  0.4894390000000 1.0
C      1  0.4877450000000  0.5778870000000  0.4578510000000 1.0
C      1  0.4722650000000  0.5820330000000  0.5031750000000 1.0
C      1  0.5105540000000  0.4214250000000  0.4585980000000 1.0
C      1  0.5271820000000  0.4183270000000  0.5036090000000 1.0
C      1  0.4955770000000  0.4235920000000  0.5404800000000 1.0
C      1  0.4745590000000  0.4301740000000  0.4926300000000 1.0
C      1  0.5548730000000  0.5022580000000  0.5022570000000 1.0
C      1  0.5064880000000  0.5055540000000  0.4387020000000 1.0
C      1  0.5014230000000  0.4988900000000  0.5640990000000 1.0
C      1  0.4390960000000  0.4990420000000  0.5004360000000 1.0
C      1  0.5001150000000  0.5814750000000  0.5109910000000 1.0
C      1  0.4991650000000  0.4190200000000  0.5129110000000 1.0
END
