TITL C-3201379-3821-1681 0.00271088000286216 125000 -230.258720513949 0 0 39 (Cs) n - 1
REM
REM in /home/nfs/bkarasulu/CARBON/AIRSS/Generating-Clusters/LCBOP/Higher-Symm/SD-CG/FIRE-CG
REM
REM
REM
REM
REM
REM ./C.cell (b20cbc046b6831c77cfcea5457e17084)
REM AIRSS Version 0.9.1 bugfix July 2018 build 013d7b7c2542+ Fri, 06 Jul 2018 19:26:36 +0100
REM compiler GCC version 9.2.1 20190827 (Red Hat 9.2.1-1)
REM options -cpp -mtune=generic -march=x86-64 -g -O0 -fpre-include=/usr/include/finclude/math-vector-fortran.h
REM seed 1153572279 1064670493 15775433 -1390306183 -2046761527 -1671130869 -1132520603 1886123824 -330344991 1741181439 -407701708 948348999 -602189994 1365609138 -1873982284 -972335309 -658138134 -410788150 -1174134333 -1493031757 -1215464693 -185165481 312189326 1926111409 -1883796237 814458850 -1423043309 1244362039 -1018488843 -1433910601 131707013 -1063617897 -1491260628
REM
CELL 1.54180   50.00000   50.00000   50.00000   90.00000   90.00000   90.00000
LATT -1
SFAC C  
C      1  0.4866340000000  0.4868890000000  0.4278540000000 1.0
C      1  0.4444370000000  0.4898380000000  0.5424620000000 1.0
C      1  0.5642280000000  0.4991640000000  0.5229530000000 1.0
C      1  0.4871570000000  0.4990330000000  0.5673830000000 1.0
C      1  0.4437770000000  0.4868160000000  0.4525600000000 1.0
C      1  0.5640940000000  0.4900420000000  0.4734820000000 1.0
C      1  0.4477690000000  0.4230820000000  0.4993430000000 1.0
C      1  0.5193310000000  0.4525470000000  0.5339970000000 1.0
C      1  0.5252860000000  0.4232140000000  0.4546610000000 1.0
C      1  0.4640180000000  0.5684440000000  0.5367990000000 1.0
C      1  0.5491800000000  0.5685900000000  0.4877060000000 1.0
C      1  0.5252480000000  0.6111070000000  0.5447280000000 1.0
C      1  0.4827940000000  0.5567940000000  0.5207720000000 1.0
C      1  0.5172260000000  0.5906250000000  0.5307530000000 1.0
C      1  0.5259310000000  0.5568670000000  0.4959050000000 1.0
C      1  0.4695310000000  0.4370130000000  0.4959010000000 1.0
C      1  0.5113640000000  0.4370840000000  0.4717870000000 1.0
C      1  0.5068410000000  0.4638290000000  0.5123640000000 1.0
C      1  0.5576600000000  0.5004600000000  0.5488660000000 1.0
C      1  0.5123020000000  0.4814050000000  0.4231880000000 1.0
C      1  0.4261920000000  0.4833410000000  0.5240540000000 1.0
C      1  0.5573240000000  0.4835650000000  0.4484590000000 1.0
C      1  0.5128690000000  0.5003840000000  0.5746880000000 1.0
C      1  0.4268910000000  0.4812600000000  0.4724260000000 1.0
C      1  0.4752190000000  0.5225930000000  0.4576820000000 1.0
C      1  0.4832000000000  0.5072000000000  0.5204930000000 1.0
C      1  0.5256130000000  0.5072730000000  0.4960430000000 1.0
C      1  0.4779470000000  0.5320730000000  0.5072730000000 1.0
C      1  0.5167420000000  0.5321390000000  0.4849090000000 1.0
C      1  0.5052240000000  0.4920010000000  0.5096420000000 1.0
C      1  0.5527820000000  0.4992720000000  0.4973420000000 1.0
C      1  0.4707290000000  0.4991320000000  0.5446430000000 1.0
C      1  0.4675040000000  0.4991530000000  0.4442300000000 1.0
C      1  0.5386140000000  0.5011390000000  0.5675890000000 1.0
C      1  0.5379670000000  0.4807070000000  0.4303380000000 1.0
C      1  0.4202180000000  0.4805070000000  0.4982180000000 1.0
C      1  0.5087280000000  0.5685370000000  0.5159460000000 1.0
C      1  0.4955730000000  0.4466100000000  0.4927640000000 1.0
C      1  0.4881750000000  0.5319500000000  0.4801840000000 1.0
END
