TITL C-3201378-2706-2207 -5.47877670628686e-07 125000 -1223.97067577434 0 0 190 (C1) n - 1
REM
REM in /home/nfs/bkarasulu/CARBON/AIRSS/Generating-Clusters/LCBOP/Higher-Symm/SD-CG/FIRE-CG
REM
REM
REM
REM
REM
REM ./C.cell (b20cbc046b6831c77cfcea5457e17084)
REM AIRSS Version 0.9.1 bugfix July 2018 build 013d7b7c2542+ Fri, 06 Jul 2018 19:26:36 +0100
REM compiler GCC version 9.2.1 20190827 (Red Hat 9.2.1-1)
REM options -cpp -mtune=generic -march=x86-64 -g -O0 -fpre-include=/usr/include/finclude/math-vector-fortran.h
REM seed 231602852 1546087464 817774660 -222669863 558315960 -211824611 -1208527377 404517341 -1206142493 -940812780 -838555361 -1556386595 1262532795 1330856208 1779464661 1928371638 -693256486 -711175103 1801063849 -522506694 1691900 1501469990 1077541439 1444275252 86091122 689037303 1949263165 -1773362306 1210144180 -818916108 435736449 542295064 2025748671
REM
CELL 1.54180   50.00000   50.00000   50.00000   90.00000   90.00000   90.00000
LATT -1
SFAC C  
C      1  0.4358540000000  0.4591390000000  0.5900120000000 1.0
C      1  0.5656230000000  0.4590560000000  0.5888450000000 1.0
C      1  0.6048660000000  0.4590960000000  0.4649370000000 1.0
C      1  0.4992740000000  0.4590170000000  0.3895400000000 1.0
C      1  0.3943540000000  0.4591050000000  0.4667620000000 1.0
C      1  0.5150780000000  0.4059750000000  0.4397720000000 1.0
C      1  0.4474770000000  0.4065820000000  0.4672940000000 1.0
C      1  0.4520600000000  0.4052420000000  0.5403470000000 1.0
C      1  0.5232430000000  0.4061850000000  0.5573880000000 1.0
C      1  0.5625580000000  0.4050430000000  0.4955270000000 1.0
C      1  0.5511360000000  0.4825340000000  0.5965840000000 1.0
C      1  0.6073620000000  0.4828020000000  0.4808700000000 1.0
C      1  0.5154750000000  0.4825260000000  0.3920950000000 1.0
C      1  0.4013390000000  0.4826210000000  0.4519110000000 1.0
C      1  0.4243420000000  0.4828100000000  0.5786730000000 1.0
C      1  0.5422310000000  0.4732420000000  0.4717100000000 1.0
C      1  0.4861680000000  0.4750580000000  0.4503500000000 1.0
C      1  0.4486350000000  0.4758800000000  0.4978980000000 1.0
C      1  0.4828980000000  0.4733110000000  0.5472490000000 1.0
C      1  0.5398960000000  0.4756160000000  0.5315300000000 1.0
C      1  0.4751940000000  0.3794580000000  0.4966520000000 1.0
C      1  0.4891310000000  0.3791590000000  0.5225370000000 1.0
C      1  0.5180720000000  0.3791780000000  0.5172760000000 1.0
C      1  0.5220190000000  0.3790590000000  0.4881280000000 1.0
C      1  0.4955030000000  0.3793420000000  0.4754150000000 1.0
C      1  0.3995000000000  0.4485130000000  0.5158580000000 1.0
C      1  0.4838380000000  0.4482210000000  0.6003340000000 1.0
C      1  0.5903060000000  0.4485280000000  0.5461450000000 1.0
C      1  0.5722580000000  0.4481010000000  0.4282250000000 1.0
C      1  0.4539990000000  0.4482920000000  0.4091550000000 1.0
C      1  0.4626580000000  0.5817290000000  0.5866430000000 1.0
C      1  0.5705500000000  0.5814250000000  0.5622020000000 1.0
C      1  0.5811560000000  0.5816550000000  0.4518590000000 1.0
C      1  0.4794240000000  0.5814220000000  0.4082240000000 1.0
C      1  0.4062820000000  0.5812530000000  0.4911940000000 1.0
C      1  0.5441000000000  0.4822490000000  0.4450890000000 1.0
C      1  0.4605480000000  0.4823250000000  0.4412650000000 1.0
C      1  0.4316360000000  0.4830500000000  0.5192290000000 1.0
C      1  0.4970660000000  0.4821120000000  0.5699050000000 1.0
C      1  0.5661610000000  0.4829180000000  0.5242730000000 1.0
C      1  0.5555250000000  0.5347280000000  0.3964720000000 1.0
C      1  0.4186390000000  0.5346640000000  0.4149960000000 1.0
C      1  0.3943380000000  0.5349100000000  0.5515030000000 1.0
C      1  0.5157850000000  0.5346320000000  0.6164820000000 1.0
C      1  0.6156360000000  0.5348680000000  0.5206250000000 1.0
C      1  0.5298140000000  0.6153020000000  0.4470300000000 1.0
C      1  0.4587990000000  0.6144000000000  0.4546840000000 1.0
C      1  0.4440950000000  0.6142980000000  0.5247810000000 1.0
C      1  0.5068720000000  0.6152040000000  0.5605700000000 1.0
C      1  0.5600830000000  0.6145480000000  0.5126530000000 1.0
C      1  0.4766790000000  0.4384990000000  0.4934140000000 1.0
C      1  0.4864280000000  0.4367290000000  0.5201000000000 1.0
C      1  0.5151090000000  0.4374630000000  0.5187790000000 1.0
C      1  0.5229290000000  0.4365450000000  0.4913940000000 1.0
C      1  0.4989810000000  0.4379640000000  0.4757040000000 1.0
C      1  0.4955170000000  0.4922580000000  0.4725420000000 1.0
C      1  0.4730290000000  0.4929710000000  0.4984420000000 1.0
C      1  0.4905820000000  0.4862080000000  0.5227660000000 1.0
C      1  0.5198570000000  0.4929010000000  0.5171010000000 1.0
C      1  0.5214960000000  0.4862700000000  0.4866140000000 1.0
C      1  0.4352120000000  0.4365550000000  0.5737790000000 1.0
C      1  0.5498860000000  0.4366990000000  0.5839470000000 1.0
C      1  0.5959410000000  0.4364390000000  0.4784150000000 1.0
C      1  0.5091690000000  0.4365050000000  0.4024880000000 1.0
C      1  0.4101110000000  0.4368440000000  0.4614710000000 1.0
C      1  0.4791090000000  0.5610590000000  0.5984670000000 1.0
C      1  0.5867860000000  0.5608390000000  0.5500090000000 1.0
C      1  0.5747220000000  0.5610040000000  0.4326500000000 1.0
C      1  0.4592170000000  0.5607770000000  0.4084100000000 1.0
C      1  0.4002970000000  0.5607470000000  0.5106730000000 1.0
C      1  0.5473340000000  0.4474730000000  0.4818550000000 1.0
C      1  0.4977540000000  0.4491090000000  0.4497640000000 1.0
C      1  0.4517570000000  0.4499260000000  0.4866160000000 1.0
C      1  0.4724750000000  0.4476260000000  0.5422900000000 1.0
C      1  0.5310850000000  0.4493920000000  0.5389070000000 1.0
C      1  0.5193570000000  0.5246290000000  0.5177420000000 1.0
C      1  0.5216310000000  0.5306750000000  0.4882920000000 1.0
C      1  0.4951230000000  0.5256170000000  0.4745190000000 1.0
C      1  0.4735960000000  0.5251720000000  0.4983040000000 1.0
C      1  0.4897810000000  0.5302670000000  0.5229950000000 1.0
C      1  0.5440790000000  0.4827330000000  0.3975250000000 1.0
C      1  0.4155070000000  0.4827150000000  0.4263550000000 1.0
C      1  0.4041210000000  0.4830180000000  0.5576850000000 1.0
C      1  0.5246510000000  0.4826950000000  0.6087390000000 1.0
C      1  0.6111960000000  0.4830070000000  0.5097480000000 1.0
C      1  0.5035010000000  0.4684010000000  0.5942100000000 1.0
C      1  0.5909490000000  0.4688350000000  0.5256140000000 1.0
C      1  0.5528520000000  0.4684140000000  0.4216060000000 1.0
C      1  0.4412340000000  0.4684230000000  0.4254460000000 1.0
C      1  0.4109760000000  0.4688600000000  0.5328610000000 1.0
C      1  0.4907120000000  0.5772440000000  0.5256100000000 1.0
C      1  0.5213960000000  0.5766440000000  0.5169180000000 1.0
C      1  0.5225110000000  0.5773420000000  0.4849340000000 1.0
C      1  0.4924610000000  0.5763070000000  0.4738660000000 1.0
C      1  0.4728340000000  0.5761950000000  0.4989110000000 1.0
C      1  0.4872930000000  0.4217880000000  0.5879600000000 1.0
C      1  0.5795560000000  0.4220990000000  0.5390400000000 1.0
C      1  0.5621100000000  0.4216900000000  0.4362660000000 1.0
C      1  0.4586560000000  0.4220240000000  0.4214180000000 1.0
C      1  0.4125710000000  0.4221770000000  0.5152450000000 1.0
C      1  0.5425660000000  0.4035450000000  0.4492970000000 1.0
C      1  0.4650230000000  0.4041680000000  0.4441270000000 1.0
C      1  0.4357970000000  0.4037530000000  0.5161460000000 1.0
C      1  0.4954340000000  0.4037070000000  0.5659280000000 1.0
C      1  0.5614140000000  0.4035420000000  0.5246730000000 1.0
C      1  0.5449980000000  0.3917120000000  0.4765440000000 1.0
C      1  0.4916360000000  0.3924960000000  0.4502640000000 1.0
C      1  0.4501060000000  0.3927390000000  0.4926360000000 1.0
C      1  0.4773990000000  0.3918670000000  0.5453890000000 1.0
C      1  0.5360410000000  0.3923910000000  0.5352990000000 1.0
C      1  0.5845330000000  0.5649260000000  0.4971440000000 1.0
C      1  0.5235930000000  0.5647620000000  0.4190320000000 1.0
C      1  0.4300900000000  0.5645280000000  0.4524770000000 1.0
C      1  0.4334060000000  0.5648960000000  0.5519800000000 1.0
C      1  0.5285730000000  0.5646950000000  0.5796310000000 1.0
C      1  0.4645350000000  0.5382470000000  0.6082790000000 1.0
C      1  0.5914210000000  0.5379530000000  0.5668010000000 1.0
C      1  0.5922670000000  0.5381790000000  0.4332050000000 1.0
C      1  0.4655130000000  0.5379350000000  0.3921590000000 1.0
C      1  0.3864240000000  0.5379370000000  0.4999600000000 1.0
C      1  0.4705380000000  0.4618130000000  0.3887460000000 1.0
C      1  0.3848630000000  0.4618660000000  0.4939090000000 1.0
C      1  0.4586310000000  0.4617840000000  0.6075530000000 1.0
C      1  0.5892490000000  0.4618770000000  0.5724800000000 1.0
C      1  0.5968700000000  0.4617080000000  0.4373170000000 1.0
C      1  0.5980970000000  0.5121420000000  0.4421070000000 1.0
C      1  0.4759740000000  0.5120410000000  0.3893540000000 1.0
C      1  0.3865450000000  0.5121080000000  0.4888980000000 1.0
C      1  0.4546920000000  0.5121750000000  0.6044830000000 1.0
C      1  0.5847410000000  0.5120830000000  0.5754720000000 1.0
C      1  0.5390710000000  0.5518430000000  0.4807640000000 1.0
C      1  0.4934210000000  0.5497290000000  0.4568600000000 1.0
C      1  0.4569510000000  0.5494980000000  0.4924910000000 1.0
C      1  0.4800800000000  0.5517020000000  0.5389980000000 1.0
C      1  0.5309570000000  0.5493630000000  0.5314480000000 1.0
C      1  0.5016300000000  0.5065360000000  0.4005870000000 1.0
C      1  0.4048740000000  0.5067300000000  0.4676950000000 1.0
C      1  0.4406370000000  0.5068430000000  0.5802420000000 1.0
C      1  0.5574420000000  0.5065940000000  0.5817440000000 1.0
C      1  0.5951530000000  0.5068510000000  0.4699850000000 1.0
C      1  0.5083040000000  0.5568230000000  0.5992850000000 1.0
C      1  0.5967740000000  0.5568420000000  0.5225070000000 1.0
C      1  0.5515270000000  0.5568470000000  0.4148880000000 1.0
C      1  0.4349560000000  0.5566630000000  0.4246700000000 1.0
C      1  0.4085320000000  0.5567880000000  0.5387570000000 1.0
C      1  0.5563730000000  0.5080660000000  0.3913850000000 1.0
C      1  0.4136960000000  0.5080630000000  0.4127290000000 1.0
C      1  0.3905680000000  0.5083360000000  0.5555000000000 1.0
C      1  0.5181680000000  0.5079640000000  0.6209730000000 1.0
C      1  0.6208890000000  0.5082710000000  0.5195710000000 1.0
C      1  0.6020460000000  0.4882040000000  0.4269820000000 1.0
C      1  0.4625480000000  0.4883530000000  0.3807410000000 1.0
C      1  0.3745150000000  0.4883020000000  0.4991020000000 1.0
C      1  0.4605210000000  0.4882510000000  0.6189950000000 1.0
C      1  0.6005780000000  0.4883450000000  0.5743430000000 1.0
C      1  0.4392940000000  0.5061960000000  0.5325060000000 1.0
C      1  0.5113050000000  0.5057120000000  0.5671310000000 1.0
C      1  0.5677790000000  0.5060850000000  0.5091250000000 1.0
C      1  0.5309930000000  0.5059770000000  0.4390890000000 1.0
C      1  0.4503310000000  0.5055340000000  0.4522860000000 1.0
C      1  0.5698910000000  0.4307690000000  0.4859790000000 1.0
C      1  0.5085040000000  0.4317820000000  0.4297880000000 1.0
C      1  0.4359250000000  0.4323990000000  0.4705160000000 1.0
C      1  0.4518250000000  0.4309880000000  0.5523170000000 1.0
C      1  0.5343970000000  0.4320840000000  0.5614410000000 1.0
C      1  0.4548090000000  0.5460320000000  0.5510110000000 1.0
C      1  0.5342190000000  0.5453760000000  0.5595080000000 1.0
C      1  0.5665600000000  0.5460910000000  0.4854530000000 1.0
C      1  0.5072460000000  0.5455000000000  0.4321980000000 1.0
C      1  0.4375060000000  0.5452910000000  0.4721170000000 1.0
C      1  0.4403240000000  0.6116960000000  0.5514730000000 1.0
C      1  0.5306700000000  0.6116240000000  0.5729300000000 1.0
C      1  0.5787910000000  0.6117550000000  0.4932840000000 1.0
C      1  0.5178520000000  0.6116940000000  0.4230390000000 1.0
C      1  0.4322460000000  0.6113960000000  0.4589930000000 1.0
C      1  0.5356540000000  0.5190580000000  0.5687330000000 1.0
C      1  0.5757230000000  0.5195980000000  0.4862230000000 1.0
C      1  0.5116800000000  0.5191240000000  0.4238840000000 1.0
C      1  0.4302290000000  0.5191020000000  0.4657120000000 1.0
C      1  0.4467580000000  0.5195580000000  0.5556700000000 1.0
C      1  0.5327790000000  0.6015760000000  0.4700110000000 1.0
C      1  0.4812640000000  0.6001030000000  0.4587440000000 1.0
C      1  0.4546450000000  0.5999080000000  0.5045760000000 1.0
C      1  0.4909620000000  0.6015120000000  0.5436840000000 1.0
C      1  0.5396370000000  0.6002760000000  0.5228690000000 1.0
C      1  0.4187840000000  0.5874600000000  0.4656540000000 1.0
C      1  0.4423680000000  0.5879590000000  0.5666860000000 1.0
C      1  0.5454060000000  0.5876540000000  0.5755000000000 1.0
C      1  0.5859590000000  0.5879270000000  0.4798880000000 1.0
C      1  0.5075360000000  0.5876700000000  0.4123430000000 1.0
END
