TITL C-3201373-1215-1534 5105.4974610175 125000 -774.448653424473 0 0 125 (C1) n - 1
REM
REM in /home/nfs/bkarasulu/CARBON/AIRSS/Generating-Clusters/LCBOP/Higher-Symm/SD-CG/FIRE-CG
REM
REM
REM
REM
REM
REM ./C.cell (b20cbc046b6831c77cfcea5457e17084)
REM AIRSS Version 0.9.1 bugfix July 2018 build 013d7b7c2542+ Fri, 06 Jul 2018 19:26:36 +0100
REM compiler GCC version 9.2.1 20190827 (Red Hat 9.2.1-1)
REM options -cpp -mtune=generic -march=x86-64 -g -O0 -fpre-include=/usr/include/finclude/math-vector-fortran.h
REM seed -453478276 1220359491 1570714491 1115732421 -2013679992 1581226469 -185584919 1436323508 -368607354 -1564682307 1018437265 -347604754 74868811 -1547528967 897513221 -1726017970 -1137668565 -1926557879 -1216602726 -1324184606 1741184481 367421153 570721599 1355533183 1310158662 -1352642233 -346658073 593182440 -979961769 156155190 719699275 255690288 190312450
REM
CELL 1.54180   50.00000   50.00000   50.00000   90.00000   90.00000   90.00000
LATT -1
SFAC C  
C      1  0.5288320000000  0.3977370000000  0.5248850000000 1.0
C      1  0.5235920000000  0.3964860000000  0.4734440000000 1.0
C      1  0.4723780000000  0.3871370000000  0.4778070000000 1.0
C      1  0.4778070000000  0.3911980000000  0.5288160000000 1.0
C      1  0.5337790000000  0.6102520000000  0.5177530000000 1.0
C      1  0.5182730000000  0.6045240000000  0.4681790000000 1.0
C      1  0.4687290000000  0.5984590000000  0.4849520000000 1.0
C      1  0.4835310000000  0.6040160000000  0.5355570000000 1.0
C      1  0.4975540000000  0.4802620000000  0.5956680000000 1.0
C      1  0.5892480000000  0.4831600000000  0.5054100000000 1.0
C      1  0.5023240000000  0.4846130000000  0.4013000000000 1.0
C      1  0.4062980000000  0.4773250000000  0.4950040000000 1.0
C      1  0.4996470000000  0.5087990000000  0.5970300000000 1.0
C      1  0.5937710000000  0.5114770000000  0.5032260000000 1.0
C      1  0.5040790000000  0.5132650000000  0.4010290000000 1.0
C      1  0.4051380000000  0.5060280000000  0.4970800000000 1.0
C      1  0.5361630000000  0.3918880000000  0.4983450000000 1.0
C      1  0.4990530000000  0.3832150000000  0.4690370000000 1.0
C      1  0.4674300000000  0.3805710000000  0.5046980000000 1.0
C      1  0.5048550000000  0.3857990000000  0.5340890000000 1.0
C      1  0.5324750000000  0.6154520000000  0.4900170000000 1.0
C      1  0.4901740000000  0.6080100000000  0.4692230000000 1.0
C      1  0.4679300000000  0.6074280000000  0.5119160000000 1.0
C      1  0.5100890000000  0.6141650000000  0.5332760000000 1.0
C      1  0.5113570000000  0.5669810000000  0.4357110000000 1.0
C      1  0.4425230000000  0.5583730000000  0.4977140000000 1.0
C      1  0.4977510000000  0.5661580000000  0.5663080000000 1.0
C      1  0.5690800000000  0.5738420000000  0.5090710000000 1.0
C      1  0.5109460000000  0.4316660000000  0.4398700000000 1.0
C      1  0.4405280000000  0.4255600000000  0.4765180000000 1.0
C      1  0.4781740000000  0.4336210000000  0.5552140000000 1.0
C      1  0.5442490000000  0.4446450000000  0.5241860000000 1.0
C      1  0.4563550000000  0.4059450000000  0.4631570000000 1.0
C      1  0.4643120000000  0.4142390000000  0.5395450000000 1.0
C      1  0.5365800000000  0.4216800000000  0.5388220000000 1.0
C      1  0.5284590000000  0.4207870000000  0.4597390000000 1.0
C      1  0.4560300000000  0.5738740000000  0.4778320000000 1.0
C      1  0.4765200000000  0.5821200000000  0.5534840000000 1.0
C      1  0.5521910000000  0.5904010000000  0.5267620000000 1.0
C      1  0.5288120000000  0.5830130000000  0.4526190000000 1.0
C      1  0.4119790000000  0.5216310000000  0.5470770000000 1.0
C      1  0.5507600000000  0.5231260000000  0.5922430000000 1.0
C      1  0.5894800000000  0.5211770000000  0.4498090000000 1.0
C      1  0.4529570000000  0.5272250000000  0.4112410000000 1.0
C      1  0.4141170000000  0.4677800000000  0.5477820000000 1.0
C      1  0.5496660000000  0.4691300000000  0.5906630000000 1.0
C      1  0.5846320000000  0.4683210000000  0.4533880000000 1.0
C      1  0.4493940000000  0.4739830000000  0.4082650000000 1.0
C      1  0.5759620000000  0.5088240000000  0.4277080000000 1.0
C      1  0.4316070000000  0.5154370000000  0.4262090000000 1.0
C      1  0.4288550000000  0.5103970000000  0.5667630000000 1.0
C      1  0.5713300000000  0.5110170000000  0.5768930000000 1.0
C      1  0.5734770000000  0.4799500000000  0.4296160000000 1.0
C      1  0.4279180000000  0.4868760000000  0.4223010000000 1.0
C      1  0.4259540000000  0.4817510000000  0.5701110000000 1.0
C      1  0.5720190000000  0.4820690000000  0.5784590000000 1.0
C      1  0.4204630000000  0.5246680000000  0.4509910000000 1.0
C      1  0.4525980000000  0.5212710000000  0.5785960000000 1.0
C      1  0.5855810000000  0.5217180000000  0.5542470000000 1.0
C      1  0.5563450000000  0.5200250000000  0.4096870000000 1.0
C      1  0.4097320000000  0.4751590000000  0.4414610000000 1.0
C      1  0.4445140000000  0.4716400000000  0.5897040000000 1.0
C      1  0.5873290000000  0.4709730000000  0.5569370000000 1.0
C      1  0.5522060000000  0.4700790000000  0.4128750000000 1.0
C      1  0.5231430000000  0.5408890000000  0.4342710000000 1.0
C      1  0.4476910000000  0.5287190000000  0.4925930000000 1.0
C      1  0.4949080000000  0.5358530000000  0.5579950000000 1.0
C      1  0.5669500000000  0.5466900000000  0.5191820000000 1.0
C      1  0.5152020000000  0.4600730000000  0.4392030000000 1.0
C      1  0.4396760000000  0.4528900000000  0.4680780000000 1.0
C      1  0.4738510000000  0.4622420000000  0.5567550000000 1.0
C      1  0.5484980000000  0.4724140000000  0.5315800000000 1.0
C      1  0.4811670000000  0.4633400000000  0.4865400000000 1.0
C      1  0.4678210000000  0.4636910000000  0.5111970000000 1.0
C      1  0.5115960000000  0.4901720000000  0.5092160000000 1.0
C      1  0.5081850000000  0.4713560000000  0.4880930000000 1.0
C      1  0.4948690000000  0.5238840000000  0.4812970000000 1.0
C      1  0.4937720000000  0.5565640000000  0.5164040000000 1.0
C      1  0.5198910000000  0.5514440000000  0.5075180000000 1.0
C      1  0.5185130000000  0.5385510000000  0.4827360000000 1.0
C      1  0.4391970000000  0.4189370000000  0.5277280000000 1.0
C      1  0.5262350000000  0.4234560000000  0.5648350000000 1.0
C      1  0.5422460000000  0.4430500000000  0.4727320000000 1.0
C      1  0.4649430000000  0.4108000000000  0.4367510000000 1.0
C      1  0.4566680000000  0.5626590000000  0.5433090000000 1.0
C      1  0.5408560000000  0.5720460000000  0.5468470000000 1.0
C      1  0.5508340000000  0.5650790000000  0.4627030000000 1.0
C      1  0.4666990000000  0.5561690000000  0.4572720000000 1.0
C      1  0.5278570000000  0.4702720000000  0.4651660000000 1.0
C      1  0.4630420000000  0.4698890000000  0.4659020000000 1.0
C      1  0.4667190000000  0.4785780000000  0.5343720000000 1.0
C      1  0.5291280000000  0.4943610000000  0.5311850000000 1.0
C      1  0.5373780000000  0.5355950000000  0.4606030000000 1.0
C      1  0.4687080000000  0.5269160000000  0.4676880000000 1.0
C      1  0.4754770000000  0.5395140000000  0.5346310000000 1.0
C      1  0.5390930000000  0.5454310000000  0.5305220000000 1.0
C      1  0.5957490000000  0.5215850000000  0.4763050000000 1.0
C      1  0.4784720000000  0.5263890000000  0.4019480000000 1.0
C      1  0.4011370000000  0.5178650000000  0.5226680000000 1.0
C      1  0.5253870000000  0.5204610000000  0.6012410000000 1.0
C      1  0.5898410000000  0.4694130000000  0.4801370000000 1.0
C      1  0.4755480000000  0.4737790000000  0.4007640000000 1.0
C      1  0.4079510000000  0.4651910000000  0.5212390000000 1.0
C      1  0.5231210000000  0.4674370000000  0.5960450000000 1.0
C      1  0.5239920000000  0.5754350000000  0.5685560000000 1.0
C      1  0.5695580000000  0.5749780000000  0.4810290000000 1.0
C      1  0.4834410000000  0.5669540000000  0.4374780000000 1.0
C      1  0.4367440000000  0.5668160000000  0.5239690000000 1.0
C      1  0.5000740000000  0.4247560000000  0.5707900000000 1.0
C      1  0.5528130000000  0.4396320000000  0.4979190000000 1.0
C      1  0.4887220000000  0.4197340000000  0.4281460000000 1.0
C      1  0.4305960000000  0.4200240000000  0.5023270000000 1.0
C      1  0.5775400000000  0.4751010000000  0.5305170000000 1.0
C      1  0.5236170000000  0.4710090000000  0.4147080000000 1.0
C      1  0.4146410000000  0.4668260000000  0.4686530000000 1.0
C      1  0.4727700000000  0.4708480000000  0.5841230000000 1.0
C      1  0.5854850000000  0.5271110000000  0.5259760000000 1.0
C      1  0.5281730000000  0.5252930000000  0.4116610000000 1.0
C      1  0.4219680000000  0.5199640000000  0.4792140000000 1.0
C      1  0.4811450000000  0.5222730000000  0.5803780000000 1.0
C      1  0.4676150000000  0.5139970000000  0.5199950000000 1.0
C      1  0.5247680000000  0.5208370000000  0.5438830000000 1.0
C      1  0.4641990000000  0.4976220000000  0.4575550000000 1.0
C      1  0.5395940000000  0.5001400000000  0.4618130000000 1.0
C      1  0.4916570000000  0.5090130000000  0.5046860000000 1.0
END
