TITL C-3201376-6384-1652 0.0356981924495359 125000 -964.442102408356 0 0 157 (C1) n - 1
REM
REM in /home/nfs/bkarasulu/CARBON/AIRSS/Generating-Clusters/LCBOP/Higher-Symm/SD-CG/FIRE-CG
REM
REM
REM
REM
REM
REM ./C.cell (b20cbc046b6831c77cfcea5457e17084)
REM AIRSS Version 0.9.1 bugfix July 2018 build 013d7b7c2542+ Fri, 06 Jul 2018 19:26:36 +0100
REM compiler GCC version 9.2.1 20190827 (Red Hat 9.2.1-1)
REM options -cpp -mtune=generic -march=x86-64 -g -O0 -fpre-include=/usr/include/finclude/math-vector-fortran.h
REM seed -2031816822 -2093388407 1152224396 1310041697 31759088 2083966815 67770501 620391214 -1562874664 -1435242943 795805243 1128716561 -33313149 1635645513 1007015052 833236672 1093987850 -230292870 -90672827 -621096744 -835143061 219198773 1981699639 -1565214576 -1504002118 1720271736 1841055254 -101434482 -1876568090 987602599 1280757950 1485559265 1044480440
REM
CELL 1.54180   50.00000   50.00000   50.00000   90.00000   90.00000   90.00000
LATT -1
SFAC C  
C      1  0.4858090000000  0.4002180000000  0.4783230000000 1.0
C      1  0.5912300000000  0.4442600000000  0.4700200000000 1.0
C      1  0.4412270000000  0.5663970000000  0.4386870000000 1.0
C      1  0.5504610000000  0.4971930000000  0.5885190000000 1.0
C      1  0.4032000000000  0.5450470000000  0.4978260000000 1.0
C      1  0.4581670000000  0.5174570000000  0.4126600000000 1.0
C      1  0.5535200000000  0.4780130000000  0.4117280000000 1.0
C      1  0.5798950000000  0.5258980000000  0.5577930000000 1.0
C      1  0.3864100000000  0.5126600000000  0.4637000000000 1.0
C      1  0.4622950000000  0.5730160000000  0.4585180000000 1.0
C      1  0.5042070000000  0.5563330000000  0.5913310000000 1.0
C      1  0.4139360000000  0.4311150000000  0.5269570000000 1.0
C      1  0.5963850000000  0.5687310000000  0.5061150000000 1.0
C      1  0.5800460000000  0.5509600000000  0.4450810000000 1.0
C      1  0.4369110000000  0.4193770000000  0.4880110000000 1.0
C      1  0.5161800000000  0.5133880000000  0.5021950000000 1.0
C      1  0.5334680000000  0.5007470000000  0.4518120000000 1.0
C      1  0.4432740000000  0.5209750000000  0.5090480000000 1.0
C      1  0.5029950000000  0.5306370000000  0.6044100000000 1.0
C      1  0.4810800000000  0.5719690000000  0.5817800000000 1.0
C      1  0.5308760000000  0.4614780000000  0.4056830000000 1.0
C      1  0.4642730000000  0.5526890000000  0.4801050000000 1.0
C      1  0.4913390000000  0.5794160000000  0.4555170000000 1.0
C      1  0.4972020000000  0.5554320000000  0.5308980000000 1.0
C      1  0.5627270000000  0.5016010000000  0.5194890000000 1.0
C      1  0.4577310000000  0.4712230000000  0.4849460000000 1.0
C      1  0.4448220000000  0.4133950000000  0.4601910000000 1.0
C      1  0.5172840000000  0.4823070000000  0.5378990000000 1.0
C      1  0.4518120000000  0.4831410000000  0.5827410000000 1.0
C      1  0.4723810000000  0.5710610000000  0.4002060000000 1.0
C      1  0.6076490000000  0.4349770000000  0.5723220000000 1.0
C      1  0.4599020000000  0.4301040000000  0.5044160000000 1.0
C      1  0.4279440000000  0.4127260000000  0.5438650000000 1.0
C      1  0.5371940000000  0.5942140000000  0.4744930000000 1.0
C      1  0.4321970000000  0.5581070000000  0.5642540000000 1.0
C      1  0.5995360000000  0.5457880000000  0.5497760000000 1.0
C      1  0.4735310000000  0.4898340000000  0.5016980000000 1.0
C      1  0.5779800000000  0.6050530000000  0.5310170000000 1.0
C      1  0.5609930000000  0.4481660000000  0.5732420000000 1.0
C      1  0.5413620000000  0.5628020000000  0.5556660000000 1.0
C      1  0.5207690000000  0.4595540000000  0.5992830000000 1.0
C      1  0.4248400000000  0.4565900000000  0.4526740000000 1.0
C      1  0.4591680000000  0.4562550000000  0.5855700000000 1.0
C      1  0.4501240000000  0.5191810000000  0.6120600000000 1.0
C      1  0.4765710000000  0.3938380000000  0.5563420000000 1.0
C      1  0.5753970000000  0.5879870000000  0.5082350000000 1.0
C      1  0.5999700000000  0.5155820000000  0.4804330000000 1.0
C      1  0.5679940000000  0.6309750000000  0.5314090000000 1.0
C      1  0.5288680000000  0.5634140000000  0.5793080000000 1.0
C      1  0.5547610000000  0.5638470000000  0.4415390000000 1.0
C      1  0.4353370000000  0.4671460000000  0.4066930000000 1.0
C      1  0.5450110000000  0.4685620000000  0.4875920000000 1.0
C      1  0.5233430000000  0.5085060000000  0.6021130000000 1.0
C      1  0.6174040000000  0.5710220000000  0.5874030000000 1.0
C      1  0.4555220000000  0.4457290000000  0.4171420000000 1.0
C      1  0.5864590000000  0.4695710000000  0.4573830000000 1.0
C      1  0.3896780000000  0.4796070000000  0.4299530000000 1.0
C      1  0.4040770000000  0.5359220000000  0.4686520000000 1.0
C      1  0.4845890000000  0.4404500000000  0.4135000000000 1.0
C      1  0.4809450000000  0.5203700000000  0.5599560000000 1.0
C      1  0.4387810000000  0.5111020000000  0.4816070000000 1.0
C      1  0.4676830000000  0.4799540000000  0.4588540000000 1.0
C      1  0.5768120000000  0.5037360000000  0.5755400000000 1.0
C      1  0.4150990000000  0.5373990000000  0.5538360000000 1.0
C      1  0.6031330000000  0.5702090000000  0.5641440000000 1.0
C      1  0.3801570000000  0.4852580000000  0.4562480000000 1.0
C      1  0.4993080000000  0.4478710000000  0.4794150000000 1.0
C      1  0.5959070000000  0.5355500000000  0.4605710000000 1.0
C      1  0.4310840000000  0.5461880000000  0.3919590000000 1.0
C      1  0.4841620000000  0.4260180000000  0.4899850000000 1.0
C      1  0.5220640000000  0.4191180000000  0.4407880000000 1.0
C      1  0.4805040000000  0.3948630000000  0.4311940000000 1.0
C      1  0.4935970000000  0.4680160000000  0.4591030000000 1.0
C      1  0.4853160000000  0.4471650000000  0.5444490000000 1.0
C      1  0.5029210000000  0.3979960000000  0.5619170000000 1.0
C      1  0.4516980000000  0.5037370000000  0.4568960000000 1.0
C      1  0.4010250000000  0.5353630000000  0.5269350000000 1.0
C      1  0.6185290000000  0.4886510000000  0.5515740000000 1.0
C      1  0.5494920000000  0.4263570000000  0.5306120000000 1.0
C      1  0.5913060000000  0.5934770000000  0.5531630000000 1.0
C      1  0.5047000000000  0.5306680000000  0.3993620000000 1.0
C      1  0.4331940000000  0.4893030000000  0.3878740000000 1.0
C      1  0.5612120000000  0.5238860000000  0.5364720000000 1.0
C      1  0.5644620000000  0.4867900000000  0.4958650000000 1.0
C      1  0.5521210000000  0.5905950000000  0.4503350000000 1.0
C      1  0.4952540000000  0.5571530000000  0.3965500000000 1.0
C      1  0.4423770000000  0.4354960000000  0.4424460000000 1.0
C      1  0.3771080000000  0.4602680000000  0.4719500000000 1.0
C      1  0.5540470000000  0.5039940000000  0.3988040000000 1.0
C      1  0.5358430000000  0.4254780000000  0.4636150000000 1.0
C      1  0.5864690000000  0.4296790000000  0.4923390000000 1.0
C      1  0.5458940000000  0.4672990000000  0.5877100000000 1.0
C      1  0.4382940000000  0.5177890000000  0.3913710000000 1.0
C      1  0.5101860000000  0.4554100000000  0.5332420000000 1.0
C      1  0.5034740000000  0.5522740000000  0.4539730000000 1.0
C      1  0.5728220000000  0.4231640000000  0.5147480000000 1.0
C      1  0.4152500000000  0.4687530000000  0.4282070000000 1.0
C      1  0.4163090000000  0.5156220000000  0.5736760000000 1.0
C      1  0.4864770000000  0.5348050000000  0.4727100000000 1.0
C      1  0.4259890000000  0.5422890000000  0.4470970000000 1.0
C      1  0.4822820000000  0.4454450000000  0.5731010000000 1.0
C      1  0.5497840000000  0.5806620000000  0.4968310000000 1.0
C      1  0.5312840000000  0.5210500000000  0.3977110000000 1.0
C      1  0.4449460000000  0.4701540000000  0.5320200000000 1.0
C      1  0.3848250000000  0.5116030000000  0.5243520000000 1.0
C      1  0.5731380000000  0.4717710000000  0.4319710000000 1.0
C      1  0.6433890000000  0.4850100000000  0.5627100000000 1.0
C      1  0.4504550000000  0.3997510000000  0.5518410000000 1.0
C      1  0.4345920000000  0.5039570000000  0.5929350000000 1.0
C      1  0.5314430000000  0.5478480000000  0.4473290000000 1.0
C      1  0.4426550000000  0.5719710000000  0.5178940000000 1.0
C      1  0.3880960000000  0.4373410000000  0.4834620000000 1.0
C      1  0.4883460000000  0.5908670000000  0.5614850000000 1.0
C      1  0.4629030000000  0.4476160000000  0.5276470000000 1.0
C      1  0.4991120000000  0.5294210000000  0.5416000000000 1.0
C      1  0.5420710000000  0.5542220000000  0.5051680000000 1.0
C      1  0.4945640000000  0.5815750000000  0.5367930000000 1.0
C      1  0.5473800000000  0.5481740000000  0.5324600000000 1.0
C      1  0.4902970000000  0.4849590000000  0.3965430000000 1.0
C      1  0.5068680000000  0.4389690000000  0.5860640000000 1.0
C      1  0.5885110000000  0.4544210000000  0.5707730000000 1.0
C      1  0.4678900000000  0.3964720000000  0.4565750000000 1.0
C      1  0.5466310000000  0.4269760000000  0.5594540000000 1.0
C      1  0.4508340000000  0.5487270000000  0.5048600000000 1.0
C      1  0.5952020000000  0.4820940000000  0.5675340000000 1.0
C      1  0.6169330000000  0.4995960000000  0.5253450000000 1.0
C      1  0.5089540000000  0.5972210000000  0.4694130000000 1.0
C      1  0.4539250000000  0.4970590000000  0.5222170000000 1.0
C      1  0.5149840000000  0.4821390000000  0.4485340000000 1.0
C      1  0.3894000000000  0.4906040000000  0.5082580000000 1.0
C      1  0.5271310000000  0.4382440000000  0.5171120000000 1.0
C      1  0.5349500000000  0.5307680000000  0.4903350000000 1.0
C      1  0.6100050000000  0.5207780000000  0.5074810000000 1.0
C      1  0.4099120000000  0.4241130000000  0.4982860000000 1.0
C      1  0.4189120000000  0.4597420000000  0.5269170000000 1.0
C      1  0.5386360000000  0.5254610000000  0.4629890000000 1.0
C      1  0.5574000000000  0.6547830000000  0.5311420000000 1.0
C      1  0.5142160000000  0.5088170000000  0.5295030000000 1.0
C      1  0.6051510000000  0.5460020000000  0.5206860000000 1.0
C      1  0.4536360000000  0.5645590000000  0.5795550000000 1.0
C      1  0.4910660000000  0.5111260000000  0.4893320000000 1.0
C      1  0.5211500000000  0.4180740000000  0.5714660000000 1.0
C      1  0.5112870000000  0.4830440000000  0.6121360000000 1.0
C      1  0.4445290000000  0.5209270000000  0.4370940000000 1.0
C      1  0.5023500000000  0.4606220000000  0.4031650000000 1.0
C      1  0.4102640000000  0.4727410000000  0.5026650000000 1.0
C      1  0.5853670000000  0.4911440000000  0.4767510000000 1.0
C      1  0.4844170000000  0.5111310000000  0.4042860000000 1.0
C      1  0.5773730000000  0.5122880000000  0.3869210000000 1.0
C      1  0.4973480000000  0.4175090000000  0.4260200000000 1.0
C      1  0.4714420000000  0.4975470000000  0.5686330000000 1.0
C      1  0.5284110000000  0.4441460000000  0.4867840000000 1.0
C      1  0.4767120000000  0.5246900000000  0.6154390000000 1.0
C      1  0.4771510000000  0.3742520000000  0.4137490000000 1.0
C      1  0.4347850000000  0.5965010000000  0.5221410000000 1.0
C      1  0.4457160000000  0.5658580000000  0.4091490000000 1.0
C      1  0.4286730000000  0.4667050000000  0.4800660000000 1.0
END
