TITL C-3201373-1215-967 24791.0284012823 125000 -570.066207183938 0 0 99 (C1) n - 1
REM
REM in /home/nfs/bkarasulu/CARBON/AIRSS/Generating-Clusters/LCBOP/Higher-Symm/SD-CG/FIRE-CG
REM
REM
REM
REM
REM
REM ./C.cell (b20cbc046b6831c77cfcea5457e17084)
REM AIRSS Version 0.9.1 bugfix July 2018 build 013d7b7c2542+ Fri, 06 Jul 2018 19:26:36 +0100
REM compiler GCC version 9.2.1 20190827 (Red Hat 9.2.1-1)
REM options -cpp -mtune=generic -march=x86-64 -g -O0 -fpre-include=/usr/include/finclude/math-vector-fortran.h
REM seed -1741314578 -1696653533 1894786757 -590024457 1437726533 -1555418455 -794859706 -405643678 -108007896 172172837 289436787 1181112526 915228868 600400815 2129696134 1719480559 -1408670361 -1869912779 213457784 524693197 1018521820 -1739226224 444782350 -1160018654 -1657614616 -1746159316 1688809567 -9776275 447307159 -323237314 2089079563 -388366623 1245994316
REM
CELL 1.54180   50.00000   50.00000   50.00000   90.00000   90.00000   90.00000
LATT -1
SFAC C  
C      1  0.5481800000000  0.4221600000000  0.4763010000000 1.0
C      1  0.5229450000000  0.5109350000000  0.5774360000000 1.0
C      1  0.5393680000000  0.5485960000000  0.4354760000000 1.0
C      1  0.4706930000000  0.4141340000000  0.4706370000000 1.0
C      1  0.4590200000000  0.5185720000000  0.5751050000000 1.0
C      1  0.4949740000000  0.5636680000000  0.4512130000000 1.0
C      1  0.5391620000000  0.5726660000000  0.4773240000000 1.0
C      1  0.5027400000000  0.4911150000000  0.5808190000000 1.0
C      1  0.5434410000000  0.4453570000000  0.4361020000000 1.0
C      1  0.4755180000000  0.5729630000000  0.4697510000000 1.0
C      1  0.4586210000000  0.4701020000000  0.5739250000000 1.0
C      1  0.4916290000000  0.4213560000000  0.4511420000000 1.0
C      1  0.4678430000000  0.4878520000000  0.4562150000000 1.0
C      1  0.4711440000000  0.4395660000000  0.5414330000000 1.0
C      1  0.4743330000000  0.5671860000000  0.5207470000000 1.0
C      1  0.5203080000000  0.4883770000000  0.4551220000000 1.0
C      1  0.5379190000000  0.4547360000000  0.5459920000000 1.0
C      1  0.5295670000000  0.5719290000000  0.5292960000000 1.0
C      1  0.4606950000000  0.5105110000000  0.4396950000000 1.0
C      1  0.4699600000000  0.5624420000000  0.5471640000000 1.0
C      1  0.4767170000000  0.4518150000000  0.5164100000000 1.0
C      1  0.5279340000000  0.5055450000000  0.4338660000000 1.0
C      1  0.5248700000000  0.5524820000000  0.5475080000000 1.0
C      1  0.5276040000000  0.4570110000000  0.5193060000000 1.0
C      1  0.4409400000000  0.4371520000000  0.4826260000000 1.0
C      1  0.4357020000000  0.5218850000000  0.5559780000000 1.0
C      1  0.4342870000000  0.5191670000000  0.4475000000000 1.0
C      1  0.5718760000000  0.4382180000000  0.4831180000000 1.0
C      1  0.5535610000000  0.5120080000000  0.5567870000000 1.0
C      1  0.5629200000000  0.5321420000000  0.4438950000000 1.0
C      1  0.4446990000000  0.5592640000000  0.4820420000000 1.0
C      1  0.4362730000000  0.4680460000000  0.5541270000000 1.0
C      1  0.3931940000000  0.4757040000000  0.4681900000000 1.0
C      1  0.5616110000000  0.5572190000000  0.4904900000000 1.0
C      1  0.5658120000000  0.4625230000000  0.5418440000000 1.0
C      1  0.5651410000000  0.4650470000000  0.4416300000000 1.0
C      1  0.5632410000000  0.5271930000000  0.4947860000000 1.0
C      1  0.5675620000000  0.4830430000000  0.4656420000000 1.0
C      1  0.5701350000000  0.4790410000000  0.5173310000000 1.0
C      1  0.4334930000000  0.5281680000000  0.4965270000000 1.0
C      1  0.4167710000000  0.4847180000000  0.4801830000000 1.0
C      1  0.4337090000000  0.4806950000000  0.5269170000000 1.0
C      1  0.5708150000000  0.4669670000000  0.4899820000000 1.0
C      1  0.5651520000000  0.5132210000000  0.4674850000000 1.0
C      1  0.5638350000000  0.5082620000000  0.5215640000000 1.0
C      1  0.4310450000000  0.4673200000000  0.4989330000000 1.0
C      1  0.4262380000000  0.5112860000000  0.4745480000000 1.0
C      1  0.4336890000000  0.5114920000000  0.5277940000000 1.0
C      1  0.5219510000000  0.4562760000000  0.4208070000000 1.0
C      1  0.5113490000000  0.4654950000000  0.5862920000000 1.0
C      1  0.5257020000000  0.5946010000000  0.4892550000000 1.0
C      1  0.4756780000000  0.4386750000000  0.4343320000000 1.0
C      1  0.4749490000000  0.4487370000000  0.5840170000000 1.0
C      1  0.4854740000000  0.5943390000000  0.4846630000000 1.0
C      1  0.5221310000000  0.5434080000000  0.4130910000000 1.0
C      1  0.5141180000000  0.5350300000000  0.5887450000000 1.0
C      1  0.5358150000000  0.4131060000000  0.4996730000000 1.0
C      1  0.4856090000000  0.5520270000000  0.4279490000000 1.0
C      1  0.4737900000000  0.5396730000000  0.5872020000000 1.0
C      1  0.4802460000000  0.4087530000000  0.4951530000000 1.0
C      1  0.4734450000000  0.5247670000000  0.5324170000000 1.0
C      1  0.4833910000000  0.5234730000000  0.4874200000000 1.0
C      1  0.4758090000000  0.4800460000000  0.5095000000000 1.0
C      1  0.5225830000000  0.5285180000000  0.5311050000000 1.0
C      1  0.5119270000000  0.5235200000000  0.4857470000000 1.0
C      1  0.5235570000000  0.4831670000000  0.5086970000000 1.0
C      1  0.4850960000000  0.4991670000000  0.5301800000000 1.0
C      1  0.4730930000000  0.4952040000000  0.4839610000000 1.0
C      1  0.4747380000000  0.5402370000000  0.5092280000000 1.0
C      1  0.5134340000000  0.5014000000000  0.5295010000000 1.0
C      1  0.5214960000000  0.4960770000000  0.4822710000000 1.0
C      1  0.5241310000000  0.5394950000000  0.5055170000000 1.0
C      1  0.5854210000000  0.4667550000000  0.4228330000000 1.0
C      1  0.5862390000000  0.4545930000000  0.5581480000000 1.0
C      1  0.5836660000000  0.5719170000000  0.4986840000000 1.0
C      1  0.3721390000000  0.4679280000000  0.4549470000000 1.0
C      1  0.4143850000000  0.4529910000000  0.5622810000000 1.0
C      1  0.4244920000000  0.5769120000000  0.4800010000000 1.0
C      1  0.5858540000000  0.5349860000000  0.4285200000000 1.0
C      1  0.5747390000000  0.5177330000000  0.5720500000000 1.0
C      1  0.5964520000000  0.4257220000000  0.4834180000000 1.0
C      1  0.4175590000000  0.5326720000000  0.4306500000000 1.0
C      1  0.4135810000000  0.5354830000000  0.5656900000000 1.0
C      1  0.4207980000000  0.4216450000000  0.4754370000000 1.0
C      1  0.5171210000000  0.4473930000000  0.5653160000000 1.0
C      1  0.5168510000000  0.5915610000000  0.5153650000000 1.0
C      1  0.5061810000000  0.4687900000000  0.4407840000000 1.0
C      1  0.4893570000000  0.4355110000000  0.5626370000000 1.0
C      1  0.4880480000000  0.5897630000000  0.5118150000000 1.0
C      1  0.4785660000000  0.4658940000000  0.4423500000000 1.0
C      1  0.5115000000000  0.5564300000000  0.5715170000000 1.0
C      1  0.5190830000000  0.4324580000000  0.5099810000000 1.0
C      1  0.5097230000000  0.5176210000000  0.4159160000000 1.0
C      1  0.4827410000000  0.5604430000000  0.5711690000000 1.0
C      1  0.4926220000000  0.4314260000000  0.5047040000000 1.0
C      1  0.4818730000000  0.5242020000000  0.4247510000000 1.0
C      1  0.5244280000000  0.5627240000000  0.4552440000000 1.0
C      1  0.5287400000000  0.4261410000000  0.4542070000000 1.0
C      1  0.4734460000000  0.4942600000000  0.5769610000000 1.0
END
