TITL C-3201379-3821-831 0.0227267121519117 125000 -832.629775351716 0 0 138 (C1) n - 1
REM
REM in /home/nfs/bkarasulu/CARBON/AIRSS/Generating-Clusters/LCBOP/Higher-Symm/SD-CG/FIRE-CG
REM
REM
REM
REM
REM
REM ./C.cell (b20cbc046b6831c77cfcea5457e17084)
REM AIRSS Version 0.9.1 bugfix July 2018 build 013d7b7c2542+ Fri, 06 Jul 2018 19:26:36 +0100
REM compiler GCC version 9.2.1 20190827 (Red Hat 9.2.1-1)
REM options -cpp -mtune=generic -march=x86-64 -g -O0 -fpre-include=/usr/include/finclude/math-vector-fortran.h
REM seed 1719688963 -1528466310 -2101683859 606577304 -1600544059 -266414193 750116026 -1875024905 2015472728 -795169970 -1449527635 -468444551 1271930292 -953528609 1295190921 -569221980 -2091645000 -1256268339 273259649 -1885943427 -1797588461 -1188214278 -1586365403 -1233411218 -2004313664 571076534 -1525046170 1980259316 1829503187 274587374 -28770800 -603630709 1470189488
REM
CELL 1.54180   50.00000   50.00000   50.00000   90.00000   90.00000   90.00000
LATT -1
SFAC C  
C      1  0.3898570000000  0.5236070000000  0.5499060000000 1.0
C      1  0.4113970000000  0.4291250000000  0.5482680000000 1.0
C      1  0.4964730000000  0.3834620000000  0.5500020000000 1.0
C      1  0.5909920000000  0.4259710000000  0.5497840000000 1.0
C      1  0.6081310000000  0.5268810000000  0.5445060000000 1.0
C      1  0.5552450000000  0.5976870000000  0.5472670000000 1.0
C      1  0.4545940000000  0.6072720000000  0.5529740000000 1.0
C      1  0.4812900000000  0.4503250000000  0.3266340000000 1.0
C      1  0.5069040000000  0.4484770000000  0.4378840000000 1.0
C      1  0.5305630000000  0.4873110000000  0.4505640000000 1.0
C      1  0.5427310000000  0.5306470000000  0.4373140000000 1.0
C      1  0.4991010000000  0.5570230000000  0.4248170000000 1.0
C      1  0.4562880000000  0.5396980000000  0.4208940000000 1.0
C      1  0.4624930000000  0.4879890000000  0.4405410000000 1.0
C      1  0.4546160000000  0.4403710000000  0.5322970000000 1.0
C      1  0.5189400000000  0.4142950000000  0.5263850000000 1.0
C      1  0.5760100000000  0.4603230000000  0.5265250000000 1.0
C      1  0.5658130000000  0.5315130000000  0.5268730000000 1.0
C      1  0.5231240000000  0.5812220000000  0.5198880000000 1.0
C      1  0.4522050000000  0.5723920000000  0.5266400000000 1.0
C      1  0.4269380000000  0.5049380000000  0.5317190000000 1.0
C      1  0.4832230000000  0.5366380000000  0.5801920000000 1.0
C      1  0.4588330000000  0.5095730000000  0.5826890000000 1.0
C      1  0.4650010000000  0.4734610000000  0.5821870000000 1.0
C      1  0.4971200000000  0.4559600000000  0.5798980000000 1.0
C      1  0.5307140000000  0.4698890000000  0.5785410000000 1.0
C      1  0.5403500000000  0.5046970000000  0.5770380000000 1.0
C      1  0.5191790000000  0.5340190000000  0.5767670000000 1.0
C      1  0.5784580000000  0.4488700000000  0.4716530000000 1.0
C      1  0.5887350000000  0.5296610000000  0.4674730000000 1.0
C      1  0.5360380000000  0.5915480000000  0.4694950000000 1.0
C      1  0.4517760000000  0.5845420000000  0.4740260000000 1.0
C      1  0.4107950000000  0.5133480000000  0.4748060000000 1.0
C      1  0.4347380000000  0.4365270000000  0.4740070000000 1.0
C      1  0.5089250000000  0.4047090000000  0.4730180000000 1.0
C      1  0.4727650000000  0.4244210000000  0.5198620000000 1.0
C      1  0.5445440000000  0.4229920000000  0.5218670000000 1.0
C      1  0.5805850000000  0.4860370000000  0.5185760000000 1.0
C      1  0.5576020000000  0.5513640000000  0.5104540000000 1.0
C      1  0.4970200000000  0.5884810000000  0.5184280000000 1.0
C      1  0.4344850000000  0.5520150000000  0.5232830000000 1.0
C      1  0.4260010000000  0.4793240000000  0.5221400000000 1.0
C      1  0.4232600000000  0.4416540000000  0.5691510000000 1.0
C      1  0.4935630000000  0.4022700000000  0.5697510000000 1.0
C      1  0.5734610000000  0.4352250000000  0.5694720000000 1.0
C      1  0.5917680000000  0.5188700000000  0.5648390000000 1.0
C      1  0.5475830000000  0.5797180000000  0.5663750000000 1.0
C      1  0.4641810000000  0.5885290000000  0.5713640000000 1.0
C      1  0.4071260000000  0.5214950000000  0.5708760000000 1.0
C      1  0.4833600000000  0.4122560000000  0.4561600000000 1.0
C      1  0.5571990000000  0.4333180000000  0.4556740000000 1.0
C      1  0.5872320000000  0.5026160000000  0.4517690000000 1.0
C      1  0.5544780000000  0.5746060000000  0.4506030000000 1.0
C      1  0.4760820000000  0.5903480000000  0.4555080000000 1.0
C      1  0.4210650000000  0.5367980000000  0.4575190000000 1.0
C      1  0.4253260000000  0.4606540000000  0.4571130000000 1.0
C      1  0.5311030000000  0.4856030000000  0.3990420000000 1.0
C      1  0.5288050000000  0.5134170000000  0.3928120000000 1.0
C      1  0.5049050000000  0.5279440000000  0.3860230000000 1.0
C      1  0.4782960000000  0.5168010000000  0.3839570000000 1.0
C      1  0.4743400000000  0.4890770000000  0.3887160000000 1.0
C      1  0.4911380000000  0.4706440000000  0.3754360000000 1.0
C      1  0.5138150000000  0.4643100000000  0.3910870000000 1.0
C      1  0.5710750000000  0.5689760000000  0.4928370000000 1.0
C      1  0.4887360000000  0.6049730000000  0.4968100000000 1.0
C      1  0.4183860000000  0.5523540000000  0.5003940000000 1.0
C      1  0.4118190000000  0.4690690000000  0.5001430000000 1.0
C      1  0.4685070000000  0.4059060000000  0.4987310000000 1.0
C      1  0.5569640000000  0.4146970000000  0.4976280000000 1.0
C      1  0.5950250000000  0.4915900000000  0.4953260000000 1.0
C      1  0.4860660000000  0.4601280000000  0.3503030000000 1.0
C      1  0.5097400000000  0.4449580000000  0.4113410000000 1.0
C      1  0.5426000000000  0.4817930000000  0.4250470000000 1.0
C      1  0.5456100000000  0.5289190000000  0.4103710000000 1.0
C      1  0.5051940000000  0.5538640000000  0.3984580000000 1.0
C      1  0.4573520000000  0.5329130000000  0.3946350000000 1.0
C      1  0.4635840000000  0.4828810000000  0.4142240000000 1.0
C      1  0.4801910000000  0.4043110000000  0.4302380000000 1.0
C      1  0.5602950000000  0.4288960000000  0.4289110000000 1.0
C      1  0.5937990000000  0.5008740000000  0.4253910000000 1.0
C      1  0.5576080000000  0.5814200000000  0.4244380000000 1.0
C      1  0.4719170000000  0.5993240000000  0.4299970000000 1.0
C      1  0.4101660000000  0.5405220000000  0.4327190000000 1.0
C      1  0.4188610000000  0.4578840000000  0.4307630000000 1.0
C      1  0.5345260000000  0.4954140000000  0.5236830000000 1.0
C      1  0.5098610000000  0.5387380000000  0.5000860000000 1.0
C      1  0.4870040000000  0.5413140000000  0.5166990000000 1.0
C      1  0.4719530000000  0.5231490000000  0.5307550000000 1.0
C      1  0.4722870000000  0.4819980000000  0.5164840000000 1.0
C      1  0.5086870000000  0.4562640000000  0.5070730000000 1.0
C      1  0.5292020000000  0.4686010000000  0.5206980000000 1.0
C      1  0.5070310000000  0.3882250000000  0.5236800000000 1.0
C      1  0.5924180000000  0.4369990000000  0.5226650000000 1.0
C      1  0.6123110000000  0.5304160000000  0.5176500000000 1.0
C      1  0.5454800000000  0.5989720000000  0.5205240000000 1.0
C      1  0.4484790000000  0.6006580000000  0.5251720000000 1.0
C      1  0.3861010000000  0.5238820000000  0.5228290000000 1.0
C      1  0.4097180000000  0.4255590000000  0.5213680000000 1.0
C      1  0.5832960000000  0.4290930000000  0.4954370000000 1.0
C      1  0.6023710000000  0.5199900000000  0.4928830000000 1.0
C      1  0.5557710000000  0.5948550000000  0.4935750000000 1.0
C      1  0.4583560000000  0.6049290000000  0.4974310000000 1.0
C      1  0.4006050000000  0.5288380000000  0.4987110000000 1.0
C      1  0.4162390000000  0.4397860000000  0.4976640000000 1.0
C      1  0.4947390000000  0.3906750000000  0.4970240000000 1.0
C      1  0.5094420000000  0.5272800000000  0.4738510000000 1.0
C      1  0.4784960000000  0.5426390000000  0.4383230000000 1.0
C      1  0.4705630000000  0.5004660000000  0.4647150000000 1.0
C      1  0.4776920000000  0.4846550000000  0.4877980000000 1.0
C      1  0.4996530000000  0.4670910000000  0.4830920000000 1.0
C      1  0.5127590000000  0.4667550000000  0.4585460000000 1.0
C      1  0.5300520000000  0.5152480000000  0.4576040000000 1.0
C      1  0.4146070000000  0.4833940000000  0.4745760000000 1.0
C      1  0.4594660000000  0.4184380000000  0.4736740000000 1.0
C      1  0.5396720000000  0.4156510000000  0.4732770000000 1.0
C      1  0.5869820000000  0.4784490000000  0.4703790000000 1.0
C      1  0.5744070000000  0.5569990000000  0.4663260000000 1.0
C      1  0.5012840000000  0.5970770000000  0.4711070000000 1.0
C      1  0.4312320000000  0.5600660000000  0.4747940000000 1.0
C      1  0.4729410000000  0.5635250000000  0.5787830000000 1.0
C      1  0.4315960000000  0.5168420000000  0.5817260000000 1.0
C      1  0.4422680000000  0.4572390000000  0.5803680000000 1.0
C      1  0.4951860000000  0.4279240000000  0.5783730000000 1.0
C      1  0.5525370000000  0.4510650000000  0.5777980000000 1.0
C      1  0.5680980000000  0.5104990000000  0.5753730000000 1.0
C      1  0.5332670000000  0.5582400000000  0.5744040000000 1.0
C      1  0.4506450000000  0.4665920000000  0.5253300000000 1.0
C      1  0.4992210000000  0.4337080000000  0.5203210000000 1.0
C      1  0.5494160000000  0.4507470000000  0.5279050000000 1.0
C      1  0.5606300000000  0.5047370000000  0.5252770000000 1.0
C      1  0.5300620000000  0.5554290000000  0.5101520000000 1.0
C      1  0.4795040000000  0.5672380000000  0.5233510000000 1.0
C      1  0.4438910000000  0.5268090000000  0.5315200000000 1.0
C      1  0.4997960000000  0.4978600000000  0.5907320000000 1.0
C      1  0.4963090000000  0.4964020000000  0.5626000000000 1.0
C      1  0.4834430000000  0.4985160000000  0.5371720000000 1.0
C      1  0.4836950000000  0.5258140000000  0.4609070000000 1.0
C      1  0.5016270000000  0.4983740000000  0.6169200000000 1.0
END
