TITL C-3201374-830-365 2.2190220407913e-06 125000 -514.715288711151 0 0 86 (C3h) n - 1
REM
REM in /home/nfs/bkarasulu/CARBON/AIRSS/Generating-Clusters/LCBOP/Higher-Symm/SD-CG/FIRE-CG
REM
REM
REM
REM
REM
REM ./C.cell (b20cbc046b6831c77cfcea5457e17084)
REM AIRSS Version 0.9.1 bugfix July 2018 build 013d7b7c2542+ Fri, 06 Jul 2018 19:26:36 +0100
REM compiler GCC version 9.2.1 20190827 (Red Hat 9.2.1-1)
REM options -cpp -mtune=generic -march=x86-64 -g -O0 -fpre-include=/usr/include/finclude/math-vector-fortran.h
REM seed 1279404987 1293969568 -481289730 -1359509765 51963865 957699724 -997356168 459289638 938108147 1972910184 -352491140 1905410073 -803770621 -695400024 1635386865 934078237 1613058596 -1932499840 1045825531 1789547245 -1141110937 -1606258374 -845534881 461692016 -1384203403 -2132945717 -344386849 -372118081 -2042467904 -18402787 301283737 -618493366 -808692971
REM
CELL 1.54180   50.00000   50.00000   50.00000   90.00000   90.00000   90.00000
LATT -1
SFAC C  
C      1  0.5084140000000  0.4368870000000  0.4372200000000 1.0
C      1  0.5508400000000  0.4368850000000  0.5382580000000 1.0
C      1  0.4421260000000  0.4368870000000  0.5244810000000 1.0
C      1  0.5084160000000  0.5614580000000  0.4372220000000 1.0
C      1  0.5508420000000  0.5614560000000  0.5382600000000 1.0
C      1  0.4421270000000  0.5614570000000  0.5244830000000 1.0
C      1  0.6048670000000  0.4853590000000  0.5423960000000 1.0
C      1  0.4115310000000  0.4853610000000  0.5692010000000 1.0
C      1  0.4849850000000  0.4853630000000  0.3883640000000 1.0
C      1  0.6048670000000  0.5129800000000  0.5423960000000 1.0
C      1  0.4115310000000  0.5129820000000  0.5692020000000 1.0
C      1  0.4849850000000  0.5129840000000  0.3883650000000 1.0
C      1  0.5886740000000  0.4855420000000  0.4022130000000 1.0
C      1  0.5410290000000  0.4855400000000  0.6252690000000 1.0
C      1  0.3716790000000  0.4855440000000  0.4724800000000 1.0
C      1  0.5886740000000  0.5128020000000  0.4022130000000 1.0
C      1  0.5410300000000  0.5127990000000  0.6252690000000 1.0
C      1  0.3716800000000  0.5128030000000  0.4724800000000 1.0
C      1  0.4910790000000  0.4155290000000  0.4752880000000 1.0
C      1  0.5265390000000  0.4155280000000  0.5042110000000 1.0
C      1  0.4837610000000  0.4155280000000  0.5204590000000 1.0
C      1  0.4910810000000  0.5828150000000  0.4752910000000 1.0
C      1  0.5265410000000  0.5828150000000  0.5042140000000 1.0
C      1  0.4837630000000  0.5828150000000  0.5204610000000 1.0
C      1  0.5043590000000  0.5138180000000  0.5928060000000 1.0
C      1  0.4181290000000  0.5138210000000  0.4569540000000 1.0
C      1  0.5788960000000  0.5138190000000  0.4502020000000 1.0
C      1  0.5043590000000  0.4845220000000  0.5928060000000 1.0
C      1  0.4181280000000  0.4845250000000  0.4569540000000 1.0
C      1  0.5788950000000  0.4845230000000  0.4502020000000 1.0
C      1  0.4509620000000  0.5358090000000  0.5154890000000 1.0
C      1  0.5117860000000  0.5358090000000  0.4493700000000 1.0
C      1  0.5386350000000  0.5358070000000  0.5351050000000 1.0
C      1  0.4509610000000  0.4625350000000  0.5154880000000 1.0
C      1  0.5117860000000  0.4625350000000  0.4493690000000 1.0
C      1  0.5386350000000  0.4625340000000  0.5351040000000 1.0
C      1  0.4597950000000  0.5361820000000  0.4689770000000 1.0
C      1  0.5476510000000  0.5361810000000  0.4802760000000 1.0
C      1  0.4939380000000  0.5361800000000  0.5507110000000 1.0
C      1  0.4597940000000  0.4621630000000  0.4689760000000 1.0
C      1  0.5476500000000  0.4621620000000  0.4802740000000 1.0
C      1  0.4939370000000  0.4621620000000  0.5507100000000 1.0
C      1  0.4369230000000  0.5228750000000  0.5597870000000 1.0
C      1  0.4804430000000  0.5228770000000  0.4150620000000 1.0
C      1  0.5840180000000  0.5228740000000  0.5251140000000 1.0
C      1  0.4369220000000  0.4754680000000  0.5597860000000 1.0
C      1  0.4804430000000  0.4754690000000  0.4150610000000 1.0
C      1  0.5840170000000  0.4754670000000  0.5251140000000 1.0
C      1  0.4853880000000  0.4728280000000  0.5751580000000 1.0
C      1  0.4428970000000  0.4728310000000  0.4493480000000 1.0
C      1  0.5730980000000  0.4728290000000  0.4754550000000 1.0
C      1  0.4853880000000  0.5255130000000  0.5751590000000 1.0
C      1  0.4428970000000  0.5255150000000  0.4493480000000 1.0
C      1  0.5730980000000  0.5255130000000  0.4754560000000 1.0
C      1  0.5018200000000  0.4843650000000  0.4342730000000 1.0
C      1  0.5566910000000  0.4843630000000  0.5340210000000 1.0
C      1  0.4428710000000  0.4843640000000  0.5316670000000 1.0
C      1  0.5018200000000  0.5139800000000  0.4342740000000 1.0
C      1  0.5566910000000  0.5139780000000  0.5340220000000 1.0
C      1  0.4428710000000  0.5139790000000  0.5316670000000 1.0
C      1  0.4594570000000  0.4843920000000  0.5759110000000 1.0
C      1  0.4552100000000  0.4843940000000  0.4265150000000 1.0
C      1  0.5867150000000  0.4843920000000  0.4975350000000 1.0
C      1  0.4594570000000  0.5139500000000  0.5759120000000 1.0
C      1  0.4552110000000  0.5139520000000  0.4265150000000 1.0
C      1  0.5867150000000  0.5139490000000  0.4975360000000 1.0
C      1  0.5840200000000  0.5263800000000  0.4253640000000 1.0
C      1  0.5233080000000  0.5263780000000  0.6096630000000 1.0
C      1  0.3940560000000  0.5263820000000  0.4649360000000 1.0
C      1  0.5840190000000  0.4719630000000  0.4253630000000 1.0
C      1  0.5233070000000  0.4719610000000  0.6096630000000 1.0
C      1  0.3940550000000  0.4719650000000  0.4649350000000 1.0
C      1  0.5446790000000  0.4160950000000  0.5222510000000 1.0
C      1  0.4590690000000  0.4160960000000  0.5271490000000 1.0
C      1  0.4976320000000  0.4160970000000  0.4505590000000 1.0
C      1  0.5446810000000  0.5822460000000  0.5222530000000 1.0
C      1  0.4590710000000  0.5822470000000  0.5271510000000 1.0
C      1  0.4976340000000  0.5822480000000  0.4505610000000 1.0
C      1  0.5110940000000  0.4604750000000  0.5288820000000 1.0
C      1  0.4701200000000  0.4604760000000  0.4947480000000 1.0
C      1  0.5201680000000  0.4604750000000  0.4763310000000 1.0
C      1  0.5110940000000  0.5378670000000  0.5288830000000 1.0
C      1  0.4701210000000  0.5378680000000  0.4947490000000 1.0
C      1  0.5201690000000  0.5378680000000  0.4763320000000 1.0
C      1  0.5004600000000  0.4440020000000  0.4999870000000 1.0
C      1  0.5004620000000  0.5543410000000  0.4999880000000 1.0
END
