TITL C-3201372-1405-1211 2364.20353151795 125000 -444.76155404896 0 0 75 (C1) n - 1
REM
REM in /home/nfs/bkarasulu/CARBON/AIRSS/Generating-Clusters/LCBOP/Higher-Symm/SD-CG/FIRE-CG
REM
REM
REM
REM
REM
REM ./C.cell (b20cbc046b6831c77cfcea5457e17084)
REM AIRSS Version 0.9.1 bugfix July 2018 build 013d7b7c2542+ Fri, 06 Jul 2018 19:26:36 +0100
REM compiler GCC version 9.2.1 20190827 (Red Hat 9.2.1-1)
REM options -cpp -mtune=generic -march=x86-64 -g -O0 -fpre-include=/usr/include/finclude/math-vector-fortran.h
REM seed 1607797019 -1819058582 -452024719 1205143979 1342992915 -1115165443 -625555100 -1079880568 -778129712 -1408232746 -1477002105 -2083535403 473557770 1549978433 -1752242014 487615450 1189665814 -1927869999 -911778350 2065602368 822257933 -392226201 -345027747 595708407 -768703273 1292546270 -2012502563 -1568789434 -60711970 176511599 -1017351208 1049951743 -1417515651
REM
CELL 1.54180   50.00000   50.00000   50.00000   90.00000   90.00000   90.00000
LATT -1
SFAC C  
C      1  0.4277280000000  0.4836530000000  0.5355750000000 1.0
C      1  0.5215850000000  0.5687310000000  0.5406690000000 1.0
C      1  0.5529930000000  0.4444620000000  0.5411450000000 1.0
C      1  0.4261770000000  0.5163930000000  0.4594820000000 1.0
C      1  0.5223150000000  0.4269640000000  0.4632210000000 1.0
C      1  0.5485370000000  0.5514290000000  0.4628310000000 1.0
C      1  0.4763090000000  0.5680370000000  0.4394460000000 1.0
C      1  0.5744090000000  0.4854190000000  0.4425590000000 1.0
C      1  0.4520560000000  0.4448670000000  0.4540710000000 1.0
C      1  0.4744740000000  0.4303900000000  0.5458900000000 1.0
C      1  0.5699280000000  0.5151790000000  0.5550940000000 1.0
C      1  0.4518000000000  0.5569930000000  0.5627680000000 1.0
C      1  0.4753270000000  0.4710250000000  0.5206790000000 1.0
C      1  0.4786190000000  0.5539890000000  0.5259790000000 1.0
C      1  0.5543870000000  0.4894390000000  0.5217180000000 1.0
C      1  0.4593310000000  0.5483370000000  0.4765670000000 1.0
C      1  0.4889530000000  0.4597020000000  0.4781370000000 1.0
C      1  0.5531960000000  0.5059430000000  0.4773690000000 1.0
C      1  0.4812950000000  0.5652900000000  0.4683660000000 1.0
C      1  0.5670100000000  0.4806250000000  0.4706160000000 1.0
C      1  0.4594090000000  0.4597380000000  0.4788090000000 1.0
C      1  0.4862140000000  0.4431760000000  0.5221550000000 1.0
C      1  0.5611170000000  0.5168500000000  0.5267710000000 1.0
C      1  0.4507790000000  0.5498330000000  0.5342400000000 1.0
C      1  0.4880980000000  0.4693520000000  0.4303060000000 1.0
C      1  0.4817830000000  0.5201800000000  0.4299290000000 1.0
C      1  0.5294960000000  0.5014170000000  0.4289450000000 1.0
C      1  0.4880970000000  0.5252380000000  0.5717910000000 1.0
C      1  0.4805550000000  0.4741540000000  0.5689970000000 1.0
C      1  0.5281040000000  0.4939050000000  0.5702230000000 1.0
C      1  0.4629850000000  0.5427550000000  0.4316670000000 1.0
C      1  0.5580650000000  0.5082640000000  0.4333900000000 1.0
C      1  0.4773600000000  0.4422360000000  0.4390400000000 1.0
C      1  0.4616120000000  0.4528190000000  0.5593640000000 1.0
C      1  0.5570960000000  0.4905540000000  0.5661490000000 1.0
C      1  0.4801520000000  0.5536730000000  0.5704290000000 1.0
C      1  0.5523490000000  0.4232960000000  0.5129060000000 1.0
C      1  0.4104820000000  0.4923770000000  0.5104070000000 1.0
C      1  0.5363080000000  0.5770700000000  0.5142860000000 1.0
C      1  0.5479950000000  0.5691090000000  0.4887010000000 1.0
C      1  0.4095770000000  0.5069110000000  0.4847370000000 1.0
C      1  0.5383970000000  0.4168060000000  0.4880810000000 1.0
C      1  0.4422350000000  0.5238680000000  0.5272520000000 1.0
C      1  0.5380780000000  0.5326600000000  0.5207810000000 1.0
C      1  0.5136680000000  0.4435050000000  0.5211670000000 1.0
C      1  0.4493280000000  0.4857020000000  0.4824950000000 1.0
C      1  0.5479410000000  0.4604560000000  0.4762100000000 1.0
C      1  0.5062160000000  0.5531420000000  0.4756100000000 1.0
C      1  0.4953760000000  0.4936670000000  0.5198370000000 1.0
C      1  0.4899090000000  0.5290620000000  0.5117340000000 1.0
C      1  0.5263140000000  0.4867650000000  0.5110350000000 1.0
C      1  0.4688590000000  0.5266670000000  0.4916270000000 1.0
C      1  0.5026810000000  0.4853880000000  0.4732530000000 1.0
C      1  0.5254540000000  0.5001740000000  0.4839250000000 1.0
C      1  0.4936580000000  0.5672950000000  0.5468250000000 1.0
C      1  0.5623140000000  0.4714850000000  0.5433630000000 1.0
C      1  0.4495680000000  0.4659220000000  0.5352440000000 1.0
C      1  0.4951870000000  0.4353240000000  0.4619330000000 1.0
C      1  0.5603220000000  0.5260070000000  0.4578520000000 1.0
C      1  0.4422560000000  0.5401440000000  0.4540390000000 1.0
C      1  0.5109600000000  0.5242490000000  0.4345050000000 1.0
C      1  0.5191320000000  0.4727300000000  0.4332810000000 1.0
C      1  0.4702360000000  0.4937640000000  0.4358320000000 1.0
C      1  0.5110200000000  0.4698530000000  0.5651650000000 1.0
C      1  0.5165190000000  0.5207690000000  0.5654390000000 1.0
C      1  0.4685000000000  0.5025630000000  0.5665800000000 1.0
C      1  0.5347660000000  0.4513360000000  0.4518780000000 1.0
C      1  0.4464200000000  0.4951600000000  0.4546020000000 1.0
C      1  0.5213850000000  0.5462880000000  0.4523370000000 1.0
C      1  0.5291800000000  0.5410720000000  0.5473770000000 1.0
C      1  0.4410470000000  0.5061030000000  0.5495340000000 1.0
C      1  0.5244670000000  0.4478000000000  0.5478460000000 1.0
C      1  0.5290710000000  0.4580060000000  0.5009480000000 1.0
C      1  0.5157440000000  0.5377220000000  0.5004460000000 1.0
C      1  0.4497270000000  0.5087750000000  0.5017880000000 1.0
END
