TITL C-3201379-3821-864 -1.17031042478419e-07 125000 -162.092249725305 0 0 27 (C1) n - 1
REM
REM in /home/nfs/bkarasulu/CARBON/AIRSS/Generating-Clusters/LCBOP/Higher-Symm/SD-CG/FIRE-CG
REM
REM
REM
REM
REM
REM ./C.cell (b20cbc046b6831c77cfcea5457e17084)
REM AIRSS Version 0.9.1 bugfix July 2018 build 013d7b7c2542+ Fri, 06 Jul 2018 19:26:36 +0100
REM compiler GCC version 9.2.1 20190827 (Red Hat 9.2.1-1)
REM options -cpp -mtune=generic -march=x86-64 -g -O0 -fpre-include=/usr/include/finclude/math-vector-fortran.h
REM seed 1327973239 1104448898 988474001 563321570 -1941697225 -1014821988 -2039648466 -963708698 -1198119678 1345293335 -294765589 600022465 877114970 1888986417 -1094980038 1812338566 1207895365 -1760778896 1172705640 1570993856 -443148966 2147265279 1121897599 738267648 505577785 -945268926 1989418134 -833683311 706802186 649180088 1307896277 682212234 -1337896839
REM
CELL 1.54180   50.00000   50.00000   50.00000   90.00000   90.00000   90.00000
LATT -1
SFAC C  
C      1  0.4767450000000  0.5454530000000  0.4857500000000 1.0
C      1  0.4995130000000  0.5457850000000  0.5274140000000 1.0
C      1  0.5240650000000  0.5457560000000  0.4868500000000 1.0
C      1  0.5008470000000  0.5394690000000  0.4714620000000 1.0
C      1  0.4747980000000  0.5405390000000  0.5138530000000 1.0
C      1  0.5246370000000  0.5402780000000  0.5149900000000 1.0
C      1  0.5248710000000  0.5022670000000  0.4508920000000 1.0
C      1  0.4427300000000  0.5048900000000  0.5050320000000 1.0
C      1  0.5310720000000  0.5010680000000  0.5432730000000 1.0
C      1  0.5350930000000  0.4595080000000  0.4714210000000 1.0
C      1  0.4541480000000  0.4594380000000  0.4934060000000 1.0
C      1  0.5090970000000  0.4587510000000  0.5338840000000 1.0
C      1  0.5426000000000  0.4859170000000  0.4654470000000 1.0
C      1  0.4474490000000  0.4854500000000  0.4851630000000 1.0
C      1  0.5097010000000  0.4832570000000  0.5476710000000 1.0
C      1  0.5011880000000  0.5172960000000  0.4534770000000 1.0
C      1  0.4576790000000  0.5199240000000  0.5235920000000 1.0
C      1  0.5412980000000  0.5189740000000  0.5240950000000 1.0
C      1  0.5018890000000  0.4468050000000  0.5094570000000 1.0
C      1  0.5209280000000  0.4451390000000  0.4889020000000 1.0
C      1  0.4746600000000  0.4451200000000  0.5027660000000 1.0
C      1  0.4556010000000  0.4939530000000  0.4596150000000 1.0
C      1  0.4853890000000  0.4936160000000  0.5573950000000 1.0
C      1  0.5615650000000  0.4980330000000  0.4824070000000 1.0
C      1  0.4646750000000  0.5078600000000  0.5480850000000 1.0
C      1  0.5613410000000  0.5100340000000  0.5064050000000 1.0
C      1  0.4764210000000  0.5054200000000  0.4472970000000 1.0
END
