TITL C-3201378-2706-1757 -2.58299039735618e-07 125000 -119.167939365854 0 0 21 (Cs) n - 1
REM
REM in /home/nfs/bkarasulu/CARBON/AIRSS/Generating-Clusters/LCBOP/Higher-Symm/SD-CG/FIRE-CG
REM
REM
REM
REM
REM
REM ./C.cell (b20cbc046b6831c77cfcea5457e17084)
REM AIRSS Version 0.9.1 bugfix July 2018 build 013d7b7c2542+ Fri, 06 Jul 2018 19:26:36 +0100
REM compiler GCC version 9.2.1 20190827 (Red Hat 9.2.1-1)
REM options -cpp -mtune=generic -march=x86-64 -g -O0 -fpre-include=/usr/include/finclude/math-vector-fortran.h
REM seed 217461503 1796382157 -716365902 934340498 -1884270414 -1526964442 935363446 164657591 82215651 1299250039 887318244 1112132244 -1352531496 1016126730 -1514079002 29418179 927749173 1216420593 -1849305746 -662805154 -918720893 128793950 684057273 -1855349444 -2118964743 962113916 -826093671 -425547628 -1718534201 -1180415516 -307402617 343893266 -1919572871
REM
CELL 1.54180   50.00000   50.00000   50.00000   90.00000   90.00000   90.00000
LATT -1
SFAC C  
C      1  0.5700870000000  0.4336290000000  0.5301720000000 1.0
C      1  0.5189330000000  0.5288350000000  0.4494290000000 1.0
C      1  0.4848550000000  0.5842800000000  0.5610220000000 1.0
C      1  0.4693540000000  0.5210960000000  0.4494160000000 1.0
C      1  0.4496090000000  0.4148220000000  0.5301400000000 1.0
C      1  0.4622620000000  0.4825210000000  0.5081360000000 1.0
C      1  0.5041790000000  0.4605630000000  0.5177010000000 1.0
C      1  0.5374140000000  0.4942530000000  0.5081550000000 1.0
C      1  0.5164400000000  0.5369760000000  0.5158340000000 1.0
C      1  0.4692130000000  0.5296040000000  0.5158210000000 1.0
C      1  0.4624490000000  0.4365250000000  0.5235550000000 1.0
C      1  0.5512480000000  0.4503860000000  0.5235780000000 1.0
C      1  0.5332350000000  0.5262600000000  0.4718360000000 1.0
C      1  0.4878840000000  0.5649080000000  0.5438530000000 1.0
C      1  0.4565060000000  0.5142820000000  0.4718160000000 1.0
C      1  0.5312220000000  0.5199720000000  0.4991060000000 1.0
C      1  0.4911180000000  0.5442170000000  0.5255140000000 1.0
C      1  0.4603260000000  0.5089050000000  0.4990880000000 1.0
C      1  0.4762180000000  0.4597460000000  0.5165020000000 1.0
C      1  0.5310590000000  0.4683070000000  0.5165160000000 1.0
C      1  0.4938500000000  0.5268590000000  0.4404050000000 1.0
END
