TITL C-3201372-1405-1935 -4.61351152768584e-08 125000 -51.3467118534341 0 0 10 (Td) n - 1
REM
REM in /home/nfs/bkarasulu/CARBON/AIRSS/Generating-Clusters/LCBOP/Higher-Symm/SD-CG/FIRE-CG
REM
REM
REM
REM
REM
REM ./C.cell (b20cbc046b6831c77cfcea5457e17084)
REM AIRSS Version 0.9.1 bugfix July 2018 build 013d7b7c2542+ Fri, 06 Jul 2018 19:26:36 +0100
REM compiler GCC version 9.2.1 20190827 (Red Hat 9.2.1-1)
REM options -cpp -mtune=generic -march=x86-64 -g -O0 -fpre-include=/usr/include/finclude/math-vector-fortran.h
REM seed -964483195 -1710409916 1353156008 11338818 -371199970 517631849 194437172 1048370952 -436914743 -976294108 835391777 -490779910 1063237991 1221016 -1216790292 864690650 -1178677118 -142551100 2014047491 2067834370 -870180941 -2131665934 -1081352034 432140657 981557261 2110040307 377208935 1746186180 -1545182990 -1544020116 361632457 1608688839 -1517311407
REM
CELL 1.54180   50.00000   50.00000   50.00000   90.00000   90.00000   90.00000
LATT -1
SFAC C  
C      1  0.4635330000000  0.4965980000000  0.4988890000000 1.0
C      1  0.4972970000000  0.4628340000000  0.4988890000000 1.0
C      1  0.5310610000000  0.4965980000000  0.4988890000000 1.0
C      1  0.4972970000000  0.5303630000000  0.4988890000000 1.0
C      1  0.4972970000000  0.4965980000000  0.4651240000000 1.0
C      1  0.4972970000000  0.4965980000000  0.5326530000000 1.0
C      1  0.4801900000000  0.4794910000000  0.5159960000000 1.0
C      1  0.5144040000000  0.4794910000000  0.4817820000000 1.0
C      1  0.4801900000000  0.5137060000000  0.4817820000000 1.0
C      1  0.5144040000000  0.5137060000000  0.5159960000000 1.0
END
