TITL C-3201376-6384-768 1.26864096752033e-07 125000 -1162.36135738766 0 0 188 (C1) n - 1
REM
REM in /home/nfs/bkarasulu/CARBON/AIRSS/Generating-Clusters/LCBOP/Higher-Symm/SD-CG/FIRE-CG
REM
REM
REM
REM
REM
REM ./C.cell (b20cbc046b6831c77cfcea5457e17084)
REM AIRSS Version 0.9.1 bugfix July 2018 build 013d7b7c2542+ Fri, 06 Jul 2018 19:26:36 +0100
REM compiler GCC version 9.2.1 20190827 (Red Hat 9.2.1-1)
REM options -cpp -mtune=generic -march=x86-64 -g -O0 -fpre-include=/usr/include/finclude/math-vector-fortran.h
REM seed 120566229 1431486516 -1254035189 -741211383 -148843696 424897115 -41157810 987071087 911230991 1207917342 -1873317830 -1110220318 702729174 -2058805701 -67787743 1432430225 -543119074 -124096897 -192875335 906805463 427021316 764476877 448184201 -835710871 -1842814293 1722133197 1930174244 -1894715072 -181987096 1156708677 -499699092 -217676899 -1760161628
REM
CELL 1.54180   50.00000   50.00000   50.00000   90.00000   90.00000   90.00000
LATT -1
SFAC C  
C      1  0.6428510000000  0.4702630000000  0.5372960000000 1.0
C      1  0.3467990000000  0.4734040000000  0.4730270000000 1.0
C      1  0.6388760000000  0.5276330000000  0.5442740000000 1.0
C      1  0.3530610000000  0.5303400000000  0.4678100000000 1.0
C      1  0.6462170000000  0.4730370000000  0.4591280000000 1.0
C      1  0.3705580000000  0.4738440000000  0.5469700000000 1.0
C      1  0.6474300000000  0.5314760000000  0.4665070000000 1.0
C      1  0.3722400000000  0.5316810000000  0.5439400000000 1.0
C      1  0.6804650000000  0.4475430000000  0.5120420000000 1.0
C      1  0.3178660000000  0.4529630000000  0.5091250000000 1.0
C      1  0.6771910000000  0.5536600000000  0.5241930000000 1.0
C      1  0.3259090000000  0.5574540000000  0.5007320000000 1.0
C      1  0.6815900000000  0.4482360000000  0.4853330000000 1.0
C      1  0.3261860000000  0.4529060000000  0.5345440000000 1.0
C      1  0.6799740000000  0.5548410000000  0.4976230000000 1.0
C      1  0.3323790000000  0.5577160000000  0.5266770000000 1.0
C      1  0.4894550000000  0.3576910000000  0.5282360000000 1.0
C      1  0.5173160000000  0.3648970000000  0.4911970000000 1.0
C      1  0.4910290000000  0.6366540000000  0.5260710000000 1.0
C      1  0.5187200000000  0.6301450000000  0.4894720000000 1.0
C      1  0.4914700000000  0.3643980000000  0.4800220000000 1.0
C      1  0.5160760000000  0.3618480000000  0.5201430000000 1.0
C      1  0.4918510000000  0.6326790000000  0.4796530000000 1.0
C      1  0.5181870000000  0.6313590000000  0.5180960000000 1.0
C      1  0.4874560000000  0.4383920000000  0.4857490000000 1.0
C      1  0.5311380000000  0.4397880000000  0.5134190000000 1.0
C      1  0.4914750000000  0.5637070000000  0.4829210000000 1.0
C      1  0.5317330000000  0.5633340000000  0.5147080000000 1.0
C      1  0.4694690000000  0.4367980000000  0.5066820000000 1.0
C      1  0.5145320000000  0.4382280000000  0.4903960000000 1.0
C      1  0.4729870000000  0.5635630000000  0.5043760000000 1.0
C      1  0.5189550000000  0.5669600000000  0.4886680000000 1.0
C      1  0.4698770000000  0.6180130000000  0.5224810000000 1.0
C      1  0.5362570000000  0.6191980000000  0.4704060000000 1.0
C      1  0.4698430000000  0.3782280000000  0.5234580000000 1.0
C      1  0.5354920000000  0.3859150000000  0.4882590000000 1.0
C      1  0.4698740000000  0.6154360000000  0.4847330000000 1.0
C      1  0.5334590000000  0.6189050000000  0.5382980000000 1.0
C      1  0.4700070000000  0.3826610000000  0.4872620000000 1.0
C      1  0.5322520000000  0.3830570000000  0.5287080000000 1.0
C      1  0.5699520000000  0.4405060000000  0.4782530000000 1.0
C      1  0.4422470000000  0.4436510000000  0.5004170000000 1.0
C      1  0.5648320000000  0.5555670000000  0.4821370000000 1.0
C      1  0.4450370000000  0.5570290000000  0.4990530000000 1.0
C      1  0.5601800000000  0.4441960000000  0.5071950000000 1.0
C      1  0.4324640000000  0.4406760000000  0.4729740000000 1.0
C      1  0.5597350000000  0.5557490000000  0.5107640000000 1.0
C      1  0.4349620000000  0.5576970000000  0.4720900000000 1.0
C      1  0.5192530000000  0.4193470000000  0.4219440000000 1.0
C      1  0.4799930000000  0.4216410000000  0.5912240000000 1.0
C      1  0.5101310000000  0.5776010000000  0.4086760000000 1.0
C      1  0.4767130000000  0.5739200000000  0.5909790000000 1.0
C      1  0.5076870000000  0.4226120000000  0.5946150000000 1.0
C      1  0.4820220000000  0.4201380000000  0.4163260000000 1.0
C      1  0.5039490000000  0.5733720000000  0.5963560000000 1.0
C      1  0.4748010000000  0.5835450000000  0.4140280000000 1.0
C      1  0.4794380000000  0.5118800000000  0.6019930000000 1.0
C      1  0.5098240000000  0.5199320000000  0.3876110000000 1.0
C      1  0.4795430000000  0.4836340000000  0.6014180000000 1.0
C      1  0.5116540000000  0.4700670000000  0.3868190000000 1.0
C      1  0.4834910000000  0.5243890000000  0.3879940000000 1.0
C      1  0.5055800000000  0.5210420000000  0.6059290000000 1.0
C      1  0.4850650000000  0.4723570000000  0.3896500000000 1.0
C      1  0.5056600000000  0.4740610000000  0.6043710000000 1.0
C      1  0.3993780000000  0.5261450000000  0.4819390000000 1.0
C      1  0.6002050000000  0.5272620000000  0.5145060000000 1.0
C      1  0.3941080000000  0.4699570000000  0.4843360000000 1.0
C      1  0.6018980000000  0.4717310000000  0.5107940000000 1.0
C      1  0.4067200000000  0.5274590000000  0.5098040000000 1.0
C      1  0.6026110000000  0.5266140000000  0.4857190000000 1.0
C      1  0.4038700000000  0.4726430000000  0.5112580000000 1.0
C      1  0.6029970000000  0.4746210000000  0.4821430000000 1.0
C      1  0.5785270000000  0.5322830000000  0.4723670000000 1.0
C      1  0.4340780000000  0.5348160000000  0.5135840000000 1.0
C      1  0.5785460000000  0.4673580000000  0.4697320000000 1.0
C      1  0.4316520000000  0.4670720000000  0.5135220000000 1.0
C      1  0.5739250000000  0.5346610000000  0.5241210000000 1.0
C      1  0.4216350000000  0.5330520000000  0.4651200000000 1.0
C      1  0.5757170000000  0.4648860000000  0.5208560000000 1.0
C      1  0.4149480000000  0.4626620000000  0.4658770000000 1.0
C      1  0.5307750000000  0.5616340000000  0.5873260000000 1.0
C      1  0.4499820000000  0.5680350000000  0.4221110000000 1.0
C      1  0.5333140000000  0.4353910000000  0.5849370000000 1.0
C      1  0.4522380000000  0.4318410000000  0.4228720000000 1.0
C      1  0.5374500000000  0.5659310000000  0.4166130000000 1.0
C      1  0.4556470000000  0.5629390000000  0.5736880000000 1.0
C      1  0.5472470000000  0.4340260000000  0.4270360000000 1.0
C      1  0.4573250000000  0.4326750000000  0.5755370000000 1.0
C      1  0.4662840000000  0.3928380000000  0.5485130000000 1.0
C      1  0.5372790000000  0.4010460000000  0.4641120000000 1.0
C      1  0.4649390000000  0.6039590000000  0.5480520000000 1.0
C      1  0.5309990000000  0.6034450000000  0.4474830000000 1.0
C      1  0.4649420000000  0.3994060000000  0.4630230000000 1.0
C      1  0.5289980000000  0.3968250000000  0.5537070000000 1.0
C      1  0.4627060000000  0.6010750000000  0.4596190000000 1.0
C      1  0.5275650000000  0.6026210000000  0.5607390000000 1.0
C      1  0.3902330000000  0.5156950000000  0.5296600000000 1.0
C      1  0.6250430000000  0.5158240000000  0.4722020000000 1.0
C      1  0.3890730000000  0.4871090000000  0.5307200000000 1.0
C      1  0.6245970000000  0.4875360000000  0.4692140000000 1.0
C      1  0.3751440000000  0.5139720000000  0.4733550000000 1.0
C      1  0.6192710000000  0.5132380000000  0.5304110000000 1.0
C      1  0.3719290000000  0.4854930000000  0.4754610000000 1.0
C      1  0.6209540000000  0.4847200000000  0.5275740000000 1.0
C      1  0.5536820000000  0.4611000000000  0.4139080000000 1.0
C      1  0.4458880000000  0.4601970000000  0.5762420000000 1.0
C      1  0.5484970000000  0.5380620000000  0.4099270000000 1.0
C      1  0.4455120000000  0.5350840000000  0.5754330000000 1.0
C      1  0.5476490000000  0.4636850000000  0.5878840000000 1.0
C      1  0.4452140000000  0.4603830000000  0.4135560000000 1.0
C      1  0.5468860000000  0.5335330000000  0.5898170000000 1.0
C      1  0.4441620000000  0.5401330000000  0.4121020000000 1.0
C      1  0.6679390000000  0.5459120000000  0.4755140000000 1.0
C      1  0.3506920000000  0.5473610000000  0.5431410000000 1.0
C      1  0.6677590000000  0.4583940000000  0.4648500000000 1.0
C      1  0.3471470000000  0.4612380000000  0.5488630000000 1.0
C      1  0.6607380000000  0.5427810000000  0.5422250000000 1.0
C      1  0.3344200000000  0.5465470000000  0.4778710000000 1.0
C      1  0.6649980000000  0.4564410000000  0.5319190000000 1.0
C      1  0.3264300000000  0.4612630000000  0.4852150000000 1.0
C      1  0.5282640000000  0.4750290000000  0.4616270000000 1.0
C      1  0.4774570000000  0.4780990000000  0.5233240000000 1.0
C      1  0.5307350000000  0.5291540000000  0.4612960000000 1.0
C      1  0.4803180000000  0.5226040000000  0.5240250000000 1.0
C      1  0.5234420000000  0.4851430000000  0.5277050000000 1.0
C      1  0.4816260000000  0.4898000000000  0.4624000000000 1.0
C      1  0.5277930000000  0.5139740000000  0.5309870000000 1.0
C      1  0.4665140000000  0.5120180000000  0.4554460000000 1.0
C      1  0.5278840000000  0.4464680000000  0.4678610000000 1.0
C      1  0.4807890000000  0.4337700000000  0.5322250000000 1.0
C      1  0.5388360000000  0.5591010000000  0.4668240000000 1.0
C      1  0.4823260000000  0.5645080000000  0.5311950000000 1.0
C      1  0.5151780000000  0.4418640000000  0.5401460000000 1.0
C      1  0.4775600000000  0.4447000000000  0.4596610000000 1.0
C      1  0.5150210000000  0.5594170000000  0.5407740000000 1.0
C      1  0.4797590000000  0.5568440000000  0.4576710000000 1.0
C      1  0.4831030000000  0.3879380000000  0.5715360000000 1.0
C      1  0.5162140000000  0.3989330000000  0.4437850000000 1.0
C      1  0.4798240000000  0.6085820000000  0.5727060000000 1.0
C      1  0.5078370000000  0.6071060000000  0.4324930000000 1.0
C      1  0.4869420000000  0.3970210000000  0.4430940000000 1.0
C      1  0.5100010000000  0.3892140000000  0.5735120000000 1.0
C      1  0.4793480000000  0.6056230000000  0.4348000000000 1.0
C      1  0.5062840000000  0.6083350000000  0.5780850000000 1.0
C      1  0.5139530000000  0.4738160000000  0.4349020000000 1.0
C      1  0.4851150000000  0.4830610000000  0.5524130000000 1.0
C      1  0.5125160000000  0.5257790000000  0.4373930000000 1.0
C      1  0.4864970000000  0.5149610000000  0.5529890000000 1.0
C      1  0.5137130000000  0.4711570000000  0.5521090000000 1.0
C      1  0.4847090000000  0.4686520000000  0.4416570000000 1.0
C      1  0.5150360000000  0.5262080000000  0.5547740000000 1.0
C      1  0.4833600000000  0.5320870000000  0.4403400000000 1.0
C      1  0.5267490000000  0.4706700000000  0.4101540000000 1.0
C      1  0.4700910000000  0.4748090000000  0.5763350000000 1.0
C      1  0.5237540000000  0.5233720000000  0.4115050000000 1.0
C      1  0.4703910000000  0.5216440000000  0.5770490000000 1.0
C      1  0.5239820000000  0.4816120000000  0.5803800000000 1.0
C      1  0.4719100000000  0.4713500000000  0.4145290000000 1.0
C      1  0.5239480000000  0.5146370000000  0.5820440000000 1.0
C      1  0.4712300000000  0.5303700000000  0.4122940000000 1.0
C      1  0.4628800000000  0.4211420000000  0.5494790000000 1.0
C      1  0.5502660000000  0.4289090000000  0.4590960000000 1.0
C      1  0.4624180000000  0.5752780000000  0.5481850000000 1.0
C      1  0.5415910000000  0.5770500000000  0.4435550000000 1.0
C      1  0.4523750000000  0.4275680000000  0.4541770000000 1.0
C      1  0.5329690000000  0.4249930000000  0.5575220000000 1.0
C      1  0.4525910000000  0.5719380000000  0.4532240000000 1.0
C      1  0.5319500000000  0.5742910000000  0.5608580000000 1.0
C      1  0.4290320000000  0.4856350000000  0.4075550000000 1.0
C      1  0.5674200000000  0.4846820000000  0.5951310000000 1.0
C      1  0.4285920000000  0.5143040000000  0.4075340000000 1.0
C      1  0.5674960000000  0.5130330000000  0.5959260000000 1.0
C      1  0.4263360000000  0.4830350000000  0.5764450000000 1.0
C      1  0.5695670000000  0.4867090000000  0.4109010000000 1.0
C      1  0.4266110000000  0.5116420000000  0.5759540000000 1.0
C      1  0.5681150000000  0.5150930000000  0.4089940000000 1.0
C      1  0.4509900000000  0.4869510000000  0.5173690000000 1.0
C      1  0.5567180000000  0.4859290000000  0.4632680000000 1.0
C      1  0.4533200000000  0.5150220000000  0.5176440000000 1.0
C      1  0.5581900000000  0.5144160000000  0.4621900000000 1.0
C      1  0.4264090000000  0.4855140000000  0.4541490000000 1.0
C      1  0.5631420000000  0.4861280000000  0.5331330000000 1.0
C      1  0.4381380000000  0.5109910000000  0.4569210000000 1.0
C      1  0.5579210000000  0.5133330000000  0.5328160000000 1.0
C      1  0.5144570000000  0.5176510000000  0.4839430000000 1.0
C      1  0.5018270000000  0.4796990000000  0.5071900000000 1.0
C      1  0.5069520000000  0.5239910000000  0.5101790000000 1.0
C      1  0.5066400000000  0.4895710000000  0.4790590000000 1.0
END
