TITL C-3201375-1262-622 0.110475217164794 125000 -816.489132379545 0 0 139 (C1) n - 1
REM
REM in /home/nfs/bkarasulu/CARBON/AIRSS/Generating-Clusters/LCBOP/Higher-Symm/SD-CG/FIRE-CG
REM
REM
REM
REM
REM
REM ./C.cell (b20cbc046b6831c77cfcea5457e17084)
REM AIRSS Version 0.9.1 bugfix July 2018 build 013d7b7c2542+ Fri, 06 Jul 2018 19:26:36 +0100
REM compiler GCC version 9.2.1 20190827 (Red Hat 9.2.1-1)
REM options -cpp -mtune=generic -march=x86-64 -g -O0 -fpre-include=/usr/include/finclude/math-vector-fortran.h
REM seed -566625741 -1669135242 -1746622972 1953957433 -1161001336 -752881392 -784354570 1086671691 -117164844 615538341 545955134 -1631423562 -343357999 -2138898121 -1676662539 -1215391215 516180949 16330401 995416348 1932592645 1862558388 1992468901 1603967656 -508909302 -764576628 1109583237 394751362 -1803101120 -1341161268 89914995 2055378494 -369477745 -1361095850
REM
CELL 1.54180   50.00000   50.00000   50.00000   90.00000   90.00000   90.00000
LATT -1
SFAC C  
C      1  0.5228240000000  0.5494490000000  0.5567520000000 1.0
C      1  0.4726930000000  0.5540330000000  0.5652540000000 1.0
C      1  0.4457610000000  0.5122990000000  0.5580850000000 1.0
C      1  0.4543490000000  0.4630330000000  0.5649390000000 1.0
C      1  0.4998560000000  0.4440430000000  0.5598030000000 1.0
C      1  0.5466480000000  0.4651000000000  0.5623260000000 1.0
C      1  0.5571380000000  0.5141070000000  0.5643780000000 1.0
C      1  0.4027320000000  0.4876560000000  0.5484280000000 1.0
C      1  0.4477890000000  0.4140300000000  0.5486190000000 1.0
C      1  0.5352670000000  0.4081990000000  0.5479690000000 1.0
C      1  0.5948280000000  0.4685940000000  0.5490720000000 1.0
C      1  0.5831080000000  0.5550470000000  0.5480610000000 1.0
C      1  0.5088470000000  0.5974140000000  0.5484180000000 1.0
C      1  0.4274320000000  0.5705990000000  0.5483180000000 1.0
C      1  0.4794380000000  0.4647100000000  0.4588830000000 1.0
C      1  0.5179700000000  0.4637190000000  0.4605610000000 1.0
C      1  0.5375760000000  0.4855700000000  0.4603860000000 1.0
C      1  0.5317540000000  0.5248400000000  0.4587350000000 1.0
C      1  0.5060620000000  0.5401250000000  0.4579070000000 1.0
C      1  0.4687230000000  0.5262810000000  0.4568710000000 1.0
C      1  0.4590340000000  0.4973320000000  0.4579750000000 1.0
C      1  0.4696240000000  0.5174840000000  0.4091690000000 1.0
C      1  0.4679380000000  0.4873420000000  0.4096940000000 1.0
C      1  0.4903520000000  0.4672080000000  0.4099020000000 1.0
C      1  0.5200060000000  0.4721670000000  0.4100700000000 1.0
C      1  0.5345830000000  0.4984400000000  0.4102900000000 1.0
C      1  0.5233090000000  0.5262560000000  0.4096870000000 1.0
C      1  0.4943540000000  0.5347160000000  0.4096280000000 1.0
C      1  0.4450590000000  0.4061430000000  0.5181550000000 1.0
C      1  0.5400950000000  0.4008210000000  0.5183240000000 1.0
C      1  0.6030610000000  0.4688930000000  0.5194710000000 1.0
C      1  0.5885930000000  0.5608700000000  0.5179980000000 1.0
C      1  0.5069280000000  0.6054620000000  0.5192910000000 1.0
C      1  0.4205390000000  0.5745170000000  0.5176410000000 1.0
C      1  0.3955440000000  0.4841510000000  0.5191700000000 1.0
C      1  0.4331950000000  0.4429400000000  0.5640560000000 1.0
C      1  0.5060060000000  0.4149460000000  0.5594220000000 1.0
C      1  0.5721550000000  0.4504250000000  0.5612320000000 1.0
C      1  0.5849630000000  0.5226460000000  0.5636290000000 1.0
C      1  0.5307230000000  0.5778000000000  0.5583390000000 1.0
C      1  0.4585410000000  0.5794440000000  0.5649590000000 1.0
C      1  0.4162090000000  0.5136240000000  0.5589240000000 1.0
C      1  0.4701170000000  0.4487960000000  0.4773490000000 1.0
C      1  0.5203140000000  0.4458570000000  0.4805600000000 1.0
C      1  0.5561830000000  0.4840060000000  0.4798010000000 1.0
C      1  0.5505310000000  0.5319080000000  0.4758840000000 1.0
C      1  0.5033580000000  0.5583270000000  0.4776650000000 1.0
C      1  0.4577580000000  0.5433650000000  0.4740660000000 1.0
C      1  0.4427850000000  0.4923020000000  0.4789640000000 1.0
C      1  0.4212080000000  0.4471810000000  0.4559010000000 1.0
C      1  0.4931430000000  0.4058310000000  0.4558590000000 1.0
C      1  0.5699950000000  0.4361390000000  0.4558380000000 1.0
C      1  0.5948000000000  0.5143020000000  0.4559580000000 1.0
C      1  0.5470880000000  0.5825530000000  0.4556990000000 1.0
C      1  0.4653070000000  0.5899140000000  0.4551700000000 1.0
C      1  0.4091670000000  0.5284130000000  0.4554020000000 1.0
C      1  0.5702310000000  0.5084820000000  0.5164020000000 1.0
C      1  0.5396310000000  0.5571730000000  0.5128150000000 1.0
C      1  0.4746550000000  0.5668400000000  0.5160610000000 1.0
C      1  0.4340150000000  0.5276500000000  0.5138630000000 1.0
C      1  0.4411100000000  0.4622320000000  0.5162320000000 1.0
C      1  0.4879360000000  0.4286100000000  0.5153190000000 1.0
C      1  0.5506020000000  0.4482370000000  0.5153630000000 1.0
C      1  0.5643660000000  0.5734650000000  0.5058790000000 1.0
C      1  0.4811730000000  0.5965190000000  0.5081000000000 1.0
C      1  0.4129620000000  0.5479070000000  0.5061000000000 1.0
C      1  0.4108260000000  0.4615620000000  0.5079930000000 1.0
C      1  0.4726820000000  0.4038880000000  0.5065710000000 1.0
C      1  0.5588460000000  0.4204340000000  0.5064760000000 1.0
C      1  0.5989240000000  0.4963760000000  0.5085840000000 1.0
C      1  0.5836370000000  0.4615790000000  0.4464930000000 1.0
C      1  0.5833100000000  0.5415620000000  0.4462100000000 1.0
C      1  0.5194430000000  0.5905010000000  0.4459840000000 1.0
C      1  0.4411420000000  0.5729170000000  0.4451170000000 1.0
C      1  0.4079630000000  0.4994520000000  0.4461050000000 1.0
C      1  0.4431330000000  0.4276300000000  0.4462820000000 1.0
C      1  0.5217110000000  0.4113570000000  0.4468330000000 1.0
C      1  0.4897160000000  0.5625110000000  0.4187420000000 1.0
C      1  0.4447550000000  0.5316400000000  0.4175460000000 1.0
C      1  0.4418700000000  0.4766720000000  0.4188740000000 1.0
C      1  0.4823040000000  0.4401190000000  0.4187900000000 1.0
C      1  0.5362080000000  0.4490820000000  0.4190070000000 1.0
C      1  0.5625470000000  0.4967840000000  0.4197370000000 1.0
C      1  0.5425510000000  0.5471560000000  0.4183440000000 1.0
C      1  0.5117620000000  0.4295040000000  0.5003190000000 1.0
C      1  0.5646140000000  0.4664190000000  0.4986140000000 1.0
C      1  0.5677290000000  0.5287860000000  0.4961360000000 1.0
C      1  0.5178910000000  0.5681690000000  0.4984240000000 1.0
C      1  0.4558240000000  0.5599420000000  0.4951410000000 1.0
C      1  0.4292700000000  0.5041070000000  0.4992090000000 1.0
C      1  0.4521750000000  0.4441020000000  0.4966190000000 1.0
C      1  0.4675810000000  0.5073730000000  0.5768380000000 1.0
C      1  0.4737370000000  0.4792530000000  0.5796520000000 1.0
C      1  0.5006720000000  0.4672580000000  0.5777950000000 1.0
C      1  0.5272280000000  0.4796550000000  0.5789810000000 1.0
C      1  0.5328820000000  0.5082020000000  0.5795610000000 1.0
C      1  0.5132550000000  0.5299760000000  0.5762860000000 1.0
C      1  0.4845140000000  0.5310750000000  0.5793690000000 1.0
C      1  0.5523360000000  0.5924120000000  0.4851250000000 1.0
C      1  0.4606440000000  0.6019940000000  0.4852790000000 1.0
C      1  0.3978080000000  0.5315500000000  0.4848660000000 1.0
C      1  0.4103230000000  0.4401580000000  0.4856110000000 1.0
C      1  0.4921860000000  0.3931570000000  0.4849700000000 1.0
C      1  0.5797070000000  0.4276760000000  0.4848420000000 1.0
C      1  0.6079530000000  0.5159140000000  0.4859310000000 1.0
C      1  0.4527490000000  0.5272000000000  0.5342410000000 1.0
C      1  0.4606430000000  0.4640940000000  0.5366840000000 1.0
C      1  0.4840400000000  0.4477180000000  0.5352070000000 1.0
C      1  0.5368590000000  0.4609000000000  0.5356570000000 1.0
C      1  0.5510150000000  0.5153050000000  0.5362030000000 1.0
C      1  0.5346940000000  0.5384190000000  0.5327650000000 1.0
C      1  0.4714230000000  0.5483520000000  0.5372110000000 1.0
C      1  0.5612660000000  0.5747290000000  0.5589640000000 1.0
C      1  0.4814420000000  0.5983340000000  0.5616390000000 1.0
C      1  0.4124890000000  0.5443660000000  0.5591960000000 1.0
C      1  0.4091160000000  0.4606230000000  0.5611420000000 1.0
C      1  0.4768430000000  0.4041310000000  0.5594410000000 1.0
C      1  0.5609550000000  0.4219130000000  0.5597130000000 1.0
C      1  0.5992360000000  0.4963910000000  0.5613330000000 1.0
C      1  0.4914110000000  0.5837720000000  0.4393000000000 1.0
C      1  0.4290860000000  0.5461060000000  0.4384980000000 1.0
C      1  0.4209770000000  0.4736850000000  0.4396700000000 1.0
C      1  0.4717000000000  0.4217030000000  0.4395230000000 1.0
C      1  0.5439880000000  0.4296460000000  0.4399850000000 1.0
C      1  0.5829840000000  0.4903660000000  0.4401050000000 1.0
C      1  0.5599150000000  0.5591250000000  0.4393350000000 1.0
C      1  0.4321560000000  0.4227980000000  0.4972330000000 1.0
C      1  0.5181140000000  0.4008550000000  0.4989230000000 1.0
C      1  0.5905410000000  0.4528850000000  0.4981200000000 1.0
C      1  0.5945070000000  0.5405140000000  0.4973460000000 1.0
C      1  0.5255770000000  0.5966480000000  0.4987080000000 1.0
C      1  0.4389210000000  0.5839480000000  0.4961810000000 1.0
C      1  0.3998360000000  0.5045120000000  0.4986920000000 1.0
C      1  0.4932900000000  0.5157360000000  0.5203870000000 1.0
C      1  0.5012140000000  0.4969340000000  0.5366450000000 1.0
C      1  0.4992230000000  0.5004120000000  0.4731390000000 1.0
C      1  0.4924160000000  0.5135020000000  0.4945780000000 1.0
C      1  0.5000760000000  0.4995710000000  0.4444420000000 1.0
C      1  0.5160450000000  0.4768630000000  0.5287260000000 1.0
END
