TITL C-3201372-1405-788 103003.19026171 125000 -487.042555561058 0 0 83 (C1) n - 1
REM
REM in /home/nfs/bkarasulu/CARBON/AIRSS/Generating-Clusters/LCBOP/Higher-Symm/SD-CG/FIRE-CG
REM
REM
REM
REM
REM
REM ./C.cell (b20cbc046b6831c77cfcea5457e17084)
REM AIRSS Version 0.9.1 bugfix July 2018 build 013d7b7c2542+ Fri, 06 Jul 2018 19:26:36 +0100
REM compiler GCC version 9.2.1 20190827 (Red Hat 9.2.1-1)
REM options -cpp -mtune=generic -march=x86-64 -g -O0 -fpre-include=/usr/include/finclude/math-vector-fortran.h
REM seed 498410726 391021394 -131718588 1195716288 1615177879 304194480 334391600 1497225065 -1214794765 1195913618 1805141113 755372917 878459929 -290977692 1252720335 1120309159 -1077612692 -1269565197 489175448 -1470378332 -336991444 472369188 1802114806 634477634 -1928572947 27362679 1260659985 746482894 -1977164781 52385022 1959013625 -869320371 1016141037
REM
CELL 1.54180   50.00000   50.00000   50.00000   90.00000   90.00000   90.00000
LATT -1
SFAC C  
C      1  0.4740840000000  0.4541050000000  0.4406480000000 1.0
C      1  0.5285580000000  0.5424500000000  0.4394860000000 1.0
C      1  0.4798470000000  0.5433360000000  0.5567930000000 1.0
C      1  0.5245780000000  0.4579470000000  0.5524520000000 1.0
C      1  0.4541430000000  0.4764580000000  0.4420660000000 1.0
C      1  0.5517670000000  0.5232950000000  0.4405080000000 1.0
C      1  0.5452800000000  0.4802810000000  0.5533830000000 1.0
C      1  0.4570730000000  0.5242010000000  0.5573360000000 1.0
C      1  0.5026560000000  0.5449230000000  0.4236450000000 1.0
C      1  0.5002690000000  0.4543710000000  0.4263870000000 1.0
C      1  0.5049010000000  0.4529250000000  0.5737010000000 1.0
C      1  0.5008180000000  0.5460560000000  0.5767290000000 1.0
C      1  0.5520980000000  0.5005350000000  0.4215850000000 1.0
C      1  0.4521040000000  0.4983070000000  0.4223510000000 1.0
C      1  0.4566340000000  0.4982250000000  0.5704310000000 1.0
C      1  0.5477300000000  0.4999940000000  0.5752440000000 1.0
C      1  0.4506150000000  0.4676400000000  0.4955420000000 1.0
C      1  0.5499970000000  0.5270550000000  0.4946740000000 1.0
C      1  0.4508580000000  0.5190650000000  0.5067890000000 1.0
C      1  0.5477080000000  0.4800330000000  0.5019750000000 1.0
C      1  0.4767490000000  0.4490030000000  0.4923160000000 1.0
C      1  0.5290170000000  0.5484040000000  0.4956940000000 1.0
C      1  0.5271110000000  0.4571810000000  0.5002850000000 1.0
C      1  0.4752410000000  0.5403260000000  0.5067140000000 1.0
C      1  0.5688180000000  0.4786790000000  0.4294350000000 1.0
C      1  0.4357790000000  0.5201870000000  0.4312090000000 1.0
C      1  0.5636700000000  0.5230790000000  0.5685330000000 1.0
C      1  0.4430280000000  0.4760310000000  0.5583610000000 1.0
C      1  0.4803890000000  0.5583890000000  0.4379100000000 1.0
C      1  0.5229300000000  0.4409830000000  0.4381540000000 1.0
C      1  0.5228560000000  0.5622810000000  0.5681840000000 1.0
C      1  0.4843480000000  0.4340880000000  0.5668080000000 1.0
C      1  0.4605510000000  0.5536970000000  0.4586930000000 1.0
C      1  0.5445170000000  0.4447250000000  0.4564030000000 1.0
C      1  0.4693570000000  0.4370430000000  0.5429500000000 1.0
C      1  0.5377650000000  0.5577030000000  0.5442290000000 1.0
C      1  0.5648570000000  0.4655750000000  0.4542940000000 1.0
C      1  0.4410070000000  0.5324830000000  0.4562050000000 1.0
C      1  0.4453910000000  0.4531780000000  0.5414720000000 1.0
C      1  0.5586760000000  0.5375410000000  0.5444330000000 1.0
C      1  0.5293960000000  0.4921750000000  0.4066010000000 1.0
C      1  0.4729740000000  0.5069400000000  0.4050060000000 1.0
C      1  0.5276140000000  0.5065060000000  0.5940210000000 1.0
C      1  0.4751590000000  0.4903960000000  0.5901870000000 1.0
C      1  0.4926590000000  0.5256920000000  0.4050960000000 1.0
C      1  0.5090980000000  0.4742170000000  0.4079720000000 1.0
C      1  0.5085640000000  0.5257450000000  0.5947960000000 1.0
C      1  0.4953890000000  0.4726130000000  0.5914820000000 1.0
C      1  0.4392520000000  0.5135300000000  0.4780810000000 1.0
C      1  0.5685190000000  0.4836880000000  0.4764430000000 1.0
C      1  0.4327580000000  0.4541000000000  0.5155340000000 1.0
C      1  0.5619330000000  0.5200580000000  0.5219200000000 1.0
C      1  0.5389810000000  0.4358450000000  0.4829390000000 1.0
C      1  0.4657140000000  0.5617010000000  0.4861110000000 1.0
C      1  0.4867350000000  0.4375000000000  0.5198750000000 1.0
C      1  0.5214250000000  0.5640530000000  0.5195360000000 1.0
C      1  0.5027090000000  0.4946270000000  0.5357740000000 1.0
C      1  0.5000140000000  0.5231490000000  0.4985160000000 1.0
C      1  0.4968240000000  0.5287510000000  0.4692490000000 1.0
C      1  0.4994450000000  0.4697910000000  0.4891360000000 1.0
C      1  0.4621810000000  0.4913480000000  0.5111280000000 1.0
C      1  0.5301330000000  0.5039260000000  0.4926930000000 1.0
C      1  0.5267560000000  0.4945110000000  0.4645710000000 1.0
C      1  0.4859540000000  0.5064950000000  0.4561790000000 1.0
C      1  0.5182130000000  0.5925860000000  0.5146190000000 1.0
C      1  0.3875520000000  0.4289280000000  0.5013050000000 1.0
C      1  0.5459490000000  0.4107090000000  0.4926200000000 1.0
C      1  0.4592220000000  0.5874410000000  0.4948180000000 1.0
C      1  0.5189720000000  0.6181480000000  0.5096210000000 1.0
C      1  0.4083310000000  0.4426800000000  0.5089920000000 1.0
C      1  0.4495300000000  0.6097510000000  0.5042160000000 1.0
C      1  0.5561310000000  0.3892220000000  0.5033410000000 1.0
C      1  0.5157150000000  0.4462000000000  0.5265210000000 1.0
C      1  0.4869890000000  0.5534780000000  0.5312010000000 1.0
C      1  0.5190300000000  0.5484910000000  0.4662250000000 1.0
C      1  0.4735560000000  0.4373540000000  0.4645130000000 1.0
C      1  0.4393570000000  0.5258200000000  0.5342200000000 1.0
C      1  0.5573830000000  0.4904840000000  0.5282190000000 1.0
C      1  0.5657910000000  0.5168320000000  0.4683550000000 1.0
C      1  0.4428490000000  0.4835110000000  0.4696470000000 1.0
C      1  0.5009520000000  0.4832970000000  0.4625010000000 1.0
C      1  0.5129340000000  0.5170890000000  0.5357990000000 1.0
C      1  0.4907230000000  0.4904890000000  0.5097960000000 1.0
END
