TITL C-3201378-2706-127 -0.00101773998724723 125000 -712.574511610483 0 0 117 (Cs) n - 1
REM
REM in /home/nfs/bkarasulu/CARBON/AIRSS/Generating-Clusters/LCBOP/Higher-Symm/SD-CG/FIRE-CG
REM
REM
REM
REM
REM
REM ./C.cell (b20cbc046b6831c77cfcea5457e17084)
REM AIRSS Version 0.9.1 bugfix July 2018 build 013d7b7c2542+ Fri, 06 Jul 2018 19:26:36 +0100
REM compiler GCC version 9.2.1 20190827 (Red Hat 9.2.1-1)
REM options -cpp -mtune=generic -march=x86-64 -g -O0 -fpre-include=/usr/include/finclude/math-vector-fortran.h
REM seed 2072449580 -1430862672 1769933562 -1615741130 -889952761 1026642657 -571987223 -1663040978 -979682242 737291967 -1356548326 405356860 862328853 -1354528848 2130907185 -1745587365 -1544369464 -891520238 1115756110 1513043113 -440358415 1548002442 -1433246231 -1875743011 -1779877273 -1289507167 -1645160396 -1282703990 1646347417 582359866 487265623 1420681044 392790625
REM
CELL 1.54180   50.00000   50.00000   50.00000   90.00000   90.00000   90.00000
LATT -1
SFAC C  
C      1  0.4145760000000  0.5145960000000  0.4437050000000 1.0
C      1  0.4145820000000  0.4854730000000  0.4437140000000 1.0
C      1  0.5664770000000  0.4211980000000  0.4737310000000 1.0
C      1  0.5664480000000  0.5789460000000  0.4736790000000 1.0
C      1  0.3968420000000  0.4656040000000  0.4543380000000 1.0
C      1  0.3968290000000  0.5344650000000  0.4543150000000 1.0
C      1  0.5392220000000  0.5703520000000  0.4809840000000 1.0
C      1  0.5392480000000  0.4297870000000  0.4810300000000 1.0
C      1  0.5918460000000  0.5380250000000  0.4514210000000 1.0
C      1  0.5918600000000  0.4621140000000  0.4514460000000 1.0
C      1  0.4909620000000  0.4526770000000  0.5602270000000 1.0
C      1  0.4909450000000  0.5474960000000  0.5601960000000 1.0
C      1  0.4539290000000  0.5134730000000  0.6117430000000 1.0
C      1  0.4539340000000  0.4867210000000  0.6117520000000 1.0
C      1  0.4566290000000  0.4343880000000  0.5233510000000 1.0
C      1  0.4566050000000  0.5657480000000  0.5233080000000 1.0
C      1  0.5444910000000  0.5481510000000  0.4979010000000 1.0
C      1  0.5445090000000  0.4520010000000  0.4979320000000 1.0
C      1  0.4747770000000  0.5465170000000  0.5828410000000 1.0
C      1  0.4747940000000  0.4536650000000  0.5828720000000 1.0
C      1  0.4435980000000  0.5147820000000  0.4793180000000 1.0
C      1  0.4436030000000  0.4853200000000  0.4793280000000 1.0
C      1  0.4914030000000  0.4721880000000  0.4891090000000 1.0
C      1  0.4913930000000  0.5279380000000  0.4890910000000 1.0
C      1  0.5961960000000  0.4697210000000  0.4788450000000 1.0
C      1  0.5961850000000  0.5304370000000  0.4788250000000 1.0
C      1  0.5813910000000  0.5150620000000  0.4330650000000 1.0
C      1  0.5813960000000  0.4850600000000  0.4330750000000 1.0
C      1  0.4413410000000  0.5241720000000  0.4519120000000 1.0
C      1  0.4413500000000  0.4759120000000  0.4519270000000 1.0
C      1  0.5079660000000  0.4863120000000  0.5331990000000 1.0
C      1  0.5079610000000  0.5138500000000  0.5331900000000 1.0
C      1  0.4080850000000  0.4507040000000  0.5807180000000 1.0
C      1  0.4080670000000  0.5494520000000  0.5806860000000 1.0
C      1  0.3899820000000  0.4856650000000  0.5217060000000 1.0
C      1  0.3899770000000  0.5144460000000  0.5216970000000 1.0
C      1  0.4782660000000  0.4494040000000  0.5334130000000 1.0
C      1  0.4782470000000  0.5507460000000  0.5333790000000 1.0
C      1  0.5737030000000  0.5135770000000  0.4837600000000 1.0
C      1  0.5737070000000  0.4865760000000  0.4837680000000 1.0
C      1  0.5530840000000  0.4453590000000  0.4310320000000 1.0
C      1  0.5530640000000  0.5547520000000  0.4309970000000 1.0
C      1  0.4357650000000  0.5789440000000  0.5089230000000 1.0
C      1  0.4357940000000  0.4211750000000  0.5089750000000 1.0
C      1  0.4327550000000  0.3936720000000  0.5137750000000 1.0
C      1  0.4327160000000  0.6064490000000  0.5137050000000 1.0
C      1  0.5573220000000  0.5273510000000  0.4205430000000 1.0
C      1  0.5573320000000  0.4727550000000  0.4205610000000 1.0
C      1  0.4810860000000  0.4671220000000  0.4190120000000 1.0
C      1  0.4810740000000  0.5329540000000  0.4189910000000 1.0
C      1  0.5745430000000  0.4373830000000  0.4496280000000 1.0
C      1  0.5745200000000  0.5627480000000  0.4495870000000 1.0
C      1  0.5731670000000  0.5578850000000  0.5704000000000 1.0
C      1  0.5731880000000  0.4423250000000  0.5704380000000 1.0
C      1  0.5800920000000  0.4233380000000  0.5512360000000 1.0
C      1  0.5800640000000  0.5768610000000  0.5511860000000 1.0
C      1  0.5244900000000  0.5567310000000  0.4364270000000 1.0
C      1  0.5245110000000  0.4433730000000  0.4364640000000 1.0
C      1  0.5827570000000  0.5363770000000  0.5255500000000 1.0
C      1  0.5827700000000  0.4638060000000  0.5255740000000 1.0
C      1  0.5802960000000  0.4116250000000  0.4978810000000 1.0
C      1  0.5802640000000  0.5885400000000  0.4978230000000 1.0
C      1  0.4300070000000  0.3681650000000  0.5183620000000 1.0
C      1  0.4299580000000  0.6319580000000  0.5182750000000 1.0
C      1  0.5603100000000  0.5348410000000  0.5795830000000 1.0
C      1  0.5603230000000  0.4653700000000  0.5796060000000 1.0
C      1  0.4911760000000  0.4694240000000  0.5170660000000 1.0
C      1  0.4911650000000  0.5307200000000  0.5170460000000 1.0
C      1  0.4712950000000  0.5590940000000  0.4578370000000 1.0
C      1  0.4713170000000  0.4410050000000  0.4578760000000 1.0
C      1  0.4287130000000  0.4677940000000  0.5749120000000 1.0
C      1  0.4287020000000  0.5323650000000  0.5748910000000 1.0
C      1  0.4520210000000  0.5326010000000  0.5913450000000 1.0
C      1  0.4520330000000  0.4675780000000  0.5913670000000 1.0
C      1  0.4621010000000  0.4608820000000  0.4401050000000 1.0
C      1  0.4620870000000  0.5392020000000  0.4400790000000 1.0
C      1  0.6017640000000  0.4585380000000  0.5042900000000 1.0
C      1  0.6017490000000  0.5416390000000  0.5042630000000 1.0
C      1  0.5554610000000  0.5468710000000  0.5235340000000 1.0
C      1  0.5554780000000  0.4533020000000  0.5235640000000 1.0
C      1  0.4713710000000  0.4716730000000  0.3937060000000 1.0
C      1  0.4713610000000  0.5283830000000  0.3936880000000 1.0
C      1  0.5175710000000  0.4694120000000  0.5565330000000 1.0
C      1  0.5175600000000  0.5307680000000  0.5565130000000 1.0
C      1  0.5363120000000  0.4493340000000  0.5436270000000 1.0
C      1  0.5362930000000  0.5508450000000  0.5435930000000 1.0
C      1  0.3682430000000  0.5304860000000  0.5188350000000 1.0
C      1  0.3682540000000  0.4696150000000  0.5188550000000 1.0
C      1  0.5823280000000  0.5874340000000  0.5255460000000 1.0
C      1  0.5823600000000  0.4127500000000  0.5256040000000 1.0
C      1  0.5300460000000  0.5133920000000  0.4660110000000 1.0
C      1  0.5300510000000  0.4867340000000  0.4660200000000 1.0
C      1  0.4937360000000  0.5525320000000  0.4734060000000 1.0
C      1  0.4937550000000  0.4475850000000  0.4734400000000 1.0
C      1  0.5311080000000  0.4857300000000  0.4157080000000 1.0
C      1  0.5311030000000  0.5143630000000  0.4156990000000 1.0
C      1  0.5177120000000  0.5645860000000  0.4633160000000 1.0
C      1  0.5177350000000  0.4355330000000  0.4633580000000 1.0
C      1  0.5880390000000  0.4867940000000  0.5408500000000 1.0
C      1  0.5880340000000  0.5134010000000  0.5408410000000 1.0
C      1  0.5098200000000  0.4658090000000  0.4228060000000 1.0
C      1  0.5098080000000  0.5342800000000  0.4227840000000 1.0
C      1  0.4346210000000  0.4795940000000  0.5049410000000 1.0
C      1  0.4346140000000  0.5205220000000  0.5049280000000 1.0
C      1  0.4176710000000  0.5671700000000  0.4902020000000 1.0
C      1  0.4176950000000  0.4329300000000  0.4902460000000 1.0
C      1  0.5483990000000  0.5254650000000  0.4828330000000 1.0
C      1  0.5484090000000  0.4746780000000  0.4828500000000 1.0
C      1  0.4266230000000  0.5146130000000  0.5529060000000 1.0
C      1  0.4266280000000  0.4855320000000  0.5529150000000 1.0
C      1  0.4171010000000  0.5235660000000  0.5267120000000 1.0
C      1  0.4171090000000  0.4765580000000  0.5267270000000 1.0
C      1  0.4020240000000  0.4457050000000  0.4722810000000 1.0
C      1  0.4020040000000  0.5543780000000  0.4722450000000 1.0
C      1  0.5382460000000  0.4850530000000  0.5743890000000 1.0
C      1  0.5382410000000  0.5151470000000  0.5743790000000 1.0
C      1  0.4896420000000  0.5000600000000  0.4806000000000 1.0
END
