TITL C-3201378-2706-2037 -1.11734577977138e-06 125000 -923.819815139538 0 0 150 (C1) n - 1
REM
REM in /home/nfs/bkarasulu/CARBON/AIRSS/Generating-Clusters/LCBOP/Higher-Symm/SD-CG/FIRE-CG
REM
REM
REM
REM
REM
REM ./C.cell (b20cbc046b6831c77cfcea5457e17084)
REM AIRSS Version 0.9.1 bugfix July 2018 build 013d7b7c2542+ Fri, 06 Jul 2018 19:26:36 +0100
REM compiler GCC version 9.2.1 20190827 (Red Hat 9.2.1-1)
REM options -cpp -mtune=generic -march=x86-64 -g -O0 -fpre-include=/usr/include/finclude/math-vector-fortran.h
REM seed -938366248 1339764007 118487417 839999593 2114706315 2087732601 620571881 -415581361 -1475474560 -1022075700 1497249291 1304857778 -1234659839 508926032 746350636 -1849275518 -1832788992 65445982 -31519013 -716140653 1009898011 1846319720 1053946744 -1030447960 -1578405031 597043326 -2118572262 -550789356 -578227589 1857984295 -463526877 279996297 1266380678
REM
CELL 1.54180   50.00000   50.00000   50.00000   90.00000   90.00000   90.00000
LATT -1
SFAC C  
C      1  0.5722630000000  0.4994500000000  0.5949840000000 1.0
C      1  0.5246230000000  0.5676130000000  0.5961460000000 1.0
C      1  0.4443980000000  0.5436480000000  0.5954950000000 1.0
C      1  0.4425270000000  0.4592590000000  0.5950480000000 1.0
C      1  0.5189400000000  0.4325000000000  0.5920340000000 1.0
C      1  0.6039920000000  0.5062180000000  0.4951730000000 1.0
C      1  0.5262820000000  0.6032860000000  0.4951710000000 1.0
C      1  0.4132160000000  0.5559700000000  0.4939860000000 1.0
C      1  0.4199660000000  0.4313430000000  0.4937000000000 1.0
C      1  0.5385010000000  0.4020800000000  0.4938640000000 1.0
C      1  0.4273720000000  0.5258290000000  0.4360000000000 1.0
C      1  0.4518910000000  0.4363350000000  0.4345890000000 1.0
C      1  0.5449790000000  0.4333150000000  0.4344650000000 1.0
C      1  0.5757580000000  0.5205200000000  0.4357740000000 1.0
C      1  0.5040470000000  0.5763600000000  0.4400950000000 1.0
C      1  0.5148010000000  0.5620580000000  0.5699390000000 1.0
C      1  0.4472870000000  0.5333480000000  0.5689390000000 1.0
C      1  0.4531700000000  0.4593960000000  0.5686730000000 1.0
C      1  0.5238810000000  0.4439580000000  0.5662670000000 1.0
C      1  0.5633530000000  0.5065940000000  0.5688120000000 1.0
C      1  0.5163500000000  0.4584740000000  0.3973970000000 1.0
C      1  0.5437470000000  0.5022340000000  0.3979190000000 1.0
C      1  0.5113800000000  0.5424900000000  0.3991760000000 1.0
C      1  0.4642180000000  0.5236440000000  0.3992390000000 1.0
C      1  0.4666800000000  0.4718300000000  0.3978520000000 1.0
C      1  0.4074430000000  0.4899700000000  0.4635390000000 1.0
C      1  0.4799130000000  0.4053800000000  0.4619920000000 1.0
C      1  0.5809190000000  0.4523070000000  0.4635400000000 1.0
C      1  0.5690930000000  0.5610720000000  0.4637400000000 1.0
C      1  0.4627930000000  0.5886000000000  0.4645280000000 1.0
C      1  0.5626070000000  0.5881430000000  0.4627020000000 1.0
C      1  0.4352770000000  0.5871830000000  0.4606640000000 1.0
C      1  0.3975040000000  0.4639500000000  0.4623020000000 1.0
C      1  0.5025400000000  0.3889590000000  0.4611600000000 1.0
C      1  0.6044000000000  0.4673620000000  0.4631370000000 1.0
C      1  0.4779380000000  0.4260590000000  0.5053290000000 1.0
C      1  0.5580500000000  0.4608100000000  0.5055680000000 1.0
C      1  0.5546180000000  0.5437040000000  0.5060880000000 1.0
C      1  0.4759630000000  0.5729500000000  0.5052110000000 1.0
C      1  0.4273550000000  0.4966770000000  0.5067260000000 1.0
C      1  0.3808710000000  0.5038180000000  0.5719740000000 1.0
C      1  0.4601400000000  0.3882350000000  0.5679030000000 1.0
C      1  0.5947390000000  0.4287710000000  0.5736650000000 1.0
C      1  0.5986970000000  0.5700380000000  0.5701280000000 1.0
C      1  0.4665280000000  0.6156790000000  0.5755040000000 1.0
C      1  0.5584680000000  0.5345650000000  0.5629320000000 1.0
C      1  0.4869430000000  0.5667710000000  0.5642430000000 1.0
C      1  0.4340930000000  0.5080730000000  0.5628490000000 1.0
C      1  0.4731180000000  0.4402910000000  0.5606800000000 1.0
C      1  0.5495800000000  0.4563980000000  0.5625680000000 1.0
C      1  0.5611510000000  0.4552740000000  0.4432820000000 1.0
C      1  0.5595210000000  0.5422450000000  0.4447530000000 1.0
C      1  0.4811220000000  0.5650030000000  0.4561570000000 1.0
C      1  0.4270900000000  0.4985150000000  0.4447580000000 1.0
C      1  0.4776650000000  0.4271060000000  0.4434140000000 1.0
C      1  0.4013620000000  0.5313930000000  0.4876120000000 1.0
C      1  0.4379810000000  0.4111350000000  0.4858940000000 1.0
C      1  0.5616090000000  0.4161590000000  0.4875760000000 1.0
C      1  0.5980900000000  0.5324870000000  0.4882900000000 1.0
C      1  0.5000870000000  0.6100830000000  0.4876590000000 1.0
C      1  0.5166520000000  0.5157260000000  0.4489390000000 1.0
C      1  0.4877610000000  0.5169490000000  0.4495150000000 1.0
C      1  0.4767530000000  0.4905680000000  0.4500050000000 1.0
C      1  0.4992790000000  0.4719990000000  0.4495620000000 1.0
C      1  0.5239570000000  0.4877150000000  0.4491600000000 1.0
C      1  0.5923120000000  0.4932150000000  0.5170830000000 1.0
C      1  0.5336740000000  0.5865430000000  0.5166850000000 1.0
C      1  0.4299880000000  0.5616830000000  0.5159940000000 1.0
C      1  0.4219630000000  0.4491510000000  0.5158460000000 1.0
C      1  0.5220200000000  0.4084740000000  0.5155800000000 1.0
C      1  0.4427530000000  0.4976670000000  0.3646770000000 1.0
C      1  0.4852370000000  0.4435640000000  0.3633780000000 1.0
C      1  0.5483920000000  0.4691560000000  0.3628750000000 1.0
C      1  0.5453550000000  0.5375380000000  0.3649780000000 1.0
C      1  0.4790710000000  0.5551290000000  0.3654970000000 1.0
C      1  0.4719990000000  0.5395520000000  0.4434080000000 1.0
C      1  0.4509590000000  0.4834890000000  0.4408170000000 1.0
C      1  0.4991420000000  0.4454530000000  0.4397110000000 1.0
C      1  0.5496140000000  0.4807410000000  0.4396460000000 1.0
C      1  0.5317830000000  0.5383250000000  0.4412550000000 1.0
C      1  0.5159850000000  0.5988930000000  0.4521150000000 1.0
C      1  0.4123730000000  0.5443920000000  0.4508340000000 1.0
C      1  0.4296370000000  0.4282900000000  0.4500550000000 1.0
C      1  0.5458020000000  0.4102460000000  0.4506490000000 1.0
C      1  0.5982000000000  0.5147050000000  0.4517780000000 1.0
C      1  0.4690520000000  0.4520160000000  0.4999180000000 1.0
C      1  0.5308060000000  0.4640280000000  0.5000080000000 1.0
C      1  0.5415670000000  0.5196980000000  0.4998250000000 1.0
C      1  0.4894900000000  0.5550860000000  0.4852810000000 1.0
C      1  0.4498910000000  0.5127690000000  0.5043560000000 1.0
C      1  0.5132380000000  0.4504470000000  0.6127840000000 1.0
C      1  0.5524180000000  0.4971480000000  0.6146620000000 1.0
C      1  0.5198800000000  0.5480350000000  0.6156340000000 1.0
C      1  0.4613050000000  0.5328440000000  0.6150510000000 1.0
C      1  0.4575700000000  0.4723600000000  0.6147230000000 1.0
C      1  0.4177600000000  0.5666060000000  0.4668960000000 1.0
C      1  0.4110490000000  0.4403210000000  0.4671280000000 1.0
C      1  0.5288740000000  0.3953310000000  0.4670270000000 1.0
C      1  0.6072180000000  0.4943760000000  0.4685830000000 1.0
C      1  0.5385480000000  0.6004350000000  0.4685950000000 1.0
C      1  0.5100930000000  0.5229070000000  0.6221210000000 1.0
C      1  0.4820300000000  0.5157770000000  0.6219850000000 1.0
C      1  0.4801540000000  0.4869160000000  0.6215600000000 1.0
C      1  0.5070450000000  0.4761960000000  0.6210020000000 1.0
C      1  0.5255770000000  0.4984220000000  0.6215590000000 1.0
C      1  0.5170440000000  0.5559860000000  0.4242690000000 1.0
C      1  0.4522720000000  0.5335080000000  0.4238320000000 1.0
C      1  0.4527380000000  0.4623000000000  0.4216200000000 1.0
C      1  0.5205900000000  0.4416610000000  0.4209810000000 1.0
C      1  0.5603370000000  0.5003490000000  0.4217950000000 1.0
C      1  0.4766560000000  0.4921760000000  0.5454890000000 1.0
C      1  0.5019120000000  0.4763470000000  0.5364500000000 1.0
C      1  0.5236770000000  0.4945230000000  0.5475400000000 1.0
C      1  0.5134650000000  0.5216170000000  0.5464460000000 1.0
C      1  0.4831490000000  0.5218340000000  0.5402450000000 1.0
C      1  0.4673800000000  0.4131170000000  0.5651580000000 1.0
C      1  0.5729940000000  0.4423170000000  0.5689130000000 1.0
C      1  0.5791200000000  0.5530660000000  0.5673660000000 1.0
C      1  0.4760960000000  0.5919330000000  0.5706530000000 1.0
C      1  0.4065380000000  0.5060020000000  0.5680540000000 1.0
C      1  0.4744180000000  0.5220900000000  0.5119080000000 1.0
C      1  0.4824170000000  0.4738780000000  0.4936870000000 1.0
C      1  0.5078510000000  0.4817100000000  0.5056700000000 1.0
C      1  0.5156970000000  0.5100850000000  0.4974430000000 1.0
C      1  0.4948240000000  0.5292120000000  0.4946000000000 1.0
C      1  0.4657080000000  0.4082910000000  0.4866650000000 1.0
C      1  0.5710720000000  0.4421750000000  0.4882410000000 1.0
C      1  0.5763890000000  0.5496190000000  0.4887280000000 1.0
C      1  0.4752220000000  0.5977110000000  0.4896630000000 1.0
C      1  0.4071900000000  0.5042090000000  0.4881740000000 1.0
C      1  0.5006310000000  0.4467330000000  0.5464390000000 1.0
C      1  0.5521790000000  0.4846250000000  0.5507600000000 1.0
C      1  0.5318210000000  0.5454100000000  0.5509690000000 1.0
C      1  0.4682420000000  0.5465620000000  0.5506610000000 1.0
C      1  0.4478600000000  0.4828920000000  0.5504470000000 1.0
C      1  0.5986900000000  0.4953980000000  0.6004500000000 1.0
C      1  0.5375830000000  0.5909370000000  0.6018810000000 1.0
C      1  0.4257840000000  0.5627360000000  0.6013710000000 1.0
C      1  0.4188840000000  0.4468940000000  0.6007960000000 1.0
C      1  0.5208440000000  0.4055970000000  0.5962700000000 1.0
C      1  0.4571200000000  0.5628690000000  0.5249880000000 1.0
C      1  0.4305220000000  0.4748780000000  0.5252800000000 1.0
C      1  0.5005400000000  0.4250280000000  0.5231640000000 1.0
C      1  0.5689360000000  0.4793850000000  0.5248940000000 1.0
C      1  0.5406620000000  0.5603150000000  0.5251630000000 1.0
C      1  0.4850340000000  0.5402960000000  0.3878600000000 1.0
C      1  0.4582770000000  0.4978110000000  0.3874830000000 1.0
C      1  0.4893950000000  0.4582650000000  0.3862990000000 1.0
C      1  0.5358310000000  0.4767280000000  0.3862120000000 1.0
C      1  0.5333010000000  0.5271330000000  0.3874770000000 1.0
END
