TITL C-3201378-2706-171 140848.590349613 125000 -841.184467073392 0 0 141 (C1) n - 1
REM
REM in /home/nfs/bkarasulu/CARBON/AIRSS/Generating-Clusters/LCBOP/Higher-Symm/SD-CG/FIRE-CG
REM
REM
REM
REM
REM
REM ./C.cell (b20cbc046b6831c77cfcea5457e17084)
REM AIRSS Version 0.9.1 bugfix July 2018 build 013d7b7c2542+ Fri, 06 Jul 2018 19:26:36 +0100
REM compiler GCC version 9.2.1 20190827 (Red Hat 9.2.1-1)
REM options -cpp -mtune=generic -march=x86-64 -g -O0 -fpre-include=/usr/include/finclude/math-vector-fortran.h
REM seed 526403357 1149649382 -1007324262 1274939485 1136636085 -281201871 307044177 1050767508 -906326864 -1954620309 -593846470 1958835850 507714390 -1077673441 -1769789139 -1920625128 -178912748 1586376378 2141387969 -856554539 -238598283 446177915 -152823219 -1322942370 1430687638 1610036163 -142013575 1020037065 1801194543 822727933 -2024716099 1952185087 -2103532619
REM
CELL 1.54180   50.00000   50.00000   50.00000   90.00000   90.00000   90.00000
LATT -1
SFAC C  
C      1  0.4270100000000  0.5255540000000  0.5806560000000 1.0
C      1  0.5937720000000  0.4714230000000  0.4185810000000 1.0
C      1  0.5197800000000  0.4566770000000  0.4301570000000 1.0
C      1  0.4652710000000  0.5091160000000  0.5563780000000 1.0
C      1  0.5191070000000  0.5496670000000  0.5508080000000 1.0
C      1  0.4928810000000  0.4566550000000  0.4452450000000 1.0
C      1  0.5291900000000  0.4582810000000  0.5101690000000 1.0
C      1  0.4776220000000  0.5420110000000  0.4866630000000 1.0
C      1  0.5526280000000  0.5269320000000  0.4176340000000 1.0
C      1  0.4053460000000  0.4537190000000  0.6044840000000 1.0
C      1  0.4178650000000  0.4421370000000  0.5223360000000 1.0
C      1  0.5889050000000  0.5626530000000  0.4723490000000 1.0
C      1  0.4849610000000  0.5435430000000  0.4194850000000 1.0
C      1  0.5160650000000  0.4661690000000  0.5717620000000 1.0
C      1  0.5553130000000  0.4387170000000  0.5623430000000 1.0
C      1  0.4471490000000  0.5694830000000  0.4339320000000 1.0
C      1  0.5759140000000  0.4421050000000  0.4898710000000 1.0
C      1  0.4299630000000  0.5529860000000  0.5064080000000 1.0
C      1  0.4375800000000  0.5329990000000  0.4024420000000 1.0
C      1  0.5606540000000  0.4738930000000  0.5957940000000 1.0
C      1  0.3881680000000  0.4665750000000  0.5556980000000 1.0
C      1  0.5992210000000  0.5270630000000  0.4384880000000 1.0
C      1  0.5099440000000  0.4948360000000  0.5725080000000 1.0
C      1  0.4917650000000  0.5161710000000  0.4237530000000 1.0
C      1  0.5313120000000  0.4338620000000  0.4203460000000 1.0
C      1  0.4669340000000  0.5336020000000  0.5480670000000 1.0
C      1  0.4259260000000  0.5072710000000  0.4111340000000 1.0
C      1  0.5713880000000  0.5010970000000  0.5922280000000 1.0
C      1  0.5229030000000  0.5975170000000  0.5342020000000 1.0
C      1  0.4858140000000  0.4096880000000  0.4613180000000 1.0
C      1  0.5006900000000  0.4542890000000  0.4735030000000 1.0
C      1  0.5087710000000  0.5560370000000  0.5227650000000 1.0
C      1  0.5973360000000  0.5258010000000  0.4657350000000 1.0
C      1  0.4037570000000  0.4738620000000  0.5327880000000 1.0
C      1  0.4747670000000  0.4315350000000  0.4438770000000 1.0
C      1  0.5357200000000  0.5771740000000  0.5541560000000 1.0
C      1  0.4346450000000  0.5678490000000  0.4808310000000 1.0
C      1  0.5706670000000  0.4299670000000  0.5164280000000 1.0
C      1  0.5035400000000  0.4510240000000  0.5495690000000 1.0
C      1  0.4977640000000  0.5605240000000  0.4395460000000 1.0
C      1  0.5902490000000  0.5755270000000  0.4468940000000 1.0
C      1  0.4260500000000  0.4294210000000  0.5475650000000 1.0
C      1  0.6049900000000  0.4612110000000  0.6127380000000 1.0
C      1  0.3922420000000  0.5464010000000  0.3893960000000 1.0
C      1  0.5359510000000  0.5095170000000  0.4614610000000 1.0
C      1  0.4480000000000  0.4766350000000  0.5893390000000 1.0
C      1  0.4727180000000  0.4177700000000  0.5356020000000 1.0
C      1  0.5309800000000  0.5815620000000  0.4681020000000 1.0
C      1  0.4105270000000  0.5033800000000  0.5328120000000 1.0
C      1  0.5966490000000  0.4887350000000  0.4683270000000 1.0
C      1  0.4408650000000  0.5015630000000  0.4930950000000 1.0
C      1  0.5681060000000  0.4876800000000  0.5056290000000 1.0
C      1  0.5409110000000  0.4110270000000  0.4635780000000 1.0
C      1  0.4685120000000  0.5831000000000  0.5288670000000 1.0
C      1  0.5831040000000  0.4719180000000  0.4873620000000 1.0
C      1  0.4206810000000  0.5184690000000  0.5101510000000 1.0
C      1  0.4496080000000  0.5283020000000  0.5958690000000 1.0
C      1  0.5745240000000  0.4720020000000  0.3999560000000 1.0
C      1  0.5998570000000  0.5010850000000  0.5881010000000 1.0
C      1  0.3984250000000  0.5103460000000  0.4191950000000 1.0
C      1  0.4171290000000  0.4672170000000  0.3526800000000 1.0
C      1  0.5535460000000  0.5263790000000  0.6564000000000 1.0
C      1  0.4596130000000  0.4099830000000  0.5101980000000 1.0
C      1  0.5497500000000  0.5975330000000  0.4855630000000 1.0
C      1  0.5025860000000  0.5188500000000  0.5884590000000 1.0
C      1  0.4983760000000  0.4924060000000  0.4088220000000 1.0
C      1  0.4144310000000  0.4649390000000  0.3268480000000 1.0
C      1  0.5456820000000  0.5222760000000  0.6809150000000 1.0
C      1  0.5003030000000  0.4226130000000  0.5429320000000 1.0
C      1  0.5058320000000  0.5858360000000  0.4524090000000 1.0
C      1  0.4764050000000  0.5239590000000  0.5994170000000 1.0
C      1  0.5483250000000  0.4771740000000  0.3960870000000 1.0
C      1  0.4114010000000  0.4093530000000  0.5928660000000 1.0
C      1  0.5543660000000  0.5728570000000  0.4086400000000 1.0
C      1  0.4135410000000  0.5162880000000  0.5588030000000 1.0
C      1  0.6020990000000  0.4771860000000  0.4433550000000 1.0
C      1  0.4783290000000  0.5946180000000  0.4626980000000 1.0
C      1  0.5260300000000  0.4113090000000  0.5361910000000 1.0
C      1  0.4533260000000  0.4474180000000  0.4872770000000 1.0
C      1  0.5644160000000  0.5671870000000  0.5165220000000 1.0
C      1  0.4454430000000  0.5686140000000  0.5256150000000 1.0
C      1  0.5629280000000  0.4261460000000  0.4694370000000 1.0
C      1  0.5778840000000  0.4578620000000  0.6124480000000 1.0
C      1  0.4192760000000  0.5476250000000  0.3856270000000 1.0
C      1  0.5788380000000  0.5668840000000  0.4226290000000 1.0
C      1  0.4083650000000  0.4244180000000  0.5684810000000 1.0
C      1  0.5189700000000  0.5422280000000  0.5813150000000 1.0
C      1  0.4790840000000  0.4720130000000  0.4120330000000 1.0
C      1  0.4538850000000  0.4372860000000  0.5478280000000 1.0
C      1  0.5366070000000  0.5538220000000  0.4798980000000 1.0
C      1  0.4578400000000  0.4833860000000  0.5639770000000 1.0
C      1  0.5268520000000  0.4833950000000  0.4162610000000 1.0
C      1  0.4523180000000  0.4644420000000  0.4156690000000 1.0
C      1  0.5485360000000  0.5455500000000  0.5865880000000 1.0
C      1  0.4727820000000  0.4012040000000  0.4859520000000 1.0
C      1  0.5372520000000  0.6082580000000  0.5106530000000 1.0
C      1  0.4567490000000  0.5490080000000  0.4163810000000 1.0
C      1  0.5434510000000  0.4592750000000  0.5781870000000 1.0
C      1  0.5166970000000  0.5026930000000  0.5456280000000 1.0
C      1  0.4894560000000  0.5061950000000  0.4512130000000 1.0
C      1  0.6161010000000  0.4823510000000  0.5995360000000 1.0
C      1  0.3818910000000  0.5284700000000  0.4071790000000 1.0
C      1  0.4706150000000  0.4869060000000  0.4537590000000 1.0
C      1  0.5341200000000  0.5239370000000  0.5426860000000 1.0
C      1  0.5494190000000  0.5271390000000  0.4795020000000 1.0
C      1  0.4558260000000  0.4661510000000  0.5416260000000 1.0
C      1  0.4895350000000  0.5470320000000  0.4629940000000 1.0
C      1  0.5021360000000  0.4640120000000  0.5218390000000 1.0
C      1  0.5392860000000  0.5497690000000  0.4053710000000 1.0
C      1  0.4086280000000  0.4265200000000  0.6144850000000 1.0
C      1  0.5602420000000  0.5252490000000  0.6027300000000 1.0
C      1  0.4332480000000  0.4808690000000  0.4025070000000 1.0
C      1  0.5741790000000  0.5792750000000  0.4920340000000 1.0
C      1  0.4383650000000  0.4303290000000  0.5040320000000 1.0
C      1  0.5607130000000  0.5635280000000  0.5648840000000 1.0
C      1  0.4489140000000  0.4454050000000  0.4383630000000 1.0
C      1  0.4450370000000  0.4849920000000  0.4665500000000 1.0
C      1  0.5599740000000  0.5264640000000  0.5316330000000 1.0
C      1  0.5145250000000  0.4049650000000  0.4603590000000 1.0
C      1  0.4970030000000  0.5835270000000  0.5273220000000 1.0
C      1  0.5506320000000  0.4724220000000  0.5209710000000 1.0
C      1  0.4568400000000  0.5247860000000  0.4848670000000 1.0
C      1  0.5361570000000  0.5599400000000  0.5084630000000 1.0
C      1  0.4812390000000  0.4541330000000  0.4938480000000 1.0
C      1  0.3948560000000  0.4495760000000  0.5769720000000 1.0
C      1  0.5796690000000  0.5373410000000  0.4216710000000 1.0
C      1  0.4275260000000  0.4709740000000  0.6057230000000 1.0
C      1  0.5403580000000  0.5060040000000  0.4330790000000 1.0
C      1  0.4226150000000  0.4717560000000  0.3782080000000 1.0
C      1  0.5591810000000  0.5281850000000  0.6305710000000 1.0
C      1  0.5095340000000  0.5053430000000  0.4714760000000 1.0
C      1  0.5038230000000  0.4928830000000  0.5228350000000 1.0
C      1  0.5267090000000  0.4534490000000  0.4828400000000 1.0
C      1  0.4954630000000  0.5358310000000  0.5068010000000 1.0
C      1  0.4510720000000  0.4812620000000  0.5165060000000 1.0
C      1  0.5624440000000  0.5155890000000  0.5044810000000 1.0
C      1  0.5524040000000  0.4237120000000  0.5382180000000 1.0
C      1  0.4518630000000  0.5800580000000  0.4603120000000 1.0
C      1  0.5716520000000  0.5520220000000  0.5395670000000 1.0
C      1  0.4399830000000  0.4569970000000  0.4638490000000 1.0
C      1  0.5040950000000  0.5092590000000  0.5002110000000 1.0
END
