TITL C-3201372-1405-157 -138.291435169884 125000 -399.529863090622 0 0 67 (C1) n - 1
REM
REM in /home/nfs/bkarasulu/CARBON/AIRSS/Generating-Clusters/LCBOP/Higher-Symm/SD-CG/FIRE-CG
REM
REM
REM
REM
REM
REM ./C.cell (b20cbc046b6831c77cfcea5457e17084)
REM AIRSS Version 0.9.1 bugfix July 2018 build 013d7b7c2542+ Fri, 06 Jul 2018 19:26:36 +0100
REM compiler GCC version 9.2.1 20190827 (Red Hat 9.2.1-1)
REM options -cpp -mtune=generic -march=x86-64 -g -O0 -fpre-include=/usr/include/finclude/math-vector-fortran.h
REM seed 1584746661 1453817734 248877301 -1546305938 -1449716700 1552561279 -1679426791 -867774985 308003518 1571588290 -1158444821 -117017920 285525150 -1513012125 -1181698860 352013006 2121615547 -124439249 -302764536 -2070389137 -575227212 -1230611953 -1382247656 -1588398900 -361857687 1048476982 741575185 496211820 -1270919429 1257471927 -585896077 1365806435 631466266
REM
CELL 1.54180   50.00000   50.00000   50.00000   90.00000   90.00000   90.00000
LATT -1
SFAC C  
C      1  0.5278930000000  0.5123010000000  0.5112180000000 1.0
C      1  0.5263700000000  0.4851380000000  0.5035650000000 1.0
C      1  0.4679000000000  0.4605770000000  0.4960800000000 1.0
C      1  0.4660770000000  0.5459220000000  0.5113370000000 1.0
C      1  0.4874840000000  0.4221200000000  0.4674780000000 1.0
C      1  0.4898320000000  0.5835440000000  0.5332450000000 1.0
C      1  0.5647460000000  0.4426960000000  0.4806050000000 1.0
C      1  0.5667230000000  0.5535470000000  0.5357130000000 1.0
C      1  0.5429590000000  0.5405030000000  0.5469940000000 1.0
C      1  0.5445310000000  0.4592140000000  0.4669930000000 1.0
C      1  0.4982150000000  0.4985410000000  0.4379510000000 1.0
C      1  0.4899620000000  0.5076080000000  0.5671360000000 1.0
C      1  0.4680370000000  0.5305300000000  0.3820040000000 1.0
C      1  0.4956200000000  0.4457250000000  0.5834200000000 1.0
C      1  0.4658060000000  0.5221030000000  0.4313500000000 1.0
C      1  0.4642650000000  0.4844050000000  0.5657200000000 1.0
C      1  0.4603100000000  0.5398910000000  0.3589430000000 1.0
C      1  0.5028840000000  0.4381030000000  0.5585930000000 1.0
C      1  0.4564480000000  0.4757730000000  0.5409940000000 1.0
C      1  0.4631190000000  0.5320470000000  0.4569680000000 1.0
C      1  0.5721920000000  0.5092630000000  0.5193510000000 1.0
C      1  0.5717860000000  0.4847630000000  0.5012700000000 1.0
C      1  0.5151370000000  0.5467370000000  0.5525270000000 1.0
C      1  0.5182130000000  0.4573030000000  0.4552040000000 1.0
C      1  0.4718290000000  0.5610000000000  0.5709210000000 1.0
C      1  0.4779860000000  0.4472540000000  0.4288150000000 1.0
C      1  0.4701460000000  0.4335340000000  0.4848600000000 1.0
C      1  0.4736120000000  0.5728430000000  0.5142230000000 1.0
C      1  0.5013690000000  0.4521160000000  0.5340710000000 1.0
C      1  0.5109200000000  0.5448230000000  0.4759040000000 1.0
C      1  0.4986850000000  0.4374580000000  0.4463870000000 1.0
C      1  0.4960310000000  0.5686150000000  0.5567480000000 1.0
C      1  0.4767170000000  0.5203290000000  0.4060750000000 1.0
C      1  0.4873390000000  0.4711000000000  0.5905900000000 1.0
C      1  0.4860330000000  0.5460380000000  0.4661280000000 1.0
C      1  0.4752500000000  0.4600350000000  0.5256970000000 1.0
C      1  0.4844120000000  0.5252180000000  0.5202070000000 1.0
C      1  0.4862050000000  0.4820680000000  0.4839060000000 1.0
C      1  0.5472950000000  0.5128080000000  0.6156320000000 1.0
C      1  0.5385420000000  0.4890080000000  0.3758160000000 1.0
C      1  0.5723170000000  0.4549820000000  0.5072940000000 1.0
C      1  0.5767550000000  0.5383620000000  0.5116730000000 1.0
C      1  0.4373920000000  0.4885190000000  0.5232400000000 1.0
C      1  0.4437540000000  0.5208320000000  0.4753780000000 1.0
C      1  0.5589680000000  0.5432240000000  0.4892300000000 1.0
C      1  0.5509720000000  0.4500550000000  0.5264000000000 1.0
C      1  0.5013840000000  0.4812380000000  0.4595730000000 1.0
C      1  0.4967800000000  0.5244810000000  0.5461270000000 1.0
C      1  0.5036940000000  0.4947990000000  0.5897190000000 1.0
C      1  0.5005360000000  0.5043590000000  0.4110110000000 1.0
C      1  0.5568120000000  0.4809070000000  0.3590760000000 1.0
C      1  0.5691400000000  0.5229370000000  0.6256190000000 1.0
C      1  0.5250140000000  0.4623380000000  0.5218810000000 1.0
C      1  0.5317070000000  0.5337140000000  0.4910820000000 1.0
C      1  0.4552650000000  0.4617390000000  0.4324430000000 1.0
C      1  0.4488470000000  0.5472660000000  0.5657860000000 1.0
C      1  0.4372700000000  0.4924350000000  0.4722780000000 1.0
C      1  0.4321260000000  0.5168440000000  0.5251580000000 1.0
C      1  0.4401310000000  0.4780420000000  0.4478230000000 1.0
C      1  0.4336780000000  0.5311210000000  0.5500610000000 1.0
C      1  0.5473040000000  0.4836460000000  0.4831390000000 1.0
C      1  0.5458000000000  0.5139970000000  0.5338940000000 1.0
C      1  0.4410990000000  0.4768550000000  0.4964150000000 1.0
C      1  0.4422520000000  0.5322130000000  0.5022110000000 1.0
C      1  0.5199650000000  0.4970950000000  0.3928830000000 1.0
C      1  0.5253420000000  0.5030930000000  0.6044250000000 1.0
C      1  0.4868630000000  0.5047440000000  0.5010220000000 1.0
END
