TITL C-3201376-6384-1669 0.273181673936277 125000 -385.849077323832 0 0 65 (C1) n - 1
REM
REM in /home/nfs/bkarasulu/CARBON/AIRSS/Generating-Clusters/LCBOP/Higher-Symm/SD-CG/FIRE-CG
REM
REM
REM
REM
REM
REM ./C.cell (b20cbc046b6831c77cfcea5457e17084)
REM AIRSS Version 0.9.1 bugfix July 2018 build 013d7b7c2542+ Fri, 06 Jul 2018 19:26:36 +0100
REM compiler GCC version 9.2.1 20190827 (Red Hat 9.2.1-1)
REM options -cpp -mtune=generic -march=x86-64 -g -O0 -fpre-include=/usr/include/finclude/math-vector-fortran.h
REM seed 1652483770 1903580041 463450695 -686850910 1596376686 -1626808047 1436113717 1167438442 -1631316700 -1001880683 -1485435304 208551548 -870294780 402718248 -1038199448 -1665901400 27465474 -1432759264 -892103799 -1693173421 393244515 1300627444 726399067 -751351726 -2071807796 1120459811 -1585165567 -2138556870 -708648252 1621234730 1013175955 157846716 -970023061
REM
CELL 1.54180   50.00000   50.00000   50.00000   90.00000   90.00000   90.00000
LATT -1
SFAC C  
C      1  0.4730450000000  0.5496670000000  0.4678410000000 1.0
C      1  0.4513710000000  0.4809080000000  0.4297930000000 1.0
C      1  0.5163030000000  0.5673680000000  0.4639220000000 1.0
C      1  0.5288600000000  0.5325860000000  0.4285380000000 1.0
C      1  0.4130890000000  0.4910820000000  0.5328560000000 1.0
C      1  0.5195800000000  0.5381480000000  0.5525930000000 1.0
C      1  0.4352810000000  0.4849510000000  0.5178210000000 1.0
C      1  0.4793010000000  0.4771270000000  0.4325830000000 1.0
C      1  0.4550410000000  0.5392370000000  0.5316260000000 1.0
C      1  0.5085530000000  0.4229300000000  0.5249340000000 1.0
C      1  0.5054580000000  0.4958870000000  0.4948860000000 1.0
C      1  0.4965090000000  0.4012910000000  0.5357660000000 1.0
C      1  0.5846480000000  0.4861340000000  0.5127300000000 1.0
C      1  0.4278980000000  0.5168910000000  0.4491570000000 1.0
C      1  0.4904890000000  0.4464430000000  0.4867700000000 1.0
C      1  0.5075580000000  0.4633020000000  0.5529270000000 1.0
C      1  0.6416990000000  0.5314530000000  0.5157760000000 1.0
C      1  0.5855550000000  0.4884060000000  0.4847580000000 1.0
C      1  0.5661680000000  0.5021270000000  0.5737470000000 1.0
C      1  0.5207880000000  0.4778840000000  0.5728520000000 1.0
C      1  0.4806960000000  0.4686650000000  0.5450190000000 1.0
C      1  0.5680760000000  0.4661230000000  0.5233550000000 1.0
C      1  0.5121480000000  0.5516370000000  0.4400100000000 1.0
C      1  0.5231210000000  0.4445880000000  0.5381220000000 1.0
C      1  0.4079180000000  0.5798000000000  0.6174320000000 1.0
C      1  0.5912040000000  0.4903920000000  0.4369160000000 1.0
C      1  0.4936080000000  0.5667650000000  0.4798570000000 1.0
C      1  0.5427490000000  0.4911330000000  0.5801070000000 1.0
C      1  0.5589510000000  0.4215790000000  0.4541620000000 1.0
C      1  0.6629910000000  0.5442650000000  0.5078930000000 1.0
C      1  0.5512820000000  0.4693410000000  0.4553440000000 1.0
C      1  0.4417110000000  0.5251090000000  0.3804470000000 1.0
C      1  0.5453440000000  0.4507540000000  0.5198410000000 1.0
C      1  0.3960890000000  0.5896820000000  0.6389970000000 1.0
C      1  0.5382910000000  0.4408540000000  0.4931700000000 1.0
C      1  0.4685080000000  0.5431130000000  0.4168540000000 1.0
C      1  0.5970260000000  0.5043590000000  0.5307060000000 1.0
C      1  0.4652460000000  0.4345870000000  0.4877240000000 1.0
C      1  0.4315690000000  0.5600400000000  0.5743160000000 1.0
C      1  0.4334600000000  0.4882200000000  0.4891290000000 1.0
C      1  0.4197440000000  0.5699210000000  0.5958730000000 1.0
C      1  0.6200230000000  0.5183780000000  0.5235930000000 1.0
C      1  0.5332760000000  0.5062350000000  0.4285600000000 1.0
C      1  0.5317670000000  0.5035680000000  0.4906750000000 1.0
C      1  0.5495740000000  0.4435550000000  0.4675370000000 1.0
C      1  0.4341530000000  0.4647240000000  0.4452830000000 1.0
C      1  0.4963890000000  0.4735440000000  0.4784850000000 1.0
C      1  0.4498510000000  0.5250650000000  0.4064000000000 1.0
C      1  0.4584980000000  0.5312120000000  0.4837790000000 1.0
C      1  0.3844550000000  0.5994010000000  0.6602060000000 1.0
C      1  0.5853110000000  0.5075420000000  0.5560430000000 1.0
C      1  0.4377970000000  0.5134350000000  0.4754560000000 1.0
C      1  0.5762260000000  0.4832540000000  0.4586760000000 1.0
C      1  0.5014780000000  0.4766360000000  0.4501020000000 1.0
C      1  0.4924840000000  0.5130470000000  0.5139000000000 1.0
C      1  0.4403770000000  0.5068640000000  0.4256610000000 1.0
C      1  0.4583740000000  0.4749490000000  0.5312890000000 1.0
C      1  0.5287920000000  0.4822450000000  0.4426800000000 1.0
C      1  0.4682460000000  0.5272650000000  0.5100900000000 1.0
C      1  0.4830700000000  0.5470240000000  0.4401810000000 1.0
C      1  0.4307440000000  0.4641970000000  0.4733000000000 1.0
C      1  0.4393130000000  0.4403450000000  0.4853060000000 1.0
C      1  0.5080210000000  0.5220060000000  0.5356770000000 1.0
C      1  0.4433800000000  0.5500530000000  0.5528020000000 1.0
C      1  0.5114760000000  0.4307040000000  0.4971720000000 1.0
END
