TITL C-3201373-1215-1097 -7.43886676338631e-07 125000 -243.84267530916 0 0 40 (Cs) n - 1
REM
REM in /home/nfs/bkarasulu/CARBON/AIRSS/Generating-Clusters/LCBOP/Higher-Symm/SD-CG/FIRE-CG
REM
REM
REM
REM
REM
REM ./C.cell (b20cbc046b6831c77cfcea5457e17084)
REM AIRSS Version 0.9.1 bugfix July 2018 build 013d7b7c2542+ Fri, 06 Jul 2018 19:26:36 +0100
REM compiler GCC version 9.2.1 20190827 (Red Hat 9.2.1-1)
REM options -cpp -mtune=generic -march=x86-64 -g -O0 -fpre-include=/usr/include/finclude/math-vector-fortran.h
REM seed 466316235 -968881343 -1051939782 780781681 2064013457 1596527227 -2080835342 -858268098 1582807249 -1463982897 -1313550540 417677998 -477405188 -523396319 -1647361626 -2144635159 2841191 1531635606 94510847 -486428916 -559190982 -1504485335 -1242256051 1060552201 825031061 838175155 -831535512 548677239 -2006349912 -1114829315 903119691 1582150847 1735906358
REM
CELL 1.54180   50.00000   50.00000   50.00000   90.00000   90.00000   90.00000
LATT -1
SFAC C  
C      1  0.5543680000000  0.4786730000000  0.5484240000000 1.0
C      1  0.5543640000000  0.4786800000000  0.4515700000000 1.0
C      1  0.5550280000000  0.5175190000000  0.5202730000000 1.0
C      1  0.5550260000000  0.5175220000000  0.4797250000000 1.0
C      1  0.5192310000000  0.5232940000000  0.5757460000000 1.0
C      1  0.5192260000000  0.5233050000000  0.4242560000000 1.0
C      1  0.5884970000000  0.4843560000000  0.4864790000000 1.0
C      1  0.5884980000000  0.4843540000000  0.5135130000000 1.0
C      1  0.4570570000000  0.5340450000000  0.4716490000000 1.0
C      1  0.4570590000000  0.5340410000000  0.5283590000000 1.0
C      1  0.4824520000000  0.5365520000000  0.4856040000000 1.0
C      1  0.4824530000000  0.5365500000000  0.5144030000000 1.0
C      1  0.5304570000000  0.4671700000000  0.5518680000000 1.0
C      1  0.5304540000000  0.4671780000000  0.4481250000000 1.0
C      1  0.5068250000000  0.5310930000000  0.4713170000000 1.0
C      1  0.5068270000000  0.5310890000000  0.5286870000000 1.0
C      1  0.4343910000000  0.5419700000000  0.5135420000000 1.0
C      1  0.4343900000000  0.5419720000000  0.4864690000000 1.0
C      1  0.5680260000000  0.4947990000000  0.4700340000000 1.0
C      1  0.5680280000000  0.4947950000000  0.5299600000000 1.0
C      1  0.5035860000000  0.5183290000000  0.4459860000000 1.0
C      1  0.5035900000000  0.5183210000000  0.5540170000000 1.0
C      1  0.5309700000000  0.5298950000000  0.4853720000000 1.0
C      1  0.5309710000000  0.5298930000000  0.5146300000000 1.0
C      1  0.4578970000000  0.4628680000000  0.5358160000000 1.0
C      1  0.4578940000000  0.4628730000000  0.4641810000000 1.0
C      1  0.4813490000000  0.4747070000000  0.5460950000000 1.0
C      1  0.4813460000000  0.4747130000000  0.4539030000000 1.0
C      1  0.4562040000000  0.5170650000000  0.5512320000000 1.0
C      1  0.4562000000000  0.5170720000000  0.4487730000000 1.0
C      1  0.5074840000000  0.4502920000000  0.4867050000000 1.0
C      1  0.5074850000000  0.4502900000000  0.5132870000000 1.0
C      1  0.5061720000000  0.4625870000000  0.4614020000000 1.0
C      1  0.5061750000000  0.4625820000000  0.5385930000000 1.0
C      1  0.4446690000000  0.4570930000000  0.4866550000000 1.0
C      1  0.4446700000000  0.4570910000000  0.5133430000000 1.0
C      1  0.4351100000000  0.5158340000000  0.4315760000000 1.0
C      1  0.4351140000000  0.5158250000000  0.5684310000000 1.0
C      1  0.4802300000000  0.5018520000000  0.5548270000000 1.0
C      1  0.4802260000000  0.5018600000000  0.4451750000000 1.0
END
