TITL C-3201372-1405-418 -1.19202456448616e-07 125000 -582.345564564118 0 0 94 (D2) n - 1
REM
REM in /home/nfs/bkarasulu/CARBON/AIRSS/Generating-Clusters/LCBOP/Higher-Symm/SD-CG/FIRE-CG
REM
REM
REM
REM
REM
REM ./C.cell (b20cbc046b6831c77cfcea5457e17084)
REM AIRSS Version 0.9.1 bugfix July 2018 build 013d7b7c2542+ Fri, 06 Jul 2018 19:26:36 +0100
REM compiler GCC version 9.2.1 20190827 (Red Hat 9.2.1-1)
REM options -cpp -mtune=generic -march=x86-64 -g -O0 -fpre-include=/usr/include/finclude/math-vector-fortran.h
REM seed 40086621 1285460944 -722328190 -1667956203 -684616672 -1723403395 -47641611 -302559093 545213992 322812669 -2027245697 -1722148519 1065265882 675095522 -749419847 -158604299 1640377403 137382419 1343860181 2085774218 -643950217 -374313563 679585550 1829356002 1155261364 583619172 921865753 -1439871692 -1583031904 -1166446918 -1629140778 1036055594 -1849451846
REM
CELL 1.54180   50.00000   50.00000   50.00000   90.00000   90.00000   90.00000
LATT -1
SFAC C  
C      1  0.4955670000000  0.4520990000000  0.5796340000000 1.0
C      1  0.5044300000000  0.4520800000000  0.4203770000000 1.0
C      1  0.5044540000000  0.5474300000000  0.5796220000000 1.0
C      1  0.4955480000000  0.5474120000000  0.4203670000000 1.0
C      1  0.4493450000000  0.5397460000000  0.4318650000000 1.0
C      1  0.5506570000000  0.5397590000000  0.5681260000000 1.0
C      1  0.5506370000000  0.4597490000000  0.4318600000000 1.0
C      1  0.4493610000000  0.4597670000000  0.5681490000000 1.0
C      1  0.4201790000000  0.4988010000000  0.4866350000000 1.0
C      1  0.5798210000000  0.4988000000000  0.5133650000000 1.0
C      1  0.5798170000000  0.5007070000000  0.4866140000000 1.0
C      1  0.4201830000000  0.5007140000000  0.5133860000000 1.0
C      1  0.5740620000000  0.4304840000000  0.4892150000000 1.0
C      1  0.4259340000000  0.4304900000000  0.5108010000000 1.0
C      1  0.4259350000000  0.5690240000000  0.4892190000000 1.0
C      1  0.5740680000000  0.5690230000000  0.5107650000000 1.0
C      1  0.5162530000000  0.5879690000000  0.5228380000000 1.0
C      1  0.4837520000000  0.5879650000000  0.4771410000000 1.0
C      1  0.4837530000000  0.4115460000000  0.5228630000000 1.0
C      1  0.5162420000000  0.4115400000000  0.4771570000000 1.0
C      1  0.4812150000000  0.4825820000000  0.4800780000000 1.0
C      1  0.5187840000000  0.4825850000000  0.5199260000000 1.0
C      1  0.5187800000000  0.5169240000000  0.4800690000000 1.0
C      1  0.4812210000000  0.5169300000000  0.5199270000000 1.0
C      1  0.5271870000000  0.4306840000000  0.5463470000000 1.0
C      1  0.4728100000000  0.4306750000000  0.4536690000000 1.0
C      1  0.4728260000000  0.5688370000000  0.5463380000000 1.0
C      1  0.5271780000000  0.5688250000000  0.4536460000000 1.0
C      1  0.5560870000000  0.4192260000000  0.5081480000000 1.0
C      1  0.4439090000000  0.4192270000000  0.4918710000000 1.0
C      1  0.4439150000000  0.5802860000000  0.5081440000000 1.0
C      1  0.5560890000000  0.5802810000000  0.4918370000000 1.0
C      1  0.5287030000000  0.4080580000000  0.5030550000000 1.0
C      1  0.4712920000000  0.4080590000000  0.4969660000000 1.0
C      1  0.4712980000000  0.5914530000000  0.5030420000000 1.0
C      1  0.5287070000000  0.5914510000000  0.4969370000000 1.0
C      1  0.4425360000000  0.4846320000000  0.4445710000000 1.0
C      1  0.5574630000000  0.4846420000000  0.5554330000000 1.0
C      1  0.5574490000000  0.5148650000000  0.4445520000000 1.0
C      1  0.4425510000000  0.5148810000000  0.5554450000000 1.0
C      1  0.5298500000000  0.4554610000000  0.4778590000000 1.0
C      1  0.4701480000000  0.4554670000000  0.5221510000000 1.0
C      1  0.4701440000000  0.5440450000000  0.4778570000000 1.0
C      1  0.5298580000000  0.5440480000000  0.5221330000000 1.0
C      1  0.5322570000000  0.4784040000000  0.5665270000000 1.0
C      1  0.4677420000000  0.4783910000000  0.4334780000000 1.0
C      1  0.4677600000000  0.5211210000000  0.5665310000000 1.0
C      1  0.5322410000000  0.5211040000000  0.4334640000000 1.0
C      1  0.4701940000000  0.5681990000000  0.4629920000000 1.0
C      1  0.5298090000000  0.5682060000000  0.5369920000000 1.0
C      1  0.5297960000000  0.4313030000000  0.4630000000000 1.0
C      1  0.4702010000000  0.4313130000000  0.5370160000000 1.0
C      1  0.5801090000000  0.4484630000000  0.4697330000000 1.0
C      1  0.4198880000000  0.4484740000000  0.5302780000000 1.0
C      1  0.4198830000000  0.5510400000000  0.4697430000000 1.0
C      1  0.5801200000000  0.5510430000000  0.5302450000000 1.0
C      1  0.4849010000000  0.5008750000000  0.4249670000000 1.0
C      1  0.5150990000000  0.5008920000000  0.5750330000000 1.0
C      1  0.5150790000000  0.4986180000000  0.4249630000000 1.0
C      1  0.4849210000000  0.4986360000000  0.5750370000000 1.0
C      1  0.5303130000000  0.4684010000000  0.5008930000000 1.0
C      1  0.4696850000000  0.4684020000000  0.4991140000000 1.0
C      1  0.4696870000000  0.5311100000000  0.5008940000000 1.0
C      1  0.5303150000000  0.5311080000000  0.4990990000000 1.0
C      1  0.4561570000000  0.5670770000000  0.4387940000000 1.0
C      1  0.5438470000000  0.5670880000000  0.5611910000000 1.0
C      1  0.5438270000000  0.4324200000000  0.4387980000000 1.0
C      1  0.4561700000000  0.4324360000000  0.5612180000000 1.0
C      1  0.4455690000000  0.5706320000000  0.5355950000000 1.0
C      1  0.5544350000000  0.5706210000000  0.4643890000000 1.0
C      1  0.5544410000000  0.4288870000000  0.5355970000000 1.0
C      1  0.4455560000000  0.4288810000000  0.4644200000000 1.0
C      1  0.5199410000000  0.5475850000000  0.4350120000000 1.0
C      1  0.4800610000000  0.5476010000000  0.5649770000000 1.0
C      1  0.4800420000000  0.4519110000000  0.4350280000000 1.0
C      1  0.5199560000000  0.4519250000000  0.5649830000000 1.0
C      1  0.4743280000000  0.5277250000000  0.4224150000000 1.0
C      1  0.5256740000000  0.5277420000000  0.5775780000000 1.0
C      1  0.5256510000000  0.4717670000000  0.4224150000000 1.0
C      1  0.4743470000000  0.4717860000000  0.5775920000000 1.0
C      1  0.5706170000000  0.4687190000000  0.4511980000000 1.0
C      1  0.4293810000000  0.4687340000000  0.5488090000000 1.0
C      1  0.4293700000000  0.5307800000000  0.4512100000000 1.0
C      1  0.5706320000000  0.5307870000000  0.5487830000000 1.0
C      1  0.5120110000000  0.5864340000000  0.4732920000000 1.0
C      1  0.4879930000000  0.5864410000000  0.5266880000000 1.0
C      1  0.4879820000000  0.4130700000000  0.4733150000000 1.0
C      1  0.5120140000000  0.4130760000000  0.5267050000000 1.0
C      1  0.4285460000000  0.4959030000000  0.5399930000000 1.0
C      1  0.5714530000000  0.4958910000000  0.4600080000000 1.0
C      1  0.5714640000000  0.5036160000000  0.5399730000000 1.0
C      1  0.4285360000000  0.5036110000000  0.4600260000000 1.0
C      1  0.4999960000000  0.4997520000000  0.4727190000000 1.0
C      1  0.5000040000000  0.4997580000000  0.5272810000000 1.0
END
