TITL C-3201377-4638-944 -8.74532243285362e-07 125000 -667.591912407778 0 0 111 (C1) n - 1
REM
REM in /home/nfs/bkarasulu/CARBON/AIRSS/Generating-Clusters/LCBOP/Higher-Symm/SD-CG/FIRE-CG
REM
REM
REM
REM
REM
REM ./C.cell (b20cbc046b6831c77cfcea5457e17084)
REM AIRSS Version 0.9.1 bugfix July 2018 build 013d7b7c2542+ Fri, 06 Jul 2018 19:26:36 +0100
REM compiler GCC version 9.2.1 20190827 (Red Hat 9.2.1-1)
REM options -cpp -mtune=generic -march=x86-64 -g -O0 -fpre-include=/usr/include/finclude/math-vector-fortran.h
REM seed 352564623 -1502428217 437839389 -865845749 438932441 -155199775 -662323543 1000657642 -413348383 1807701282 1606248277 1790588165 -1608273985 -2016403094 -306491896 1818778094 702319588 -1920827170 -452809026 570404331 -58374053 -989800370 -2078973700 -24314970 1527114163 1232265488 1875538480 -1266448802 -581636075 1039728879 426114450 -1647359957 210180000
REM
CELL 1.54180   50.00000   50.00000   50.00000   90.00000   90.00000   90.00000
LATT -1
SFAC C  
C      1  0.4335920000000  0.5684330000000  0.5708180000000 1.0
C      1  0.4473070000000  0.5013080000000  0.3939920000000 1.0
C      1  0.4822670000000  0.4492920000000  0.4691610000000 1.0
C      1  0.5399890000000  0.4460810000000  0.4904290000000 1.0
C      1  0.5666750000000  0.4622050000000  0.4527110000000 1.0
C      1  0.5362480000000  0.5891800000000  0.4842290000000 1.0
C      1  0.5290880000000  0.4784110000000  0.5915390000000 1.0
C      1  0.4961490000000  0.4278460000000  0.4824140000000 1.0
C      1  0.5334750000000  0.4558990000000  0.3690180000000 1.0
C      1  0.5636080000000  0.5355490000000  0.5428370000000 1.0
C      1  0.5649320000000  0.4579700000000  0.4808810000000 1.0
C      1  0.5031230000000  0.6210690000000  0.5009800000000 1.0
C      1  0.5207660000000  0.5701440000000  0.4243000000000 1.0
C      1  0.5227560000000  0.4538770000000  0.5778020000000 1.0
C      1  0.5040190000000  0.4553870000000  0.4106810000000 1.0
C      1  0.4975380000000  0.4606900000000  0.5150040000000 1.0
C      1  0.4495920000000  0.4812300000000  0.5875320000000 1.0
C      1  0.4801370000000  0.5406480000000  0.4801660000000 1.0
C      1  0.4424770000000  0.4718390000000  0.5152940000000 1.0
C      1  0.4983770000000  0.4264230000000  0.5494880000000 1.0
C      1  0.5037210000000  0.5529120000000  0.4361200000000 1.0
C      1  0.4105300000000  0.4973750000000  0.5421890000000 1.0
C      1  0.4434450000000  0.4370520000000  0.5602940000000 1.0
C      1  0.4702100000000  0.4637380000000  0.5144940000000 1.0
C      1  0.4557400000000  0.5780660000000  0.5592110000000 1.0
C      1  0.4683690000000  0.4826150000000  0.3917490000000 1.0
C      1  0.5959670000000  0.4992200000000  0.5528690000000 1.0
C      1  0.5550590000000  0.4483750000000  0.3565010000000 1.0
C      1  0.4858230000000  0.4807440000000  0.5599840000000 1.0
C      1  0.4834440000000  0.5048750000000  0.5437410000000 1.0
C      1  0.5399280000000  0.5865470000000  0.4337570000000 1.0
C      1  0.5882160000000  0.4176370000000  0.5225980000000 1.0
C      1  0.5004760000000  0.5290360000000  0.5478590000000 1.0
C      1  0.5144980000000  0.4894160000000  0.4827290000000 1.0
C      1  0.4277670000000  0.4759400000000  0.4908380000000 1.0
C      1  0.4395530000000  0.4261160000000  0.4676070000000 1.0
C      1  0.5504370000000  0.4617120000000  0.4308400000000 1.0
C      1  0.4985000000000  0.6446180000000  0.5111570000000 1.0
C      1  0.5263990000000  0.5393500000000  0.4753610000000 1.0
C      1  0.5947300000000  0.4424130000000  0.5148370000000 1.0
C      1  0.4358880000000  0.5131220000000  0.3721860000000 1.0
C      1  0.4580790000000  0.4432750000000  0.4551530000000 1.0
C      1  0.4259980000000  0.5491410000000  0.5879270000000 1.0
C      1  0.4367380000000  0.5846080000000  0.4817080000000 1.0
C      1  0.4428110000000  0.5445270000000  0.5092980000000 1.0
C      1  0.4403500000000  0.5293390000000  0.6019550000000 1.0
C      1  0.4863070000000  0.4134680000000  0.5046220000000 1.0
C      1  0.4968800000000  0.4532430000000  0.5624750000000 1.0
C      1  0.5266710000000  0.4576160000000  0.5135700000000 1.0
C      1  0.4415070000000  0.5342330000000  0.4310350000000 1.0
C      1  0.4507410000000  0.4198470000000  0.5385900000000 1.0
C      1  0.5077660000000  0.5977380000000  0.4858240000000 1.0
C      1  0.5858840000000  0.4647310000000  0.4998190000000 1.0
C      1  0.5066330000000  0.5053440000000  0.5053010000000 1.0
C      1  0.5460520000000  0.5222140000000  0.4642090000000 1.0
C      1  0.4381050000000  0.5069490000000  0.4206320000000 1.0
C      1  0.5266860000000  0.4182850000000  0.5485010000000 1.0
C      1  0.5688560000000  0.4002020000000  0.5287860000000 1.0
C      1  0.5208290000000  0.5265850000000  0.5235270000000 1.0
C      1  0.5255580000000  0.4258620000000  0.4461890000000 1.0
C      1  0.4661060000000  0.5306580000000  0.5028510000000 1.0
C      1  0.4787810000000  0.5082410000000  0.5152140000000 1.0
C      1  0.5379520000000  0.4959960000000  0.4686470000000 1.0
C      1  0.5005350000000  0.5946230000000  0.5499150000000 1.0
C      1  0.5018390000000  0.5435250000000  0.4626450000000 1.0
C      1  0.6175270000000  0.4972980000000  0.4838110000000 1.0
C      1  0.4845000000000  0.5878530000000  0.4708740000000 1.0
C      1  0.5402670000000  0.4427900000000  0.5573470000000 1.0
C      1  0.4899610000000  0.4804190000000  0.3732510000000 1.0
C      1  0.4302340000000  0.4162290000000  0.4907580000000 1.0
C      1  0.5857170000000  0.5489660000000  0.4754890000000 1.0
C      1  0.5439230000000  0.5160650000000  0.5382370000000 1.0
C      1  0.4579200000000  0.5772290000000  0.4635650000000 1.0
C      1  0.5520150000000  0.4896010000000  0.5768550000000 1.0
C      1  0.5235180000000  0.4281950000000  0.4744140000000 1.0
C      1  0.5476660000000  0.5938350000000  0.4585380000000 1.0
C      1  0.4671510000000  0.5364330000000  0.6080800000000 1.0
C      1  0.5716900000000  0.5324230000000  0.4592360000000 1.0
C      1  0.5294610000000  0.5470720000000  0.5030910000000 1.0
C      1  0.4503100000000  0.5571960000000  0.4433950000000 1.0
C      1  0.4544390000000  0.5062640000000  0.4678230000000 1.0
C      1  0.4321240000000  0.4889650000000  0.4660600000000 1.0
C      1  0.5434790000000  0.3988890000000  0.5375800000000 1.0
C      1  0.4328490000000  0.4139580000000  0.5174150000000 1.0
C      1  0.4394620000000  0.4650280000000  0.5648260000000 1.0
C      1  0.5958790000000  0.5091550000000  0.5252130000000 1.0
C      1  0.4262780000000  0.5654380000000  0.5002590000000 1.0
C      1  0.5038960000000  0.4890760000000  0.6021270000000 1.0
C      1  0.5449100000000  0.4899810000000  0.5481660000000 1.0
C      1  0.4345770000000  0.5017910000000  0.5997840000000 1.0
C      1  0.4269690000000  0.6102280000000  0.4812040000000 1.0
C      1  0.4002970000000  0.5670110000000  0.5087350000000 1.0
C      1  0.4934350000000  0.4763100000000  0.4683560000000 1.0
C      1  0.4305210000000  0.4786600000000  0.5407980000000 1.0
C      1  0.4784230000000  0.4856790000000  0.5880870000000 1.0
C      1  0.4340950000000  0.4824690000000  0.4375180000000 1.0
C      1  0.4747200000000  0.4638830000000  0.4137530000000 1.0
C      1  0.5416810000000  0.4638290000000  0.5370280000000 1.0
C      1  0.4785760000000  0.4164780000000  0.5319730000000 1.0
C      1  0.5767300000000  0.5559610000000  0.5016310000000 1.0
C      1  0.5491730000000  0.5684040000000  0.5016900000000 1.0
C      1  0.5838050000000  0.5366210000000  0.5226240000000 1.0
C      1  0.4885110000000  0.5431300000000  0.5931710000000 1.0
C      1  0.5260500000000  0.4471250000000  0.4273550000000 1.0
C      1  0.4937850000000  0.5493300000000  0.5661160000000 1.0
C      1  0.5988940000000  0.4905780000000  0.5030610000000 1.0
C      1  0.5806280000000  0.4940280000000  0.5753290000000 1.0
C      1  0.4776920000000  0.4971260000000  0.4578490000000 1.0
C      1  0.4836420000000  0.5745100000000  0.5571420000000 1.0
C      1  0.4531850000000  0.4602190000000  0.4326790000000 1.0
C      1  0.5109530000000  0.4636640000000  0.3831180000000 1.0
END
