TITL C-3201379-3821-1704 -13589.7328129456 125000 -991.287770856065 0 0 159 (C1) n - 1
REM
REM in /home/nfs/bkarasulu/CARBON/AIRSS/Generating-Clusters/LCBOP/Higher-Symm/SD-CG/FIRE-CG
REM
REM
REM
REM
REM
REM ./C.cell (b20cbc046b6831c77cfcea5457e17084)
REM AIRSS Version 0.9.1 bugfix July 2018 build 013d7b7c2542+ Fri, 06 Jul 2018 19:26:36 +0100
REM compiler GCC version 9.2.1 20190827 (Red Hat 9.2.1-1)
REM options -cpp -mtune=generic -march=x86-64 -g -O0 -fpre-include=/usr/include/finclude/math-vector-fortran.h
REM seed -1199700613 757903215 -1681772858 605800498 1918432715 1345865878 2089494942 -1923908375 897690283 957317315 1314486309 1333631958 265854450 -737318192 -1803369038 2049556934 -412470724 -307317221 1080810685 -224542930 2091619163 -1997168637 -917404750 -844949513 869061238 556581224 787392740 1024334737 136186792 -1798372996 -325572344 -934619512 -1934601924
REM
CELL 1.54180   50.00000   50.00000   50.00000   90.00000   90.00000   90.00000
LATT -1
SFAC C  
C      1  0.4751020000000  0.4028120000000  0.4499270000000 1.0
C      1  0.5223470000000  0.5976260000000  0.4443480000000 1.0
C      1  0.5217940000000  0.3998560000000  0.5568290000000 1.0
C      1  0.4772110000000  0.5988540000000  0.5502580000000 1.0
C      1  0.4014450000000  0.4785590000000  0.4447720000000 1.0
C      1  0.6002070000000  0.5233150000000  0.4445640000000 1.0
C      1  0.3993870000000  0.5221690000000  0.5561460000000 1.0
C      1  0.5969320000000  0.4753130000000  0.5492060000000 1.0
C      1  0.4831360000000  0.4582580000000  0.5773040000000 1.0
C      1  0.5151240000000  0.5389390000000  0.5736210000000 1.0
C      1  0.5156440000000  0.4633590000000  0.4274720000000 1.0
C      1  0.4860820000000  0.5363790000000  0.4254710000000 1.0
C      1  0.4629510000000  0.4832260000000  0.5787610000000 1.0
C      1  0.5360320000000  0.5134300000000  0.5721120000000 1.0
C      1  0.4605720000000  0.5165500000000  0.4259480000000 1.0
C      1  0.5418700000000  0.4839340000000  0.4257300000000 1.0
C      1  0.4216350000000  0.5312960000000  0.5725610000000 1.0
C      1  0.5756480000000  0.4698100000000  0.5684580000000 1.0
C      1  0.5794780000000  0.5372710000000  0.4313460000000 1.0
C      1  0.4214900000000  0.4635190000000  0.4313060000000 1.0
C      1  0.5368190000000  0.4199810000000  0.5701740000000 1.0
C      1  0.4673540000000  0.5787540000000  0.5687490000000 1.0
C      1  0.5340510000000  0.5758490000000  0.4311220000000 1.0
C      1  0.4702800000000  0.4249790000000  0.4316050000000 1.0
C      1  0.4307150000000  0.4745840000000  0.5638170000000 1.0
C      1  0.5604760000000  0.5222960000000  0.5515390000000 1.0
C      1  0.5714290000000  0.4758110000000  0.4370130000000 1.0
C      1  0.4315970000000  0.5250170000000  0.4387040000000 1.0
C      1  0.4750130000000  0.4295260000000  0.5638080000000 1.0
C      1  0.5243220000000  0.5624950000000  0.5532110000000 1.0
C      1  0.4775870000000  0.5673760000000  0.4380420000000 1.0
C      1  0.5231740000000  0.4326900000000  0.4408130000000 1.0
C      1  0.4712920000000  0.5619640000000  0.4996730000000 1.0
C      1  0.5317890000000  0.4378610000000  0.4997330000000 1.0
C      1  0.5309020000000  0.5622640000000  0.5033730000000 1.0
C      1  0.4732370000000  0.4373410000000  0.5002380000000 1.0
C      1  0.5664280000000  0.4723890000000  0.5003960000000 1.0
C      1  0.4355900000000  0.5278560000000  0.5020950000000 1.0
C      1  0.5618900000000  0.5329510000000  0.5030710000000 1.0
C      1  0.4382410000000  0.4696090000000  0.5017140000000 1.0
C      1  0.5257440000000  0.4512590000000  0.6072500000000 1.0
C      1  0.4757390000000  0.5479090000000  0.6069920000000 1.0
C      1  0.4760930000000  0.4589210000000  0.3950460000000 1.0
C      1  0.5263520000000  0.5432070000000  0.3933070000000 1.0
C      1  0.4571870000000  0.5254120000000  0.6084960000000 1.0
C      1  0.5419420000000  0.4749620000000  0.6054030000000 1.0
C      1  0.4526360000000  0.4755080000000  0.3942130000000 1.0
C      1  0.5490070000000  0.5249900000000  0.3933890000000 1.0
C      1  0.5207890000000  0.5448580000000  0.5261620000000 1.0
C      1  0.4801150000000  0.4594690000000  0.5173010000000 1.0
C      1  0.4778660000000  0.5383220000000  0.4851790000000 1.0
C      1  0.5256360000000  0.4598470000000  0.4830940000000 1.0
C      1  0.5418240000000  0.5227310000000  0.5244090000000 1.0
C      1  0.4605870000000  0.4787760000000  0.5169300000000 1.0
C      1  0.5455250000000  0.4789450000000  0.4821320000000 1.0
C      1  0.4578860000000  0.5194520000000  0.4860990000000 1.0
C      1  0.5683630000000  0.5882850000000  0.4739590000000 1.0
C      1  0.4244510000000  0.4161900000000  0.4707130000000 1.0
C      1  0.4262460000000  0.5919250000000  0.5333650000000 1.0
C      1  0.5636130000000  0.4044010000000  0.5275690000000 1.0
C      1  0.5897730000000  0.5684320000000  0.4745490000000 1.0
C      1  0.4053040000000  0.4368390000000  0.4738160000000 1.0
C      1  0.5842410000000  0.4237410000000  0.5300040000000 1.0
C      1  0.4064870000000  0.5722460000000  0.5353280000000 1.0
C      1  0.5729010000000  0.5340510000000  0.4045890000000 1.0
C      1  0.4286850000000  0.4643360000000  0.4043790000000 1.0
C      1  0.4309890000000  0.5279110000000  0.5985190000000 1.0
C      1  0.5684430000000  0.4725140000000  0.5952650000000 1.0
C      1  0.5304240000000  0.5684680000000  0.4046040000000 1.0
C      1  0.4731010000000  0.4323950000000  0.4048820000000 1.0
C      1  0.5368670000000  0.4273030000000  0.5970530000000 1.0
C      1  0.4692480000000  0.5726890000000  0.5957200000000 1.0
C      1  0.5019770000000  0.4553980000000  0.5327820000000 1.0
C      1  0.4934080000000  0.5370640000000  0.5312550000000 1.0
C      1  0.5003150000000  0.4705860000000  0.4761450000000 1.0
C      1  0.5040140000000  0.5304820000000  0.4764640000000 1.0
C      1  0.4572970000000  0.5004660000000  0.5334850000000 1.0
C      1  0.5291540000000  0.4964320000000  0.5232860000000 1.0
C      1  0.4570540000000  0.4975470000000  0.4696330000000 1.0
C      1  0.5456420000000  0.5028200000000  0.4689210000000 1.0
C      1  0.4720440000000  0.5031610000000  0.5573030000000 1.0
C      1  0.5194640000000  0.4932880000000  0.5524100000000 1.0
C      1  0.5303730000000  0.5055840000000  0.4448810000000 1.0
C      1  0.4723310000000  0.4958890000000  0.4456040000000 1.0
C      1  0.5034430000000  0.4700690000000  0.5566470000000 1.0
C      1  0.4907580000000  0.5241680000000  0.5562760000000 1.0
C      1  0.5074400000000  0.5228830000000  0.4472660000000 1.0
C      1  0.4966140000000  0.4799140000000  0.4479440000000 1.0
C      1  0.4077070000000  0.5069990000000  0.4475460000000 1.0
C      1  0.5948740000000  0.4944650000000  0.4465990000000 1.0
C      1  0.5913650000000  0.5029220000000  0.5405040000000 1.0
C      1  0.4041540000000  0.4943090000000  0.5482090000000 1.0
C      1  0.5038870000000  0.4064400000000  0.4566830000000 1.0
C      1  0.4940290000000  0.5920390000000  0.4474580000000 1.0
C      1  0.5046890000000  0.5932630000000  0.5423960000000 1.0
C      1  0.4932670000000  0.4061840000000  0.5541330000000 1.0
C      1  0.4556030000000  0.5033240000000  0.3993250000000 1.0
C      1  0.5391320000000  0.4984840000000  0.3983450000000 1.0
C      1  0.5287940000000  0.4993110000000  0.5991650000000 1.0
C      1  0.4723750000000  0.5001150000000  0.6043450000000 1.0
C      1  0.5008060000000  0.4715050000000  0.4008870000000 1.0
C      1  0.5018140000000  0.5278110000000  0.3987260000000 1.0
C      1  0.5020170000000  0.5375420000000  0.6017370000000 1.0
C      1  0.4976450000000  0.4535310000000  0.6032900000000 1.0
C      1  0.5181530000000  0.3989910000000  0.4814790000000 1.0
C      1  0.4874040000000  0.5996240000000  0.4756600000000 1.0
C      1  0.4865690000000  0.3991050000000  0.5253560000000 1.0
C      1  0.5198450000000  0.6026570000000  0.5193350000000 1.0
C      1  0.3991600000000  0.5141290000000  0.4757300000000 1.0
C      1  0.6032050000000  0.4875470000000  0.4748240000000 1.0
C      1  0.3988900000000  0.4821390000000  0.5210070000000 1.0
C      1  0.6018110000000  0.5189470000000  0.5186680000000 1.0
C      1  0.4648580000000  0.4451770000000  0.4506360000000 1.0
C      1  0.5384080000000  0.5578140000000  0.4526920000000 1.0
C      1  0.5414180000000  0.4392030000000  0.5496600000000 1.0
C      1  0.4578590000000  0.5595000000000  0.5501680000000 1.0
C      1  0.4408330000000  0.4585430000000  0.4516850000000 1.0
C      1  0.5612210000000  0.5424380000000  0.4526090000000 1.0
C      1  0.4392920000000  0.5395310000000  0.5519120000000 1.0
C      1  0.5552920000000  0.4628470000000  0.5500980000000 1.0
C      1  0.4802450000000  0.4473560000000  0.4749660000000 1.0
C      1  0.5233710000000  0.5538390000000  0.4774660000000 1.0
C      1  0.5242370000000  0.4396600000000  0.5266920000000 1.0
C      1  0.4738680000000  0.5568040000000  0.5266810000000 1.0
C      1  0.4406770000000  0.4754740000000  0.4746120000000 1.0
C      1  0.5602670000000  0.5254430000000  0.4759230000000 1.0
C      1  0.4398120000000  0.5221850000000  0.5289780000000 1.0
C      1  0.5534800000000  0.4772670000000  0.5251380000000 1.0
C      1  0.4647300000000  0.5822950000000  0.4813710000000 1.0
C      1  0.5411860000000  0.4178190000000  0.4813810000000 1.0
C      1  0.5436130000000  0.5844850000000  0.5186390000000 1.0
C      1  0.4646400000000  0.4173980000000  0.5188300000000 1.0
C      1  0.5866050000000  0.4642890000000  0.4816510000000 1.0
C      1  0.4167810000000  0.5365990000000  0.4824910000000 1.0
C      1  0.5847990000000  0.5432630000000  0.5192820000000 1.0
C      1  0.4188260000000  0.4601430000000  0.5203170000000 1.0
C      1  0.5367320000000  0.6030780000000  0.4704190000000 1.0
C      1  0.4482040000000  0.4018440000000  0.4646180000000 1.0
C      1  0.4513570000000  0.6047570000000  0.5356090000000 1.0
C      1  0.5349830000000  0.3933310000000  0.5303130000000 1.0
C      1  0.6055640000000  0.5370270000000  0.4710400000000 1.0
C      1  0.3944800000000  0.4654440000000  0.4712000000000 1.0
C      1  0.5985170000000  0.4478390000000  0.5352660000000 1.0
C      1  0.3936340000000  0.5477250000000  0.5408290000000 1.0
C      1  0.4315780000000  0.5484200000000  0.4580480000000 1.0
C      1  0.5719510000000  0.4517870000000  0.4563720000000 1.0
C      1  0.5724250000000  0.5507880000000  0.5455830000000 1.0
C      1  0.4314380000000  0.4512420000000  0.5454560000000 1.0
C      1  0.5499230000000  0.4311850000000  0.4561790000000 1.0
C      1  0.4531910000000  0.5684200000000  0.4568540000000 1.0
C      1  0.5522940000000  0.5725910000000  0.5451610000000 1.0
C      1  0.4521380000000  0.4303670000000  0.5439700000000 1.0
C      1  0.5115870000000  0.3922160000000  0.5096920000000 1.0
C      1  0.5128990000000  0.6066400000000  0.4906500000000 1.0
C      1  0.6084740000000  0.5129400000000  0.4906180000000 1.0
C      1  0.3925340000000  0.4889520000000  0.4921470000000 1.0
C      1  0.5021890000000  0.5079000000000  0.6076700000000 1.0
C      1  0.5093180000000  0.4983940000000  0.3936120000000 1.0
C      1  0.5067640000000  0.5005980000000  0.4954300000000 1.0
END
