TITL C-3201375-1262-1527 1.79267253247868e-07 125000 -25.0790098697786 0 0 5 (D(inf)h) n - 1
REM
REM in /home/nfs/bkarasulu/CARBON/AIRSS/Generating-Clusters/LCBOP/Higher-Symm/SD-CG/FIRE-CG
REM
REM
REM
REM
REM
REM ./C.cell (b20cbc046b6831c77cfcea5457e17084)
REM AIRSS Version 0.9.1 bugfix July 2018 build 013d7b7c2542+ Fri, 06 Jul 2018 19:26:36 +0100
REM compiler GCC version 9.2.1 20190827 (Red Hat 9.2.1-1)
REM options -cpp -mtune=generic -march=x86-64 -g -O0 -fpre-include=/usr/include/finclude/math-vector-fortran.h
REM seed -828699319 -1722051229 1743606717 1249607355 -313423327 2103251309 -1949200621 385410455 -543952328 -296379764 1913669074 -47549155 -816621757 -157643719 195549206 -1323535145 -1780416810 1529059206 -1709951403 1038611034 -1302246318 1081548615 -299820745 774980928 -1386801331 1676860941 -1398031263 1913698448 1675361501 -1417217228 -1863434569 1082384392 708686228
REM
CELL 1.54180   50.00000   50.00000   50.00000   90.00000   90.00000   90.00000
LATT -1
SFAC C  
C      1  0.5551960000000  0.4974500000000  0.5007580000000 1.0
C      1  0.4500420000000  0.4974500000000  0.5007580000000 1.0
C      1  0.4761120000000  0.4974500000000  0.5007580000000 1.0
C      1  0.5291250000000  0.4974500000000  0.5007580000000 1.0
C      1  0.5026190000000  0.4974500000000  0.5007580000000 1.0
END
