TITL C-3201375-1262-913 2.23412201259513e-07 125000 -90.9762141193115 0 0 15 (1) n - 1
REM
REM in /home/nfs/bkarasulu/CARBON/AIRSS/Generating-Clusters/LCBOP/Higher-Symm/SD-CG/FIRE-CG
REM
REM
REM
REM
REM
REM ./C.cell (b20cbc046b6831c77cfcea5457e17084)
REM AIRSS Version 0.9.1 bugfix July 2018 build 013d7b7c2542+ Fri, 06 Jul 2018 19:26:36 +0100
REM compiler GCC version 9.2.1 20190827 (Red Hat 9.2.1-1)
REM options -cpp -mtune=generic -march=x86-64 -g -O0 -fpre-include=/usr/include/finclude/math-vector-fortran.h
REM seed 786816806 405115702 -708014030 736945912 -1242038448 857907784 -1188693764 1959419538 231009102 390091019 -1103498244 -630044390 1695291038 -288820770 443559890 720244525 -1688050554 -753680158 739502931 1406933614 860217688 1383057862 1584790521 -1546517822 306702747 -1386675731 -216026614 -437251094 558885552 -2078872630 -1671011119 -896592361 836295313
REM
CELL 1.54180   50.00000   50.00000   50.00000   90.00000   90.00000   90.00000
LATT -1
SFAC C  
C      1  0.5003850000000  0.4740200000000  0.4416490000000 1.0
C      1  0.5003850000000  0.5635230000000  0.5066770000000 1.0
C      1  0.5003850000000  0.4624560000000  0.5516750000000 1.0
C      1  0.5003850000000  0.5259800000000  0.4416490000000 1.0
C      1  0.5003850000000  0.4364770000000  0.5066770000000 1.0
C      1  0.5003850000000  0.5375440000000  0.5516750000000 1.0
C      1  0.5003850000000  0.5132800000000  0.5624780000000 1.0
C      1  0.5003850000000  0.4392530000000  0.4802620000000 1.0
C      1  0.5003850000000  0.5474670000000  0.4572600000000 1.0
C      1  0.5003850000000  0.4867200000000  0.5624780000000 1.0
C      1  0.5003850000000  0.5607470000000  0.4802620000000 1.0
C      1  0.5003850000000  0.4525330000000  0.4572600000000 1.0
C      1  0.5003850000000  0.5553160000000  0.5319370000000 1.0
C      1  0.5003850000000  0.4446840000000  0.5319370000000 1.0
C      1  0.5003850000000  0.5000000000000  0.4361270000000 1.0
END
