TITL C-3201377-4638-1519 -2.63479693306823e-05 125000 -320.521074462447 0 0 54 (C1) n - 1
REM
REM in /home/nfs/bkarasulu/CARBON/AIRSS/Generating-Clusters/LCBOP/Higher-Symm/SD-CG/FIRE-CG
REM
REM
REM
REM
REM
REM ./C.cell (b20cbc046b6831c77cfcea5457e17084)
REM AIRSS Version 0.9.1 bugfix July 2018 build 013d7b7c2542+ Fri, 06 Jul 2018 19:26:36 +0100
REM compiler GCC version 9.2.1 20190827 (Red Hat 9.2.1-1)
REM options -cpp -mtune=generic -march=x86-64 -g -O0 -fpre-include=/usr/include/finclude/math-vector-fortran.h
REM seed -1955310714 339585472 1949092672 -1238102716 -2031735142 1880355832 -1620287877 -2100919354 -584028396 -1894140178 -397181823 -658446268 -920146976 -1039712315 -154252483 -840590904 -999371229 -259666738 184947909 2115281555 1293476649 466354940 1564042454 763171096 2085593770 -162183973 1587552540 -230368249 1936482934 1387281321 -946134260 -2060713610 2038180242
REM
CELL 1.54180   50.00000   50.00000   50.00000   90.00000   90.00000   90.00000
LATT -1
SFAC C  
C      1  0.5351690000000  0.4490330000000  0.4795460000000 1.0
C      1  0.5155600000000  0.4523380000000  0.5436370000000 1.0
C      1  0.4560190000000  0.4505790000000  0.5191740000000 1.0
C      1  0.4881660000000  0.4480340000000  0.4602020000000 1.0
C      1  0.4650530000000  0.5419970000000  0.4806920000000 1.0
C      1  0.4856720000000  0.5534240000000  0.5337650000000 1.0
C      1  0.5334140000000  0.5561960000000  0.5171160000000 1.0
C      1  0.5166440000000  0.5500220000000  0.4536210000000 1.0
C      1  0.4703170000000  0.5025290000000  0.5074090000000 1.0
C      1  0.5116230000000  0.4921910000000  0.4773690000000 1.0
C      1  0.5007380000000  0.4715540000000  0.4949010000000 1.0
C      1  0.4895070000000  0.4842650000000  0.5170700000000 1.0
C      1  0.5102210000000  0.5176690000000  0.4893860000000 1.0
C      1  0.4831640000000  0.5238590000000  0.4926490000000 1.0
C      1  0.5102190000000  0.4972080000000  0.5309760000000 1.0
C      1  0.5229450000000  0.5142800000000  0.5147170000000 1.0
C      1  0.5528570000000  0.5271570000000  0.5558590000000 1.0
C      1  0.4446240000000  0.5308440000000  0.5496690000000 1.0
C      1  0.4472990000000  0.5237550000000  0.4394590000000 1.0
C      1  0.5587170000000  0.5279500000000  0.4486600000000 1.0
C      1  0.4453760000000  0.4794040000000  0.5569480000000 1.0
C      1  0.5573200000000  0.4761390000000  0.5491710000000 1.0
C      1  0.5549170000000  0.4767090000000  0.4417220000000 1.0
C      1  0.4472520000000  0.4727230000000  0.4460050000000 1.0
C      1  0.5040190000000  0.5395240000000  0.5536370000000 1.0
C      1  0.4446640000000  0.5426590000000  0.5018240000000 1.0
C      1  0.4942420000000  0.5363490000000  0.4420010000000 1.0
C      1  0.5488320000000  0.5427100000000  0.4941920000000 1.0
C      1  0.4914650000000  0.4636380000000  0.5561510000000 1.0
C      1  0.5485940000000  0.4635110000000  0.5026080000000 1.0
C      1  0.5074100000000  0.4606070000000  0.4406280000000 1.0
C      1  0.4496150000000  0.4641190000000  0.4940190000000 1.0
C      1  0.5633300000000  0.5169640000000  0.4991260000000 1.0
C      1  0.4974960000000  0.5161640000000  0.5694190000000 1.0
C      1  0.4286250000000  0.5175550000000  0.4992060000000 1.0
C      1  0.4989910000000  0.5118200000000  0.4278690000000 1.0
C      1  0.4442970000000  0.4930370000000  0.4990900000000 1.0
C      1  0.4951360000000  0.4888270000000  0.5712140000000 1.0
C      1  0.5620750000000  0.4893920000000  0.4979090000000 1.0
C      1  0.5010990000000  0.4848940000000  0.4269600000000 1.0
C      1  0.5355340000000  0.4584260000000  0.4511810000000 1.0
C      1  0.5412300000000  0.4599400000000  0.5316210000000 1.0
C      1  0.4637160000000  0.4603400000000  0.5457090000000 1.0
C      1  0.4605290000000  0.4579780000000  0.4665810000000 1.0
C      1  0.4669990000000  0.5397300000000  0.4522410000000 1.0
C      1  0.4571720000000  0.5465290000000  0.5291910000000 1.0
C      1  0.5327070000000  0.5439750000000  0.5451490000000 1.0
C      1  0.5423110000000  0.5446520000000  0.4652380000000 1.0
C      1  0.4399400000000  0.5057560000000  0.5582400000000 1.0
C      1  0.5622350000000  0.5025240000000  0.4406810000000 1.0
C      1  0.4415510000000  0.4975410000000  0.4374700000000 1.0
C      1  0.5608710000000  0.5015120000000  0.5574690000000 1.0
C      1  0.5053020000000  0.5660300000000  0.5151620000000 1.0
C      1  0.5057730000000  0.4461100000000  0.4839350000000 1.0
END
