TITL C-3201379-3821-1113 44896.297357497 125000 -648.795187186899 0 0 111 (C1) n - 1
REM
REM in /home/nfs/bkarasulu/CARBON/AIRSS/Generating-Clusters/LCBOP/Higher-Symm/SD-CG/FIRE-CG
REM
REM
REM
REM
REM
REM ./C.cell (b20cbc046b6831c77cfcea5457e17084)
REM AIRSS Version 0.9.1 bugfix July 2018 build 013d7b7c2542+ Fri, 06 Jul 2018 19:26:36 +0100
REM compiler GCC version 9.2.1 20190827 (Red Hat 9.2.1-1)
REM options -cpp -mtune=generic -march=x86-64 -g -O0 -fpre-include=/usr/include/finclude/math-vector-fortran.h
REM seed 1656354044 99317140 -622168618 -354973395 -1865097509 -403925847 2026243088 1065831480 -558069235 -562655186 -1429895371 1579689603 -624616361 -568140775 -1722256516 1114304157 317750026 1963164489 306589602 70441042 1145667349 2058540687 -1321938741 -1746193416 1119540708 681284227 -9551716 -1980452233 1127751681 -1546468054 -1225425880 1955263709 -394673096
REM
CELL 1.54180   50.00000   50.00000   50.00000   90.00000   90.00000   90.00000
LATT -1
SFAC C  
C      1  0.5438860000000  0.5022690000000  0.4103130000000 1.0
C      1  0.4816970000000  0.4576820000000  0.4128780000000 1.0
C      1  0.4800010000000  0.5380140000000  0.4027710000000 1.0
C      1  0.4898370000000  0.4272270000000  0.5521080000000 1.0
C      1  0.4422540000000  0.5502120000000  0.5569030000000 1.0
C      1  0.5674810000000  0.5310190000000  0.5571460000000 1.0
C      1  0.5963670000000  0.5085220000000  0.4855600000000 1.0
C      1  0.4539800000000  0.4037190000000  0.4870190000000 1.0
C      1  0.4386920000000  0.5822550000000  0.4813460000000 1.0
C      1  0.5562760000000  0.5553190000000  0.5202650000000 1.0
C      1  0.5171090000000  0.4206900000000  0.5123020000000 1.0
C      1  0.4359090000000  0.5258500000000  0.5181830000000 1.0
C      1  0.4801140000000  0.4418040000000  0.4842890000000 1.0
C      1  0.4712420000000  0.5527500000000  0.4922570000000 1.0
C      1  0.5502970000000  0.5019960000000  0.4918650000000 1.0
C      1  0.5354990000000  0.4476070000000  0.5409640000000 1.0
C      1  0.4256690000000  0.4970690000000  0.5492700000000 1.0
C      1  0.5208330000000  0.5617400000000  0.5483000000000 1.0
C      1  0.4663580000000  0.4836210000000  0.4071520000000 1.0
C      1  0.5073040000000  0.5359730000000  0.3953540000000 1.0
C      1  0.5298030000000  0.4776650000000  0.4085180000000 1.0
C      1  0.5650140000000  0.5052850000000  0.4284000000000 1.0
C      1  0.4803490000000  0.4318450000000  0.4294540000000 1.0
C      1  0.4713940000000  0.5616360000000  0.4168260000000 1.0
C      1  0.5600850000000  0.4379480000000  0.5231530000000 1.0
C      1  0.4133330000000  0.4856580000000  0.5242060000000 1.0
C      1  0.5266240000000  0.5968410000000  0.5128970000000 1.0
C      1  0.5149400000000  0.4277470000000  0.5393690000000 1.0
C      1  0.4299180000000  0.5261380000000  0.5460770000000 1.0
C      1  0.5502680000000  0.5539580000000  0.5488750000000 1.0
C      1  0.4612410000000  0.5313910000000  0.5080860000000 1.0
C      1  0.5490540000000  0.5281930000000  0.5080500000000 1.0
C      1  0.5066400000000  0.4359420000000  0.4905250000000 1.0
C      1  0.5127940000000  0.5583610000000  0.4730400000000 1.0
C      1  0.5251620000000  0.4476640000000  0.4713500000000 1.0
C      1  0.4466130000000  0.4899770000000  0.4705620000000 1.0
C      1  0.5015950000000  0.3938880000000  0.4794830000000 1.0
C      1  0.4078610000000  0.5522450000000  0.4951000000000 1.0
C      1  0.5775850000000  0.5517080000000  0.4797260000000 1.0
C      1  0.5596540000000  0.4862690000000  0.5820080000000 1.0
C      1  0.4628190000000  0.4570160000000  0.5824540000000 1.0
C      1  0.4871970000000  0.5537870000000  0.5803590000000 1.0
C      1  0.4650380000000  0.5127990000000  0.5765680000000 1.0
C      1  0.5091530000000  0.5117660000000  0.5640750000000 1.0
C      1  0.5133390000000  0.4562780000000  0.5870990000000 1.0
C      1  0.5512480000000  0.4800890000000  0.5112840000000 1.0
C      1  0.4477300000000  0.4729240000000  0.4939670000000 1.0
C      1  0.4983710000000  0.5624900000000  0.4997080000000 1.0
C      1  0.5076270000000  0.5324610000000  0.5844800000000 1.0
C      1  0.5365770000000  0.4705310000000  0.5890130000000 1.0
C      1  0.4625220000000  0.4863920000000  0.5902020000000 1.0
C      1  0.4428970000000  0.4380070000000  0.5364470000000 1.0
C      1  0.4782100000000  0.5834660000000  0.5376130000000 1.0
C      1  0.5864040000000  0.4836760000000  0.5393860000000 1.0
C      1  0.5926420000000  0.5293890000000  0.5032100000000 1.0
C      1  0.4755720000000  0.3988080000000  0.5042790000000 1.0
C      1  0.4278410000000  0.5720280000000  0.5060190000000 1.0
C      1  0.5813390000000  0.4756980000000  0.5665820000000 1.0
C      1  0.4413940000000  0.4441690000000  0.5660540000000 1.0
C      1  0.4957890000000  0.5718810000000  0.5596390000000 1.0
C      1  0.4778660000000  0.6020280000000  0.4433120000000 1.0
C      1  0.5859520000000  0.4627720000000  0.4440600000000 1.0
C      1  0.4315550000000  0.4260680000000  0.4311670000000 1.0
C      1  0.5231740000000  0.4966750000000  0.4818960000000 1.0
C      1  0.4744000000000  0.4647600000000  0.4984770000000 1.0
C      1  0.5016720000000  0.5126420000000  0.4875480000000 1.0
C      1  0.5738950000000  0.4646380000000  0.5200920000000 1.0
C      1  0.4296560000000  0.4628490000000  0.5147510000000 1.0
C      1  0.4976010000000  0.5898430000000  0.5137730000000 1.0
C      1  0.4690570000000  0.5761280000000  0.4416490000000 1.0
C      1  0.5750910000000  0.4873370000000  0.4468490000000 1.0
C      1  0.4557490000000  0.4279500000000  0.4434800000000 1.0
C      1  0.5384430000000  0.5636430000000  0.4651180000000 1.0
C      1  0.5318870000000  0.4241780000000  0.4553470000000 1.0
C      1  0.4308520000000  0.5155070000000  0.4658200000000 1.0
C      1  0.5850900000000  0.5166030000000  0.5349040000000 1.0
C      1  0.4679850000000  0.4196860000000  0.5327460000000 1.0
C      1  0.4483840000000  0.5717680000000  0.5353150000000 1.0
C      1  0.5573720000000  0.5328190000000  0.4538020000000 1.0
C      1  0.5043170000000  0.4136750000000  0.4480940000000 1.0
C      1  0.4494240000000  0.5349360000000  0.4551860000000 1.0
C      1  0.4917320000000  0.4703890000000  0.5207040000000 1.0
C      1  0.4818880000000  0.5150810000000  0.5169150000000 1.0
C      1  0.5253150000000  0.5230240000000  0.5231210000000 1.0
C      1  0.4567410000000  0.5628090000000  0.4668260000000 1.0
C      1  0.5712340000000  0.5025700000000  0.4715160000000 1.0
C      1  0.4593900000000  0.4265010000000  0.4713430000000 1.0
C      1  0.4141840000000  0.5091040000000  0.5068960000000 1.0
C      1  0.5504710000000  0.5805080000000  0.5069250000000 1.0
C      1  0.5450560000000  0.4158190000000  0.5037140000000 1.0
C      1  0.5109720000000  0.5470900000000  0.5238680000000 1.0
C      1  0.5264490000000  0.4751220000000  0.5298980000000 1.0
C      1  0.4503960000000  0.4828400000000  0.5488760000000 1.0
C      1  0.4731650000000  0.4908540000000  0.4558790000000 1.0
C      1  0.5013460000000  0.5321890000000  0.4589950000000 1.0
C      1  0.5190670000000  0.4742330000000  0.4664160000000 1.0
C      1  0.4986340000000  0.4781560000000  0.4480440000000 1.0
C      1  0.4741100000000  0.5198480000000  0.4451640000000 1.0
C      1  0.5248830000000  0.5289260000000  0.4397160000000 1.0
C      1  0.4737740000000  0.4719650000000  0.5418130000000 1.0
C      1  0.4827170000000  0.5126660000000  0.5517030000000 1.0
C      1  0.5244450000000  0.5023510000000  0.5424760000000 1.0
C      1  0.4094770000000  0.5246360000000  0.4834040000000 1.0
C      1  0.5593360000000  0.5740030000000  0.4808290000000 1.0
C      1  0.5384890000000  0.4045800000000  0.4772000000000 1.0
C      1  0.4705030000000  0.5130100000000  0.4146840000000 1.0
C      1  0.5261470000000  0.5245450000000  0.4126460000000 1.0
C      1  0.5065290000000  0.4695330000000  0.4218100000000 1.0
C      1  0.4604240000000  0.5423540000000  0.5783650000000 1.0
C      1  0.5603550000000  0.5148680000000  0.5798960000000 1.0
C      1  0.4889090000000  0.4445710000000  0.5765840000000 1.0
END
