TITL C-3201378-2706-2095 -9.4085703544141e-07 125000 -663.827734772373 0 0 106 (C1) n - 1
REM
REM in /home/nfs/bkarasulu/CARBON/AIRSS/Generating-Clusters/LCBOP/Higher-Symm/SD-CG/FIRE-CG
REM
REM
REM
REM
REM
REM ./C.cell (b20cbc046b6831c77cfcea5457e17084)
REM AIRSS Version 0.9.1 bugfix July 2018 build 013d7b7c2542+ Fri, 06 Jul 2018 19:26:36 +0100
REM compiler GCC version 9.2.1 20190827 (Red Hat 9.2.1-1)
REM options -cpp -mtune=generic -march=x86-64 -g -O0 -fpre-include=/usr/include/finclude/math-vector-fortran.h
REM seed -1399234452 95853198 487627334 368370355 -2104166019 703297083 -895424222 800514765 1344326756 -2139381245 560828263 -2071764030 1628963753 676711210 968873980 393600927 -821086229 -877411197 -13311407 1745085686 1861147573 2049243065 -1008126040 645694476 1700672532 1130618448 -1577946311 -1023024890 -1913770437 -1960510310 -511830095 1130853608 590017970
REM
CELL 1.54180   50.00000   50.00000   50.00000   90.00000   90.00000   90.00000
LATT -1
SFAC C  
C      1  0.4849450000000  0.4788460000000  0.4701340000000 1.0
C      1  0.5130200000000  0.4844310000000  0.5325940000000 1.0
C      1  0.4850350000000  0.4828000000000  0.5344050000000 1.0
C      1  0.5109000000000  0.4871470000000  0.4650880000000 1.0
C      1  0.5498280000000  0.4359190000000  0.4580710000000 1.0
C      1  0.4443300000000  0.4331400000000  0.5428370000000 1.0
C      1  0.5499280000000  0.4340930000000  0.5367690000000 1.0
C      1  0.4462950000000  0.4284140000000  0.4642750000000 1.0
C      1  0.5523750000000  0.4575460000000  0.5219890000000 1.0
C      1  0.4455160000000  0.4530140000000  0.4771360000000 1.0
C      1  0.5522270000000  0.4598000000000  0.4720930000000 1.0
C      1  0.4438830000000  0.4559810000000  0.5269260000000 1.0
C      1  0.5788860000000  0.4442860000000  0.6156040000000 1.0
C      1  0.4223380000000  0.4335050000000  0.4015650000000 1.0
C      1  0.5835680000000  0.4555630000000  0.3846650000000 1.0
C      1  0.4187980000000  0.4485000000000  0.6192790000000 1.0
C      1  0.4405080000000  0.5302770000000  0.5408420000000 1.0
C      1  0.5600750000000  0.5341070000000  0.4576670000000 1.0
C      1  0.4443710000000  0.5328620000000  0.4563140000000 1.0
C      1  0.5606510000000  0.5301650000000  0.5423810000000 1.0
C      1  0.5781610000000  0.5663730000000  0.5158010000000 1.0
C      1  0.4244570000000  0.5665720000000  0.4854510000000 1.0
C      1  0.5781770000000  0.5677240000000  0.4870370000000 1.0
C      1  0.4235590000000  0.5662800000000  0.5140640000000 1.0
C      1  0.4846720000000  0.4055340000000  0.5588610000000 1.0
C      1  0.5121890000000  0.4028240000000  0.4452100000000 1.0
C      1  0.4857660000000  0.4003280000000  0.4470010000000 1.0
C      1  0.5111960000000  0.4061070000000  0.5568470000000 1.0
C      1  0.4610050000000  0.4676380000000  0.4171010000000 1.0
C      1  0.5408860000000  0.4707800000000  0.5880680000000 1.0
C      1  0.4571850000000  0.4721500000000  0.5898040000000 1.0
C      1  0.5415360000000  0.4747060000000  0.4123610000000 1.0
C      1  0.4749190000000  0.4990310000000  0.5564350000000 1.0
C      1  0.5192480000000  0.5045180000000  0.4423630000000 1.0
C      1  0.4686600000000  0.5141800000000  0.4125200000000 1.0
C      1  0.5242270000000  0.4993300000000  0.5550760000000 1.0
C      1  0.5762520000000  0.4703310000000  0.5120260000000 1.0
C      1  0.4233980000000  0.4692820000000  0.4851500000000 1.0
C      1  0.5761740000000  0.4716050000000  0.4827220000000 1.0
C      1  0.4216000000000  0.4697350000000  0.5146130000000 1.0
C      1  0.4536380000000  0.4939400000000  0.4255160000000 1.0
C      1  0.5479710000000  0.4884430000000  0.5665830000000 1.0
C      1  0.4505800000000  0.4895990000000  0.5679860000000 1.0
C      1  0.5449170000000  0.4948640000000  0.4321740000000 1.0
C      1  0.5855380000000  0.4924160000000  0.5277120000000 1.0
C      1  0.4192820000000  0.4931740000000  0.4695550000000 1.0
C      1  0.5845400000000  0.4951260000000  0.4687930000000 1.0
C      1  0.4135330000000  0.4932750000000  0.5284460000000 1.0
C      1  0.5299230000000  0.5533950000000  0.4287270000000 1.0
C      1  0.4697860000000  0.5472350000000  0.5724340000000 1.0
C      1  0.5303720000000  0.5469240000000  0.5729550000000 1.0
C      1  0.4706610000000  0.5600940000000  0.4250520000000 1.0
C      1  0.5112600000000  0.5308060000000  0.4296390000000 1.0
C      1  0.4857510000000  0.5235280000000  0.5683930000000 1.0
C      1  0.5139790000000  0.5235480000000  0.5680330000000 1.0
C      1  0.4849740000000  0.5359480000000  0.4193510000000 1.0
C      1  0.5289330000000  0.4730090000000  0.4828950000000 1.0
C      1  0.4691030000000  0.4664520000000  0.5169990000000 1.0
C      1  0.5284110000000  0.4710860000000  0.5123770000000 1.0
C      1  0.4697760000000  0.4640810000000  0.4881190000000 1.0
C      1  0.5848920000000  0.5397070000000  0.5257740000000 1.0
C      1  0.4196050000000  0.5401890000000  0.4734290000000 1.0
C      1  0.5846300000000  0.5420400000000  0.4745990000000 1.0
C      1  0.4163010000000  0.5400530000000  0.5243350000000 1.0
C      1  0.4506430000000  0.5615870000000  0.4450340000000 1.0
C      1  0.5524760000000  0.5564830000000  0.5566490000000 1.0
C      1  0.4486680000000  0.5567120000000  0.5550200000000 1.0
C      1  0.5519620000000  0.5614370000000  0.4457790000000 1.0
C      1  0.5955130000000  0.5158140000000  0.5132580000000 1.0
C      1  0.4081410000000  0.5159960000000  0.4840120000000 1.0
C      1  0.5952350000000  0.5170780000000  0.4848150000000 1.0
C      1  0.4054290000000  0.5161160000000  0.5123170000000 1.0
C      1  0.5303470000000  0.5750540000000  0.5166010000000 1.0
C      1  0.4719420000000  0.5757120000000  0.4864170000000 1.0
C      1  0.5304630000000  0.5766850000000  0.4875830000000 1.0
C      1  0.4714630000000  0.5744540000000  0.5153990000000 1.0
C      1  0.5345480000000  0.4160960000000  0.5489280000000 1.0
C      1  0.4616890000000  0.4092940000000  0.4539350000000 1.0
C      1  0.5351780000000  0.4156370000000  0.4490510000000 1.0
C      1  0.4602260000000  0.4149230000000  0.5540620000000 1.0
C      1  0.4306440000000  0.5024240000000  0.5511060000000 1.0
C      1  0.5666650000000  0.5058630000000  0.4474100000000 1.0
C      1  0.4375340000000  0.5032690000000  0.4477520000000 1.0
C      1  0.5689800000000  0.5012440000000  0.5509870000000 1.0
C      1  0.4475870000000  0.5773710000000  0.4705590000000 1.0
C      1  0.5548990000000  0.5751330000000  0.5325380000000 1.0
C      1  0.4467090000000  0.5750780000000  0.5308610000000 1.0
C      1  0.5548760000000  0.5780940000000  0.4713660000000 1.0
C      1  0.5126520000000  0.4669710000000  0.5938630000000 1.0
C      1  0.4885130000000  0.4622900000000  0.4120350000000 1.0
C      1  0.5150390000000  0.4648150000000  0.4086430000000 1.0
C      1  0.4854400000000  0.4672230000000  0.5947040000000 1.0
C      1  0.5345600000000  0.5309480000000  0.4756730000000 1.0
C      1  0.4669910000000  0.5281130000000  0.5226110000000 1.0
C      1  0.5346740000000  0.5287070000000  0.5239920000000 1.0
C      1  0.4701020000000  0.5297470000000  0.4735640000000 1.0
C      1  0.5158020000000  0.5534500000000  0.4765340000000 1.0
C      1  0.4866130000000  0.5505750000000  0.5244370000000 1.0
C      1  0.5150470000000  0.5509160000000  0.5250230000000 1.0
C      1  0.4876520000000  0.5531040000000  0.4755590000000 1.0
C      1  0.5603480000000  0.4574540000000  0.6028740000000 1.0
C      1  0.4413820000000  0.4490930000000  0.4101490000000 1.0
C      1  0.5629150000000  0.4650450000000  0.3974190000000 1.0
C      1  0.4375640000000  0.4603320000000  0.6056060000000 1.0
C      1  0.5369490000000  0.5166320000000  0.4992130000000 1.0
C      1  0.4668370000000  0.5156650000000  0.4976420000000 1.0
END
