TITL C-3201374-830-274 2.03085880971631e-07 125000 -25.0790098697786 0 0 5 (D(inf)h) n - 1
REM
REM in /home/nfs/bkarasulu/CARBON/AIRSS/Generating-Clusters/LCBOP/Higher-Symm/SD-CG/FIRE-CG
REM
REM
REM
REM
REM
REM ./C.cell (b20cbc046b6831c77cfcea5457e17084)
REM AIRSS Version 0.9.1 bugfix July 2018 build 013d7b7c2542+ Fri, 06 Jul 2018 19:26:36 +0100
REM compiler GCC version 9.2.1 20190827 (Red Hat 9.2.1-1)
REM options -cpp -mtune=generic -march=x86-64 -g -O0 -fpre-include=/usr/include/finclude/math-vector-fortran.h
REM seed -1944649993 -968430624 -1371116812 -1448322564 -118319097 -1170394882 1902650421 -1542653123 -1663814248 810589101 841470061 1731836700 -1855007327 1492908717 641718051 6122395 146853664 -1898078794 367988473 1873630491 -1812153112 573986178 1548985200 28244920 555168792 -59187956 204334073 -1865936308 1274129762 -1797115734 -13365014 1377141729 1365323688
REM
CELL 1.54180   50.00000   50.00000   50.00000   90.00000   90.00000   90.00000
LATT -1
SFAC C  
C      1  0.5000000000000  0.4983020000000  0.5021530000000 1.0
C      1  0.4734930000000  0.4983020000000  0.5021530000000 1.0
C      1  0.5265070000000  0.4983020000000  0.5021530000000 1.0
C      1  0.4474230000000  0.4983020000000  0.5021530000000 1.0
C      1  0.5525770000000  0.4983020000000  0.5021530000000 1.0
END
