TITL C-3201378-2706-2040 1.05016386615032e-07 125000 -775.106164261986 0 0 126 (D2) n - 1
REM
REM in /home/nfs/bkarasulu/CARBON/AIRSS/Generating-Clusters/LCBOP/Higher-Symm/SD-CG/FIRE-CG
REM
REM
REM
REM
REM
REM ./C.cell (b20cbc046b6831c77cfcea5457e17084)
REM AIRSS Version 0.9.1 bugfix July 2018 build 013d7b7c2542+ Fri, 06 Jul 2018 19:26:36 +0100
REM compiler GCC version 9.2.1 20190827 (Red Hat 9.2.1-1)
REM options -cpp -mtune=generic -march=x86-64 -g -O0 -fpre-include=/usr/include/finclude/math-vector-fortran.h
REM seed 716960372 1942451979 1172744038 2015461146 1344053722 -2105429425 962646967 159324037 2038361010 728807411 1721314239 1569053795 402918677 -1412572501 1503784533 -666866798 -1297029253 596294532 -1080528203 113717782 -502834688 -269035934 1882102638 69809816 1877948632 524541296 -1025569879 693820847 1796198074 -572477310 -1406847147 1500215524 -1398966396
REM
CELL 1.54180   50.00000   50.00000   50.00000   90.00000   90.00000   90.00000
LATT -1
SFAC C  
C      1  0.5021210000000  0.4548680000000  0.4564160000000 1.0
C      1  0.4978800000000  0.4548670000000  0.5435830000000 1.0
C      1  0.4978830000000  0.5444690000000  0.4564160000000 1.0
C      1  0.5021170000000  0.5444690000000  0.5435840000000 1.0
C      1  0.5130580000000  0.5024030000000  0.5511510000000 1.0
C      1  0.4869420000000  0.5024040000000  0.4488490000000 1.0
C      1  0.4869380000000  0.4969320000000  0.5511500000000 1.0
C      1  0.5130620000000  0.4969330000000  0.4488500000000 1.0
C      1  0.4506780000000  0.5592350000000  0.5500750000000 1.0
C      1  0.5493210000000  0.5592360000000  0.4499260000000 1.0
C      1  0.5493180000000  0.4401010000000  0.5500780000000 1.0
C      1  0.4506830000000  0.4401010000000  0.4499210000000 1.0
C      1  0.4662490000000  0.6101500000000  0.5018510000000 1.0
C      1  0.5337500000000  0.6101500000000  0.4981510000000 1.0
C      1  0.5337510000000  0.3891870000000  0.5018520000000 1.0
C      1  0.4662500000000  0.3891860000000  0.4981460000000 1.0
C      1  0.4168720000000  0.5523890000000  0.4559820000000 1.0
C      1  0.5831280000000  0.5523890000000  0.5440190000000 1.0
C      1  0.5831320000000  0.4469480000000  0.4559880000000 1.0
C      1  0.4168690000000  0.4469470000000  0.5440120000000 1.0
C      1  0.4651380000000  0.5230540000000  0.4861740000000 1.0
C      1  0.5348620000000  0.5230540000000  0.5138270000000 1.0
C      1  0.5348630000000  0.4762830000000  0.4861760000000 1.0
C      1  0.4651370000000  0.4762820000000  0.5138230000000 1.0
C      1  0.5240690000000  0.4061000000000  0.5230590000000 1.0
C      1  0.4759320000000  0.4061000000000  0.4769390000000 1.0
C      1  0.4759290000000  0.5932360000000  0.5230590000000 1.0
C      1  0.5240700000000  0.5932370000000  0.4769430000000 1.0
C      1  0.5102200000000  0.5722030000000  0.4907780000000 1.0
C      1  0.4897790000000  0.5722030000000  0.5092230000000 1.0
C      1  0.4897810000000  0.4271340000000  0.4907760000000 1.0
C      1  0.5102200000000  0.4271340000000  0.5092230000000 1.0
C      1  0.4863280000000  0.4743700000000  0.4954570000000 1.0
C      1  0.5136720000000  0.4743700000000  0.5045420000000 1.0
C      1  0.5136730000000  0.5249660000000  0.4954590000000 1.0
C      1  0.4863270000000  0.5249660000000  0.5045420000000 1.0
C      1  0.4502870000000  0.4638430000000  0.4321370000000 1.0
C      1  0.5497140000000  0.4638430000000  0.5678620000000 1.0
C      1  0.5497190000000  0.5354940000000  0.4321420000000 1.0
C      1  0.4502810000000  0.5354930000000  0.5678590000000 1.0
C      1  0.5785370000000  0.4970350000000  0.4424910000000 1.0
C      1  0.4214630000000  0.4970340000000  0.5575090000000 1.0
C      1  0.4214680000000  0.5023020000000  0.4424850000000 1.0
C      1  0.5785320000000  0.5023020000000  0.5575150000000 1.0
C      1  0.5301460000000  0.5703230000000  0.5656120000000 1.0
C      1  0.4698530000000  0.5703240000000  0.4343900000000 1.0
C      1  0.4698480000000  0.4290120000000  0.5656080000000 1.0
C      1  0.5301520000000  0.4290130000000  0.4343910000000 1.0
C      1  0.5264600000000  0.5801820000000  0.4497180000000 1.0
C      1  0.4735390000000  0.5801810000000  0.5502830000000 1.0
C      1  0.4735440000000  0.4191550000000  0.4497150000000 1.0
C      1  0.5264570000000  0.4191550000000  0.5502840000000 1.0
C      1  0.4143030000000  0.5294410000000  0.4426650000000 1.0
C      1  0.5856970000000  0.5294410000000  0.5573360000000 1.0
C      1  0.5857020000000  0.4698960000000  0.4426710000000 1.0
C      1  0.4142990000000  0.4698940000000  0.5573280000000 1.0
C      1  0.5679230000000  0.4293140000000  0.5001520000000 1.0
C      1  0.4320770000000  0.4293140000000  0.4998470000000 1.0
C      1  0.4320770000000  0.5700220000000  0.5001480000000 1.0
C      1  0.5679230000000  0.5700220000000  0.4998530000000 1.0
C      1  0.4852580000000  0.5005850000000  0.6016170000000 1.0
C      1  0.5147420000000  0.5005870000000  0.3983830000000 1.0
C      1  0.5147330000000  0.4987490000000  0.6016180000000 1.0
C      1  0.4852670000000  0.4987510000000  0.3983820000000 1.0
C      1  0.4445810000000  0.4926240000000  0.4277620000000 1.0
C      1  0.5554190000000  0.4926230000000  0.5722380000000 1.0
C      1  0.5554250000000  0.5067140000000  0.4277660000000 1.0
C      1  0.4445750000000  0.5067120000000  0.5722340000000 1.0
C      1  0.4547580000000  0.4160410000000  0.5423170000000 1.0
C      1  0.5452420000000  0.4160420000000  0.4576820000000 1.0
C      1  0.5452380000000  0.5832940000000  0.5423220000000 1.0
C      1  0.4547610000000  0.5832950000000  0.4576790000000 1.0
C      1  0.4415330000000  0.4855100000000  0.5010590000000 1.0
C      1  0.5584670000000  0.4855110000000  0.4989400000000 1.0
C      1  0.5584670000000  0.5138260000000  0.5010640000000 1.0
C      1  0.4415330000000  0.5138260000000  0.4989360000000 1.0
C      1  0.4353590000000  0.4442530000000  0.4754970000000 1.0
C      1  0.5646420000000  0.4442530000000  0.5245020000000 1.0
C      1  0.5646430000000  0.5550840000000  0.4755040000000 1.0
C      1  0.4353560000000  0.5550830000000  0.5244970000000 1.0
C      1  0.5379690000000  0.5436030000000  0.5807930000000 1.0
C      1  0.4620310000000  0.5436040000000  0.4192080000000 1.0
C      1  0.4620240000000  0.4557320000000  0.5807890000000 1.0
C      1  0.5379760000000  0.4557330000000  0.4192100000000 1.0
C      1  0.6146490000000  0.4923490000000  0.5242830000000 1.0
C      1  0.3853510000000  0.4923480000000  0.4757170000000 1.0
C      1  0.3853490000000  0.5069870000000  0.5242740000000 1.0
C      1  0.6146510000000  0.5069880000000  0.4757260000000 1.0
C      1  0.5245660000000  0.5185090000000  0.3793480000000 1.0
C      1  0.4754340000000  0.5185070000000  0.6206520000000 1.0
C      1  0.4754440000000  0.4808290000000  0.3793460000000 1.0
C      1  0.5245560000000  0.4808270000000  0.6206540000000 1.0
C      1  0.5361850000000  0.3942620000000  0.4747430000000 1.0
C      1  0.4638160000000  0.3942620000000  0.5252550000000 1.0
C      1  0.4638170000000  0.6050740000000  0.4747420000000 1.0
C      1  0.5361820000000  0.6050740000000  0.5252600000000 1.0
C      1  0.5718130000000  0.4716160000000  0.5199700000000 1.0
C      1  0.4281870000000  0.4716160000000  0.4800300000000 1.0
C      1  0.4281850000000  0.5277200000000  0.5199650000000 1.0
C      1  0.5718150000000  0.5277210000000  0.4800360000000 1.0
C      1  0.5897740000000  0.5128680000000  0.4637350000000 1.0
C      1  0.4102260000000  0.5128670000000  0.5362660000000 1.0
C      1  0.4102290000000  0.4864690000000  0.4637270000000 1.0
C      1  0.5897710000000  0.4864690000000  0.5362730000000 1.0
C      1  0.5364990000000  0.4866910000000  0.4138270000000 1.0
C      1  0.4635010000000  0.4866890000000  0.5861730000000 1.0
C      1  0.4635080000000  0.5126470000000  0.4138240000000 1.0
C      1  0.5364920000000  0.5126460000000  0.5861760000000 1.0
C      1  0.5141540000000  0.5469140000000  0.4786120000000 1.0
C      1  0.4858460000000  0.5469130000000  0.5213890000000 1.0
C      1  0.4858480000000  0.4524230000000  0.4786100000000 1.0
C      1  0.5141520000000  0.4524230000000  0.5213900000000 1.0
C      1  0.5009960000000  0.4308410000000  0.4404110000000 1.0
C      1  0.4990040000000  0.4308400000000  0.5595880000000 1.0
C      1  0.4990090000000  0.5684960000000  0.4404120000000 1.0
C      1  0.5009910000000  0.5684950000000  0.5595890000000 1.0
C      1  0.4763780000000  0.4738410000000  0.5397760000000 1.0
C      1  0.5236220000000  0.4738420000000  0.4602230000000 1.0
C      1  0.5236180000000  0.5254950000000  0.5397790000000 1.0
C      1  0.4763810000000  0.5254950000000  0.4602220000000 1.0
C      1  0.4332750000000  0.4302010000000  0.5287390000000 1.0
C      1  0.5667250000000  0.4302020000000  0.4712600000000 1.0
C      1  0.5667230000000  0.5691350000000  0.5287460000000 1.0
C      1  0.4332770000000  0.5691350000000  0.4712550000000 1.0
C      1  0.3764650000000  0.4996680000000  0.4999950000000 1.0
C      1  0.6235350000000  0.4996690000000  0.5000050000000 1.0
END
