TITL C-3201375-1262-577 -25627.2032107096 125000 -814.980448827506 0 0 138 (C1) n - 1
REM
REM in /home/nfs/bkarasulu/CARBON/AIRSS/Generating-Clusters/LCBOP/Higher-Symm/SD-CG/FIRE-CG
REM
REM
REM
REM
REM
REM ./C.cell (b20cbc046b6831c77cfcea5457e17084)
REM AIRSS Version 0.9.1 bugfix July 2018 build 013d7b7c2542+ Fri, 06 Jul 2018 19:26:36 +0100
REM compiler GCC version 9.2.1 20190827 (Red Hat 9.2.1-1)
REM options -cpp -mtune=generic -march=x86-64 -g -O0 -fpre-include=/usr/include/finclude/math-vector-fortran.h
REM seed -574322535 -1522691601 -1153365395 -1557711277 405516379 -886237015 288637975 543848980 -1345899015 1228308450 1339229390 -2011125083 1233117521 783105965 -1108187844 -187925918 778752288 1033254794 821517432 502628869 -74550522 855910162 296909604 -267898539 1691934717 -1850491260 -193543852 -321065916 2064901730 -638004005 2031138028 -1234328150 -1070954536
REM
CELL 1.54180   50.00000   50.00000   50.00000   90.00000   90.00000   90.00000
LATT -1
SFAC C  
C      1  0.6009960000000  0.5172660000000  0.5243210000000 1.0
C      1  0.6240980000000  0.5118160000000  0.5351080000000 1.0
C      1  0.5489090000000  0.4921000000000  0.4669840000000 1.0
C      1  0.5321230000000  0.5125890000000  0.4729210000000 1.0
C      1  0.4672420000000  0.4602520000000  0.5941650000000 1.0
C      1  0.4889020000000  0.5349750000000  0.5915040000000 1.0
C      1  0.4087110000000  0.4758610000000  0.4681950000000 1.0
C      1  0.4121020000000  0.5060280000000  0.4651450000000 1.0
C      1  0.3847560000000  0.4204480000000  0.5129910000000 1.0
C      1  0.4198870000000  0.5611030000000  0.4758010000000 1.0
C      1  0.5600450000000  0.4157720000000  0.4719920000000 1.0
C      1  0.5654580000000  0.5809210000000  0.4887630000000 1.0
C      1  0.4934510000000  0.5633370000000  0.5777220000000 1.0
C      1  0.4809360000000  0.4364350000000  0.5839550000000 1.0
C      1  0.4352960000000  0.5702430000000  0.5248870000000 1.0
C      1  0.4306230000000  0.4270560000000  0.5260090000000 1.0
C      1  0.4835610000000  0.5888570000000  0.5600000000000 1.0
C      1  0.4713790000000  0.4114060000000  0.5696910000000 1.0
C      1  0.5559230000000  0.4344420000000  0.5798090000000 1.0
C      1  0.5671510000000  0.5593430000000  0.5601490000000 1.0
C      1  0.4281390000000  0.4571900000000  0.4656830000000 1.0
C      1  0.4370360000000  0.5165640000000  0.4582120000000 1.0
C      1  0.5922130000000  0.5143580000000  0.4571490000000 1.0
C      1  0.5951010000000  0.4843450000000  0.4543890000000 1.0
C      1  0.4775420000000  0.5512040000000  0.5392310000000 1.0
C      1  0.4732390000000  0.4423390000000  0.5392430000000 1.0
C      1  0.4439010000000  0.4461630000000  0.4458960000000 1.0
C      1  0.4404190000000  0.5652380000000  0.4543200000000 1.0
C      1  0.4670440000000  0.5633560000000  0.4927540000000 1.0
C      1  0.4667920000000  0.4287270000000  0.4876430000000 1.0
C      1  0.5154500000000  0.4770710000000  0.3998080000000 1.0
C      1  0.5147440000000  0.5358210000000  0.4015240000000 1.0
C      1  0.5396460000000  0.4786990000000  0.4442720000000 1.0
C      1  0.5243080000000  0.5278530000000  0.4481170000000 1.0
C      1  0.4512600000000  0.4831130000000  0.5356490000000 1.0
C      1  0.4572910000000  0.5078780000000  0.5422070000000 1.0
C      1  0.4682180000000  0.3984660000000  0.5368430000000 1.0
C      1  0.4801140000000  0.5967840000000  0.5263820000000 1.0
C      1  0.5808650000000  0.5712880000000  0.5387960000000 1.0
C      1  0.5801770000000  0.4212240000000  0.5802560000000 1.0
C      1  0.5795150000000  0.5235810000000  0.5075940000000 1.0
C      1  0.5632430000000  0.4787890000000  0.4875980000000 1.0
C      1  0.6032970000000  0.4091970000000  0.5802560000000 1.0
C      1  0.5758910000000  0.5830800000000  0.5151290000000 1.0
C      1  0.4869080000000  0.4934040000000  0.4417830000000 1.0
C      1  0.4956540000000  0.5195700000000  0.4472260000000 1.0
C      1  0.4168280000000  0.5549990000000  0.5056770000000 1.0
C      1  0.4049020000000  0.4381550000000  0.5193610000000 1.0
C      1  0.5325890000000  0.4519680000000  0.5145960000000 1.0
C      1  0.5302290000000  0.5470300000000  0.5127710000000 1.0
C      1  0.5084740000000  0.5082570000000  0.4911050000000 1.0
C      1  0.5043900000000  0.4783570000000  0.4890850000000 1.0
C      1  0.4567140000000  0.5498250000000  0.4320650000000 1.0
C      1  0.4591490000000  0.4610910000000  0.4247600000000 1.0
C      1  0.4602050000000  0.4246900000000  0.4568880000000 1.0
C      1  0.4619720000000  0.5797910000000  0.4677490000000 1.0
C      1  0.5859020000000  0.5321550000000  0.4812430000000 1.0
C      1  0.5852360000000  0.4646620000000  0.4760530000000 1.0
C      1  0.3909400000000  0.4786480000000  0.4952450000000 1.0
C      1  0.3971820000000  0.5120760000000  0.4898110000000 1.0
C      1  0.4985720000000  0.6094980000000  0.5069200000000 1.0
C      1  0.4940780000000  0.3886430000000  0.5313560000000 1.0
C      1  0.4101240000000  0.4724160000000  0.5649980000000 1.0
C      1  0.4104850000000  0.5295140000000  0.5606910000000 1.0
C      1  0.4856720000000  0.4211170000000  0.4412660000000 1.0
C      1  0.4873400000000  0.5859150000000  0.4549900000000 1.0
C      1  0.4544440000000  0.5350080000000  0.5018290000000 1.0
C      1  0.4549370000000  0.4587880000000  0.4936510000000 1.0
C      1  0.5434480000000  0.5737110000000  0.5677080000000 1.0
C      1  0.5305000000000  0.4233070000000  0.5861170000000 1.0
C      1  0.4584800000000  0.5834490000000  0.5133960000000 1.0
C      1  0.4527560000000  0.4117100000000  0.5142230000000 1.0
C      1  0.4444170000000  0.4385170000000  0.5493140000000 1.0
C      1  0.4486140000000  0.5582820000000  0.5483470000000 1.0
C      1  0.5786510000000  0.4372510000000  0.4651140000000 1.0
C      1  0.5785650000000  0.5598460000000  0.4729910000000 1.0
C      1  0.5398570000000  0.5948370000000  0.4814260000000 1.0
C      1  0.5352300000000  0.4057990000000  0.4641670000000 1.0
C      1  0.4642110000000  0.4873990000000  0.5974860000000 1.0
C      1  0.4685390000000  0.5146390000000  0.5969000000000 1.0
C      1  0.5479070000000  0.5682460000000  0.4388160000000 1.0
C      1  0.5477010000000  0.4374560000000  0.4308890000000 1.0
C      1  0.4012650000000  0.4851430000000  0.5411970000000 1.0
C      1  0.4028970000000  0.5144160000000  0.5378980000000 1.0
C      1  0.4279510000000  0.4522600000000  0.5676320000000 1.0
C      1  0.4310670000000  0.5459420000000  0.5664330000000 1.0
C      1  0.4842360000000  0.4430910000000  0.4202490000000 1.0
C      1  0.4848710000000  0.5670660000000  0.4298060000000 1.0
C      1  0.4721200000000  0.5256180000000  0.5251160000000 1.0
C      1  0.4680360000000  0.4645940000000  0.5209300000000 1.0
C      1  0.3981300000000  0.4666840000000  0.5191340000000 1.0
C      1  0.4038340000000  0.5285160000000  0.5119890000000 1.0
C      1  0.5746540000000  0.5084570000000  0.5705750000000 1.0
C      1  0.5707110000000  0.4821110000000  0.5715990000000 1.0
C      1  0.4868520000000  0.5240160000000  0.4745650000000 1.0
C      1  0.4852750000000  0.4785030000000  0.4660060000000 1.0
C      1  0.4932340000000  0.5517690000000  0.4845410000000 1.0
C      1  0.4984570000000  0.4287750000000  0.4844800000000 1.0
C      1  0.5110610000000  0.4806880000000  0.5448140000000 1.0
C      1  0.5162410000000  0.5095070000000  0.5424510000000 1.0
C      1  0.5333650000000  0.4524440000000  0.4519550000000 1.0
C      1  0.5314430000000  0.5548060000000  0.4583200000000 1.0
C      1  0.5089670000000  0.4415530000000  0.5813490000000 1.0
C      1  0.5196420000000  0.5573910000000  0.5622040000000 1.0
C      1  0.5516100000000  0.4619840000000  0.5724370000000 1.0
C      1  0.5597360000000  0.5313400000000  0.5650390000000 1.0
C      1  0.5038090000000  0.5207700000000  0.3803560000000 1.0
C      1  0.5044050000000  0.4936390000000  0.3797110000000 1.0
C      1  0.5004170000000  0.5165570000000  0.5192080000000 1.0
C      1  0.4956990000000  0.4742320000000  0.5189970000000 1.0
C      1  0.5745650000000  0.5592170000000  0.4437080000000 1.0
C      1  0.5761840000000  0.4427790000000  0.4353150000000 1.0
C      1  0.5213900000000  0.5554220000000  0.4859680000000 1.0
C      1  0.5189430000000  0.4520310000000  0.4850860000000 1.0
C      1  0.5090580000000  0.5564370000000  0.5338580000000 1.0
C      1  0.5088360000000  0.4345270000000  0.5319490000000 1.0
C      1  0.5522140000000  0.5186640000000  0.5148490000000 1.0
C      1  0.5506910000000  0.4816030000000  0.5125030000000 1.0
C      1  0.5163260000000  0.4906440000000  0.5930090000000 1.0
C      1  0.5139760000000  0.5186700000000  0.5889040000000 1.0
C      1  0.5096490000000  0.5985730000000  0.4802570000000 1.0
C      1  0.5073360000000  0.4132770000000  0.4605080000000 1.0
C      1  0.4625260000000  0.4915390000000  0.4256110000000 1.0
C      1  0.4495590000000  0.5194410000000  0.4315940000000 1.0
C      1  0.5311090000000  0.5198370000000  0.4200420000000 1.0
C      1  0.5325980000000  0.4908590000000  0.4190730000000 1.0
C      1  0.5291020000000  0.5276390000000  0.5644750000000 1.0
C      1  0.5204450000000  0.4688340000000  0.5720690000000 1.0
C      1  0.4612860000000  0.4847750000000  0.4806770000000 1.0
C      1  0.4578950000000  0.5152420000000  0.4800430000000 1.0
C      1  0.5069180000000  0.6351360000000  0.5133820000000 1.0
C      1  0.5139280000000  0.4069690000000  0.5322390000000 1.0
C      1  0.5318740000000  0.5773150000000  0.4173760000000 1.0
C      1  0.5310110000000  0.4328490000000  0.4086360000000 1.0
C      1  0.5910870000000  0.4674670000000  0.4303820000000 1.0
C      1  0.5867410000000  0.5337470000000  0.4352550000000 1.0
C      1  0.5081290000000  0.4499120000000  0.4053420000000 1.0
C      1  0.5078420000000  0.5621170000000  0.4118310000000 1.0
END
