TITL C-3201373-1215-611 -3.95317249870045e-07 125000 -172.68086744787 0 0 30 (C3) n - 1
REM
REM in /home/nfs/bkarasulu/CARBON/AIRSS/Generating-Clusters/LCBOP/Higher-Symm/SD-CG/FIRE-CG
REM
REM
REM
REM
REM
REM ./C.cell (b20cbc046b6831c77cfcea5457e17084)
REM AIRSS Version 0.9.1 bugfix July 2018 build 013d7b7c2542+ Fri, 06 Jul 2018 19:26:36 +0100
REM compiler GCC version 9.2.1 20190827 (Red Hat 9.2.1-1)
REM options -cpp -mtune=generic -march=x86-64 -g -O0 -fpre-include=/usr/include/finclude/math-vector-fortran.h
REM seed -170725382 -1673732851 -1588047703 -2146874692 338286856 -1373740397 -119899799 -2003620235 1167773877 -620741304 1076391758 339882329 1743912154 1517741812 -892860459 439121006 -974469925 565714656 481766817 -1148776659 1481886126 696630215 1258121127 1490290097 442912147 -399245170 -1217139318 1014276025 -814580991 1866701819 -1635388503 981857561 -2110722523
REM
CELL 1.54180   50.00000   50.00000   50.00000   90.00000   90.00000   90.00000
LATT -1
SFAC C  
C      1  0.4954890000000  0.4389390000000  0.5368680000000 1.0
C      1  0.4954830000000  0.5609210000000  0.5334960000000 1.0
C      1  0.4954910000000  0.4970090000000  0.4295420000000 1.0
C      1  0.5037040000000  0.4389440000000  0.4630630000000 1.0
C      1  0.5036980000000  0.5609250000000  0.4664500000000 1.0
C      1  0.5036960000000  0.4970010000000  0.5703950000000 1.0
C      1  0.5642590000000  0.5213100000000  0.4835700000000 1.0
C      1  0.5642610000000  0.4735800000000  0.4888180000000 1.0
C      1  0.5642580000000  0.5019900000000  0.5275290000000 1.0
C      1  0.4349260000000  0.5213010000000  0.5163710000000 1.0
C      1  0.4349280000000  0.4735720000000  0.5111170000000 1.0
C      1  0.4349290000000  0.5019870000000  0.4724090000000 1.0
C      1  0.5433540000000  0.5345600000000  0.4736580000000 1.0
C      1  0.5433570000000  0.4583700000000  0.4822970000000 1.0
C      1  0.5433520000000  0.5039470000000  0.5439590000000 1.0
C      1  0.4558300000000  0.5345520000000  0.5262840000000 1.0
C      1  0.4558340000000  0.4583640000000  0.5176360000000 1.0
C      1  0.4558350000000  0.5039470000000  0.4559790000000 1.0
C      1  0.5155020000000  0.4554950000000  0.4813660000000 1.0
C      1  0.5154960000000  0.5045780000000  0.5469110000000 1.0
C      1  0.5154980000000  0.5368000000000  0.4716320000000 1.0
C      1  0.4836890000000  0.4554910000000  0.5185670000000 1.0
C      1  0.4836900000000  0.5045810000000  0.4530270000000 1.0
C      1  0.4836850000000  0.5367950000000  0.5283110000000 1.0
C      1  0.4995940000000  0.5133080000000  0.4751140000000 1.0
C      1  0.4995910000000  0.5133050000000  0.5248250000000 1.0
C      1  0.4995950000000  0.4702560000000  0.4999670000000 1.0
C      1  0.5686400000000  0.4989600000000  0.4999730000000 1.0
C      1  0.4305470000000  0.4989530000000  0.4999650000000 1.0
C      1  0.4995930000000  0.4989570000000  0.4999690000000 1.0
END
