TITL C-3201378-2706-242 -56.8368500631959 125000 -1062.09634242332 0 0 171 (C1) n - 1
REM
REM in /home/nfs/bkarasulu/CARBON/AIRSS/Generating-Clusters/LCBOP/Higher-Symm/SD-CG/FIRE-CG
REM
REM
REM
REM
REM
REM ./C.cell (b20cbc046b6831c77cfcea5457e17084)
REM AIRSS Version 0.9.1 bugfix July 2018 build 013d7b7c2542+ Fri, 06 Jul 2018 19:26:36 +0100
REM compiler GCC version 9.2.1 20190827 (Red Hat 9.2.1-1)
REM options -cpp -mtune=generic -march=x86-64 -g -O0 -fpre-include=/usr/include/finclude/math-vector-fortran.h
REM seed 1702302274 -251984595 884972428 1769450903 -852832712 1099057660 56998833 -641645415 -1881953058 -1492035074 -806906125 -386238785 -1695655710 2100911954 -1159084262 -627808916 725749155 -351499939 560722993 1418085237 1697358497 482977259 -2138679083 -182929331 -1865132134 -354061749 967244761 341406596 -1557083298 168131947 350829717 1435649215 1501116091
REM
CELL 1.54180   50.00000   50.00000   50.00000   90.00000   90.00000   90.00000
LATT -1
SFAC C  
C      1  0.5576160000000  0.4952220000000  0.3891440000000 1.0
C      1  0.5868250000000  0.4465680000000  0.5499760000000 1.0
C      1  0.5253280000000  0.4225550000000  0.4034110000000 1.0
C      1  0.4262190000000  0.4037980000000  0.4459720000000 1.0
C      1  0.4179090000000  0.5185780000000  0.4367770000000 1.0
C      1  0.5086640000000  0.4466060000000  0.3980010000000 1.0
C      1  0.4650360000000  0.5126660000000  0.4392200000000 1.0
C      1  0.4860910000000  0.5591590000000  0.5958630000000 1.0
C      1  0.5848900000000  0.5507380000000  0.6080660000000 1.0
C      1  0.5696540000000  0.3803820000000  0.4436030000000 1.0
C      1  0.5869300000000  0.5163250000000  0.4201110000000 1.0
C      1  0.4780800000000  0.4787210000000  0.4783600000000 1.0
C      1  0.5527990000000  0.4211780000000  0.4118940000000 1.0
C      1  0.3682670000000  0.5080420000000  0.4875980000000 1.0
C      1  0.4266760000000  0.5259300000000  0.6241600000000 1.0
C      1  0.5322730000000  0.5691270000000  0.4418370000000 1.0
C      1  0.4242800000000  0.4704080000000  0.4773130000000 1.0
C      1  0.4594470000000  0.4589620000000  0.3913210000000 1.0
C      1  0.4702580000000  0.4536020000000  0.5301570000000 1.0
C      1  0.4165180000000  0.4558690000000  0.4535210000000 1.0
C      1  0.5294830000000  0.4515890000000  0.5634580000000 1.0
C      1  0.5768550000000  0.5283040000000  0.6201710000000 1.0
C      1  0.4553690000000  0.5978990000000  0.5267470000000 1.0
C      1  0.5313340000000  0.5110350000000  0.6063680000000 1.0
C      1  0.4263430000000  0.5702730000000  0.4833310000000 1.0
C      1  0.5463630000000  0.4443810000000  0.4505200000000 1.0
C      1  0.5100910000000  0.4571340000000  0.5830840000000 1.0
C      1  0.5209610000000  0.5436240000000  0.4023770000000 1.0
C      1  0.5663410000000  0.4294870000000  0.5398090000000 1.0
C      1  0.5173950000000  0.5667600000000  0.4176940000000 1.0
C      1  0.4905150000000  0.4239090000000  0.6573430000000 1.0
C      1  0.4246180000000  0.5424650000000  0.5279350000000 1.0
C      1  0.4862360000000  0.4955790000000  0.6057180000000 1.0
C      1  0.5112490000000  0.4762750000000  0.4368960000000 1.0
C      1  0.4475600000000  0.5547360000000  0.4176450000000 1.0
C      1  0.4603500000000  0.4383720000000  0.4871060000000 1.0
C      1  0.4652440000000  0.5722830000000  0.5300180000000 1.0
C      1  0.4422060000000  0.4615170000000  0.5251860000000 1.0
C      1  0.4005930000000  0.4329360000000  0.5934540000000 1.0
C      1  0.5303280000000  0.5957810000000  0.4528680000000 1.0
C      1  0.5567500000000  0.3855700000000  0.4683930000000 1.0
C      1  0.4429350000000  0.5898310000000  0.4751230000000 1.0
C      1  0.5146210000000  0.5942460000000  0.5624630000000 1.0
C      1  0.4615460000000  0.4981520000000  0.4648590000000 1.0
C      1  0.4821330000000  0.5930270000000  0.4426410000000 1.0
C      1  0.5382000000000  0.4722530000000  0.5463420000000 1.0
C      1  0.5303390000000  0.5457700000000  0.4596900000000 1.0
C      1  0.4657140000000  0.5033530000000  0.3615390000000 1.0
C      1  0.5092790000000  0.4005640000000  0.7005540000000 1.0
C      1  0.5621950000000  0.4441910000000  0.4269630000000 1.0
C      1  0.5563980000000  0.5110980000000  0.6187300000000 1.0
C      1  0.5192070000000  0.5116740000000  0.5557360000000 1.0
C      1  0.5635680000000  0.3965550000000  0.4210580000000 1.0
C      1  0.4589160000000  0.3967510000000  0.4128110000000 1.0
C      1  0.4873870000000  0.5118530000000  0.4226710000000 1.0
C      1  0.5901600000000  0.4725810000000  0.5560500000000 1.0
C      1  0.5594630000000  0.5539540000000  0.5049890000000 1.0
C      1  0.4460600000000  0.5543420000000  0.5422580000000 1.0
C      1  0.5771090000000  0.5546450000000  0.4824590000000 1.0
C      1  0.5817800000000  0.4437670000000  0.4955690000000 1.0
C      1  0.5070830000000  0.5702490000000  0.5797600000000 1.0
C      1  0.4180640000000  0.4701680000000  0.4283610000000 1.0
C      1  0.4380470000000  0.5060440000000  0.6065030000000 1.0
C      1  0.4956350000000  0.4979200000000  0.5431040000000 1.0
C      1  0.4208160000000  0.4723110000000  0.5733910000000 1.0
C      1  0.5060630000000  0.5217980000000  0.4065890000000 1.0
C      1  0.4033910000000  0.4952630000000  0.4284530000000 1.0
C      1  0.5774070000000  0.4923720000000  0.4089800000000 1.0
C      1  0.4189550000000  0.5203800000000  0.4659400000000 1.0
C      1  0.5351200000000  0.4004850000000  0.4788190000000 1.0
C      1  0.5534250000000  0.6013460000000  0.5123500000000 1.0
C      1  0.4622340000000  0.4789060000000  0.3715290000000 1.0
C      1  0.4067600000000  0.5207300000000  0.5744680000000 1.0
C      1  0.4811760000000  0.4357640000000  0.6355770000000 1.0
C      1  0.4739020000000  0.5243610000000  0.5061340000000 1.0
C      1  0.6063870000000  0.5330460000000  0.5329100000000 1.0
C      1  0.4017670000000  0.5298750000000  0.5217220000000 1.0
C      1  0.4737670000000  0.4025400000000  0.5190730000000 1.0
C      1  0.6173400000000  0.5330290000000  0.4695290000000 1.0
C      1  0.4904420000000  0.5771520000000  0.4187000000000 1.0
C      1  0.4627690000000  0.3813040000000  0.5069560000000 1.0
C      1  0.4722870000000  0.4489730000000  0.6126400000000 1.0
C      1  0.4185970000000  0.5459790000000  0.5824460000000 1.0
C      1  0.4256400000000  0.4695300000000  0.5459140000000 1.0
C      1  0.5639230000000  0.5057860000000  0.4787830000000 1.0
C      1  0.5541580000000  0.5707130000000  0.5762620000000 1.0
C      1  0.5569250000000  0.6062090000000  0.5398320000000 1.0
C      1  0.4466650000000  0.4441860000000  0.6026310000000 1.0
C      1  0.4540580000000  0.5914940000000  0.4494060000000 1.0
C      1  0.6206990000000  0.5181090000000  0.5139790000000 1.0
C      1  0.6133600000000  0.5117670000000  0.4875710000000 1.0
C      1  0.5865560000000  0.5387600000000  0.4349250000000 1.0
C      1  0.4143210000000  0.4277220000000  0.4543350000000 1.0
C      1  0.5410700000000  0.5760390000000  0.5064140000000 1.0
C      1  0.4430940000000  0.5282970000000  0.4277780000000 1.0
C      1  0.4999730000000  0.4121380000000  0.6791280000000 1.0
C      1  0.5877740000000  0.3600090000000  0.4414870000000 1.0
C      1  0.5163140000000  0.4719170000000  0.4084620000000 1.0
C      1  0.4313160000000  0.4011660000000  0.4175200000000 1.0
C      1  0.4488890000000  0.3891620000000  0.4580230000000 1.0
C      1  0.5198840000000  0.4341200000000  0.4532840000000 1.0
C      1  0.4803470000000  0.4394660000000  0.3935950000000 1.0
C      1  0.4175930000000  0.5485060000000  0.6111340000000 1.0
C      1  0.4376010000000  0.5777750000000  0.4304660000000 1.0
C      1  0.5824180000000  0.4981900000000  0.5536700000000 1.0
C      1  0.5460860000000  0.4928890000000  0.4982200000000 1.0
C      1  0.5282430000000  0.5237630000000  0.5811640000000 1.0
C      1  0.5434730000000  0.4275990000000  0.5571580000000 1.0
C      1  0.4927660000000  0.5665120000000  0.5223370000000 1.0
C      1  0.4995250000000  0.3937150000000  0.4385440000000 1.0
C      1  0.3653660000000  0.4998950000000  0.4622220000000 1.0
C      1  0.4989250000000  0.4522630000000  0.4492410000000 1.0
C      1  0.5104760000000  0.5503260000000  0.5365400000000 1.0
C      1  0.5377260000000  0.4219850000000  0.4988230000000 1.0
C      1  0.4993740000000  0.5322630000000  0.6351250000000 1.0
C      1  0.5804980000000  0.5222810000000  0.5389420000000 1.0
C      1  0.5428970000000  0.5184170000000  0.4586990000000 1.0
C      1  0.4875480000000  0.5338800000000  0.4851610000000 1.0
C      1  0.5572670000000  0.5347410000000  0.5268720000000 1.0
C      1  0.5322430000000  0.4872460000000  0.3913710000000 1.0
C      1  0.4990130000000  0.6190670000000  0.5132440000000 1.0
C      1  0.5012470000000  0.4730420000000  0.4985080000000 1.0
C      1  0.5630800000000  0.4287350000000  0.5110620000000 1.0
C      1  0.5919820000000  0.4666640000000  0.4857870000000 1.0
C      1  0.4911610000000  0.4734450000000  0.5274590000000 1.0
C      1  0.5029940000000  0.6094810000000  0.5407410000000 1.0
C      1  0.4894900000000  0.4676600000000  0.5995920000000 1.0
C      1  0.5053140000000  0.4028280000000  0.4106940000000 1.0
C      1  0.4372040000000  0.4549160000000  0.4972750000000 1.0
C      1  0.4669320000000  0.5400890000000  0.5857890000000 1.0
C      1  0.4509000000000  0.3777020000000  0.4832740000000 1.0
C      1  0.4914640000000  0.5556690000000  0.6237300000000 1.0
C      1  0.4222160000000  0.4492420000000  0.5899960000000 1.0
C      1  0.5316220000000  0.5529840000000  0.5812390000000 1.0
C      1  0.4730400000000  0.5520750000000  0.3768470000000 1.0
C      1  0.5595270000000  0.6161260000000  0.4891730000000 1.0
C      1  0.4646750000000  0.5126840000000  0.5975160000000 1.0
C      1  0.5110780000000  0.5741400000000  0.4986910000000 1.0
C      1  0.5306760000000  0.5307370000000  0.5368320000000 1.0
C      1  0.4759500000000  0.4517980000000  0.4664680000000 1.0
C      1  0.6022190000000  0.5695230000000  0.5670850000000 1.0
C      1  0.5233270000000  0.4951870000000  0.4562640000000 1.0
C      1  0.5510880000000  0.6113120000000  0.4639070000000 1.0
C      1  0.4338950000000  0.4974110000000  0.4742310000000 1.0
C      1  0.5174820000000  0.4420870000000  0.5000940000000 1.0
C      1  0.3816720000000  0.5181320000000  0.5084750000000 1.0
C      1  0.4373160000000  0.4619520000000  0.4091040000000 1.0
C      1  0.4762670000000  0.5155830000000  0.5314350000000 1.0
C      1  0.5068200000000  0.5090530000000  0.6203890000000 1.0
C      1  0.5480800000000  0.4827380000000  0.5238880000000 1.0
C      1  0.4447740000000  0.5499870000000  0.5703590000000 1.0
C      1  0.4709280000000  0.5622790000000  0.4028580000000 1.0
C      1  0.5028370000000  0.6020430000000  0.4612470000000 1.0
C      1  0.4709530000000  0.3882280000000  0.4390800000000 1.0
C      1  0.5010330000000  0.6012440000000  0.4902200000000 1.0
C      1  0.5783620000000  0.4661750000000  0.4199940000000 1.0
C      1  0.6136180000000  0.5561540000000  0.5468380000000 1.0
C      1  0.5806880000000  0.5659270000000  0.5847860000000 1.0
C      1  0.4175700000000  0.5456650000000  0.4776610000000 1.0
C      1  0.5444110000000  0.5938810000000  0.5619510000000 1.0
C      1  0.5152960000000  0.4064790000000  0.4585600000000 1.0
C      1  0.4197720000000  0.4976940000000  0.5854160000000 1.0
C      1  0.5908140000000  0.4948030000000  0.4815740000000 1.0
C      1  0.5221980000000  0.4875890000000  0.4845950000000 1.0
C      1  0.5941260000000  0.5467590000000  0.4608940000000 1.0
C      1  0.5095290000000  0.5504120000000  0.4795560000000 1.0
C      1  0.4698260000000  0.5296860000000  0.3625820000000 1.0
C      1  0.3767020000000  0.4947620000000  0.4383210000000 1.0
C      1  0.4789960000000  0.4110030000000  0.3989110000000 1.0
C      1  0.4937820000000  0.6457400000000  0.5091480000000 1.0
C      1  0.4726730000000  0.4296450000000  0.5127790000000 1.0
END
