TITL C-3201377-4638-229 0.0101545252798678 125000 -483.845696922056 0 0 85 (C1) n - 1
REM
REM in /home/nfs/bkarasulu/CARBON/AIRSS/Generating-Clusters/LCBOP/Higher-Symm/SD-CG/FIRE-CG
REM
REM
REM
REM
REM
REM ./C.cell (b20cbc046b6831c77cfcea5457e17084)
REM AIRSS Version 0.9.1 bugfix July 2018 build 013d7b7c2542+ Fri, 06 Jul 2018 19:26:36 +0100
REM compiler GCC version 9.2.1 20190827 (Red Hat 9.2.1-1)
REM options -cpp -mtune=generic -march=x86-64 -g -O0 -fpre-include=/usr/include/finclude/math-vector-fortran.h
REM seed 1477480281 525118844 -633941195 1996941038 1087833706 -718507751 955357536 1624506165 -1954276428 -1025065368 1924545520 1747297683 1417784143 298247480 394205566 -1393567430 1873574972 -158354091 -1893086388 -98830654 1734991799 656369005 -1637335716 166135324 -195990129 -699522443 -546049094 150991735 2004822838 1231278981 -1418986620 1498956251 -979312361
REM
CELL 1.54180   50.00000   50.00000   50.00000   90.00000   90.00000   90.00000
LATT -1
SFAC C  
C      1  0.4580880000000  0.4417880000000  0.4937740000000 1.0
C      1  0.5428040000000  0.4436070000000  0.5343440000000 1.0
C      1  0.5075070000000  0.5612340000000  0.4257490000000 1.0
C      1  0.4451810000000  0.4955140000000  0.5730810000000 1.0
C      1  0.5426000000000  0.5046650000000  0.5062480000000 1.0
C      1  0.5205150000000  0.4736710000000  0.4253460000000 1.0
C      1  0.4374930000000  0.5088880000000  0.4467140000000 1.0
C      1  0.4669730000000  0.5278070000000  0.4793670000000 1.0
C      1  0.5383750000000  0.4973740000000  0.4219500000000 1.0
C      1  0.5078600000000  0.4744320000000  0.5908410000000 1.0
C      1  0.5039990000000  0.4324200000000  0.4481750000000 1.0
C      1  0.4122690000000  0.5247820000000  0.4014450000000 1.0
C      1  0.5095190000000  0.5338360000000  0.5762330000000 1.0
C      1  0.4641300000000  0.4986160000000  0.5013340000000 1.0
C      1  0.5418060000000  0.4359850000000  0.4838210000000 1.0
C      1  0.4732430000000  0.5014120000000  0.5730220000000 1.0
C      1  0.4244480000000  0.5168800000000  0.4236050000000 1.0
C      1  0.4919810000000  0.4506770000000  0.5918470000000 1.0
C      1  0.4283460000000  0.5343940000000  0.5071480000000 1.0
C      1  0.5338250000000  0.4699270000000  0.5800560000000 1.0
C      1  0.5283110000000  0.5610960000000  0.5010280000000 1.0
C      1  0.4313960000000  0.4656840000000  0.4634390000000 1.0
C      1  0.4976030000000  0.5017130000000  0.5867770000000 1.0
C      1  0.4571990000000  0.5472700000000  0.5635020000000 1.0
C      1  0.4352450000000  0.4386370000000  0.5147970000000 1.0
C      1  0.4845180000000  0.4103560000000  0.5281770000000 1.0
C      1  0.5031120000000  0.4715390000000  0.4708260000000 1.0
C      1  0.5835590000000  0.4833170000000  0.5160270000000 1.0
C      1  0.5566300000000  0.4788840000000  0.5046270000000 1.0
C      1  0.5131550000000  0.5216450000000  0.4499370000000 1.0
C      1  0.5641170000000  0.5224240000000  0.4539080000000 1.0
C      1  0.4065500000000  0.4931980000000  0.5416240000000 1.0
C      1  0.5537060000000  0.5677070000000  0.4542250000000 1.0
C      1  0.4871100000000  0.4280010000000  0.5778000000000 1.0
C      1  0.4777250000000  0.5083420000000  0.5452780000000 1.0
C      1  0.4527580000000  0.4460290000000  0.4647800000000 1.0
C      1  0.4567270000000  0.5718120000000  0.4970850000000 1.0
C      1  0.5772060000000  0.5248860000000  0.4782880000000 1.0
C      1  0.4688930000000  0.4698710000000  0.5038730000000 1.0
C      1  0.4644430000000  0.5145460000000  0.4528560000000 1.0
C      1  0.4467400000000  0.4485830000000  0.5384110000000 1.0
C      1  0.5611500000000  0.5456950000000  0.4367230000000 1.0
C      1  0.5399660000000  0.4496770000000  0.5606570000000 1.0
C      1  0.4247660000000  0.4936780000000  0.4679370000000 1.0
C      1  0.4447930000000  0.5494610000000  0.5367500000000 1.0
C      1  0.4966030000000  0.4638980000000  0.5427080000000 1.0
C      1  0.5238200000000  0.5506300000000  0.4064040000000 1.0
C      1  0.4926690000000  0.5558740000000  0.5346500000000 1.0
C      1  0.4002920000000  0.5325510000000  0.3796320000000 1.0
C      1  0.5052740000000  0.5488820000000  0.4510980000000 1.0
C      1  0.6052990000000  0.4945740000000  0.5015380000000 1.0
C      1  0.4994680000000  0.4798810000000  0.4447800000000 1.0
C      1  0.4334350000000  0.4979330000000  0.5464200000000 1.0
C      1  0.4454430000000  0.5467020000000  0.4880630000000 1.0
C      1  0.5515790000000  0.4375730000000  0.4363110000000 1.0
C      1  0.5566200000000  0.5489700000000  0.5490470000000 1.0
C      1  0.4177790000000  0.5101430000000  0.4923480000000 1.0
C      1  0.5521080000000  0.5037370000000  0.5511810000000 1.0
C      1  0.5164390000000  0.4262100000000  0.4740510000000 1.0
C      1  0.5992700000000  0.5411320000000  0.5159670000000 1.0
C      1  0.4765480000000  0.4195230000000  0.5038580000000 1.0
C      1  0.4895510000000  0.5057890000000  0.4435090000000 1.0
C      1  0.4748800000000  0.4366660000000  0.4483000000000 1.0
C      1  0.3812740000000  0.4870630000000  0.5399250000000 1.0
C      1  0.5778630000000  0.4950460000000  0.5414880000000 1.0
C      1  0.4555330000000  0.5050850000000  0.5277480000000 1.0
C      1  0.5709530000000  0.5432050000000  0.5237560000000 1.0
C      1  0.5588200000000  0.5278040000000  0.5003590000000 1.0
C      1  0.4865600000000  0.4135310000000  0.5549620000000 1.0
C      1  0.4560030000000  0.5960910000000  0.4852180000000 1.0
C      1  0.4874770000000  0.5483840000000  0.5630880000000 1.0
C      1  0.6025540000000  0.5218510000000  0.4932080000000 1.0
C      1  0.5160440000000  0.5449010000000  0.5219510000000 1.0
C      1  0.4672480000000  0.5644230000000  0.5226770000000 1.0
C      1  0.5605670000000  0.4359800000000  0.4621210000000 1.0
C      1  0.5462620000000  0.5351510000000  0.4131250000000 1.0
C      1  0.5246290000000  0.4451460000000  0.4298920000000 1.0
C      1  0.5393710000000  0.5089510000000  0.4481380000000 1.0
C      1  0.5414440000000  0.5701530000000  0.4787580000000 1.0
C      1  0.4716690000000  0.4624110000000  0.5327940000000 1.0
C      1  0.5476900000000  0.4939010000000  0.5768530000000 1.0
C      1  0.5311140000000  0.5136040000000  0.5313010000000 1.0
C      1  0.5461450000000  0.4521400000000  0.5072090000000 1.0
C      1  0.4888700000000  0.5486590000000  0.4739600000000 1.0
C      1  0.5364900000000  0.5438880000000  0.5681730000000 1.0
END
