TITL C-3201373-1215-1861 50722.1579700519 125000 -1053.82818556051 0 0 172 (C1) n - 1
REM
REM in /home/nfs/bkarasulu/CARBON/AIRSS/Generating-Clusters/LCBOP/Higher-Symm/SD-CG/FIRE-CG
REM
REM
REM
REM
REM
REM ./C.cell (b20cbc046b6831c77cfcea5457e17084)
REM AIRSS Version 0.9.1 bugfix July 2018 build 013d7b7c2542+ Fri, 06 Jul 2018 19:26:36 +0100
REM compiler GCC version 9.2.1 20190827 (Red Hat 9.2.1-1)
REM options -cpp -mtune=generic -march=x86-64 -g -O0 -fpre-include=/usr/include/finclude/math-vector-fortran.h
REM seed -404220076 -1628197188 -442847729 -767469659 -1963522840 -942698743 -1207215413 -213516314 185230120 1476046388 1620194268 -1102671482 -1881962424 406119991 -701365201 -485109981 -1259253294 -65088765 1461128655 1487462165 1891683383 1587128357 782107108 -1345745785 -1764272102 -137793476 -1159369762 555197855 -1392915121 242069079 1197680107 455338774 -1120577174
REM
CELL 1.54180   50.00000   50.00000   50.00000   90.00000   90.00000   90.00000
LATT -1
SFAC C  
C      1  0.5837210000000  0.5100070000000  0.4717570000000 1.0
C      1  0.5851920000000  0.4681590000000  0.4998080000000 1.0
C      1  0.5907740000000  0.5135670000000  0.5207810000000 1.0
C      1  0.4092410000000  0.5124680000000  0.5232760000000 1.0
C      1  0.4168010000000  0.4714530000000  0.4967700000000 1.0
C      1  0.4148100000000  0.5159120000000  0.4727540000000 1.0
C      1  0.4929150000000  0.4765820000000  0.5061770000000 1.0
C      1  0.4817930000000  0.5246610000000  0.5263320000000 1.0
C      1  0.4929340000000  0.5124150000000  0.4622400000000 1.0
C      1  0.5078330000000  0.4610180000000  0.4886050000000 1.0
C      1  0.5081350000000  0.5249110000000  0.4841060000000 1.0
C      1  0.5176690000000  0.5027980000000  0.5367420000000 1.0
C      1  0.4614980000000  0.5039980000000  0.3888050000000 1.0
C      1  0.4628460000000  0.4081180000000  0.5604350000000 1.0
C      1  0.4472660000000  0.6005680000000  0.5516080000000 1.0
C      1  0.5433810000000  0.5089890000000  0.6072500000000 1.0
C      1  0.5381000000000  0.4040520000000  0.4425470000000 1.0
C      1  0.5462560000000  0.5972070000000  0.4492020000000 1.0
C      1  0.4632030000000  0.5114260000000  0.4614850000000 1.0
C      1  0.4645770000000  0.4669320000000  0.5095960000000 1.0
C      1  0.4533130000000  0.5303580000000  0.5255020000000 1.0
C      1  0.5459440000000  0.5062130000000  0.5379820000000 1.0
C      1  0.5374230000000  0.4589960000000  0.4893370000000 1.0
C      1  0.5368590000000  0.5262560000000  0.4750820000000 1.0
C      1  0.4081560000000  0.5282350000000  0.5755200000000 1.0
C      1  0.4164530000000  0.5540640000000  0.4343770000000 1.0
C      1  0.4205080000000  0.4201140000000  0.4864190000000 1.0
C      1  0.5788870000000  0.5251440000000  0.4212640000000 1.0
C      1  0.5909640000000  0.5546550000000  0.5581680000000 1.0
C      1  0.5837810000000  0.4165610000000  0.5131860000000 1.0
C      1  0.4770270000000  0.6045220000000  0.5449650000000 1.0
C      1  0.4844370000000  0.4846800000000  0.3858220000000 1.0
C      1  0.4866500000000  0.4164710000000  0.5770580000000 1.0
C      1  0.5233920000000  0.6074080000000  0.4663670000000 1.0
C      1  0.5215920000000  0.4903320000000  0.6154870000000 1.0
C      1  0.5149670000000  0.4120430000000  0.4251790000000 1.0
C      1  0.4756040000000  0.5299950000000  0.3843210000000 1.0
C      1  0.4756740000000  0.3878990000000  0.5437750000000 1.0
C      1  0.4489510000000  0.5968060000000  0.5804480000000 1.0
C      1  0.5276060000000  0.5354480000000  0.6084110000000 1.0
C      1  0.5243310000000  0.3854490000000  0.4601200000000 1.0
C      1  0.5318400000000  0.5932920000000  0.4242260000000 1.0
C      1  0.5176700000000  0.4706040000000  0.5703370000000 1.0
C      1  0.5186520000000  0.5709360000000  0.5065280000000 1.0
C      1  0.5104540000000  0.4586900000000  0.4440750000000 1.0
C      1  0.4893980000000  0.4756530000000  0.4358070000000 1.0
C      1  0.4784860000000  0.5672520000000  0.5201870000000 1.0
C      1  0.4867950000000  0.4563710000000  0.5450170000000 1.0
C      1  0.4475500000000  0.5432640000000  0.5525810000000 1.0
C      1  0.4594570000000  0.5304560000000  0.4381070000000 1.0
C      1  0.4647990000000  0.4347390000000  0.5071440000000 1.0
C      1  0.5362230000000  0.5401750000000  0.4463860000000 1.0
C      1  0.5484470000000  0.5302800000000  0.5569560000000 1.0
C      1  0.5396600000000  0.4278980000000  0.4931440000000 1.0
C      1  0.5742610000000  0.3927260000000  0.5252550000000 1.0
C      1  0.5837670000000  0.5743070000000  0.5776160000000 1.0
C      1  0.5716810000000  0.5321530000000  0.3948800000000 1.0
C      1  0.4276120000000  0.3940530000000  0.4781240000000 1.0
C      1  0.4255760000000  0.5737750000000  0.4160370000000 1.0
C      1  0.4207620000000  0.5290180000000  0.6014310000000 1.0
C      1  0.4976260000000  0.5936370000000  0.4571150000000 1.0
C      1  0.4888730000000  0.4099130000000  0.4396310000000 1.0
C      1  0.4947590000000  0.5008510000000  0.6044460000000 1.0
C      1  0.4930210000000  0.5882450000000  0.5654160000000 1.0
C      1  0.5123400000000  0.4111810000000  0.5628270000000 1.0
C      1  0.5105320000000  0.4972310000000  0.3916870000000 1.0
C      1  0.4702230000000  0.5400290000000  0.6016430000000 1.0
C      1  0.4696360000000  0.5533070000000  0.4001220000000 1.0
C      1  0.4781340000000  0.3921090000000  0.4825620000000 1.0
C      1  0.5221510000000  0.5428720000000  0.3980940000000 1.0
C      1  0.5386160000000  0.5575450000000  0.5934940000000 1.0
C      1  0.5228770000000  0.3904090000000  0.5216250000000 1.0
C      1  0.5851430000000  0.5021170000000  0.5687110000000 1.0
C      1  0.5796240000000  0.5577290000000  0.4612000000000 1.0
C      1  0.5768570000000  0.4354940000000  0.4634540000000 1.0
C      1  0.4226750000000  0.5016580000000  0.4270570000000 1.0
C      1  0.4125600000000  0.5634940000000  0.5311660000000 1.0
C      1  0.4250640000000  0.4398260000000  0.5356370000000 1.0
C      1  0.5951460000000  0.4882980000000  0.4552550000000 1.0
C      1  0.6002630000000  0.4654230000000  0.5253590000000 1.0
C      1  0.6017760000000  0.5383920000000  0.5088500000000 1.0
C      1  0.3976870000000  0.4904500000000  0.5395890000000 1.0
C      1  0.4041990000000  0.4673780000000  0.4701590000000 1.0
C      1  0.3998890000000  0.5396100000000  0.4821650000000 1.0
C      1  0.4094540000000  0.4926520000000  0.4539180000000 1.0
C      1  0.4091810000000  0.4653400000000  0.5261560000000 1.0
C      1  0.4025040000000  0.5405440000000  0.5118870000000 1.0
C      1  0.5971580000000  0.4915590000000  0.5410670000000 1.0
C      1  0.5900250000000  0.4625900000000  0.4702280000000 1.0
C      1  0.5929170000000  0.5378900000000  0.4799530000000 1.0
C      1  0.4862960000000  0.4146850000000  0.4994960000000 1.0
C      1  0.4653590000000  0.5447610000000  0.5740890000000 1.0
C      1  0.4817990000000  0.5458140000000  0.4265100000000 1.0
C      1  0.5166090000000  0.4122390000000  0.5032870000000 1.0
C      1  0.5134280000000  0.5451300000000  0.4265460000000 1.0
C      1  0.5310650000000  0.5513800000000  0.5661000000000 1.0
C      1  0.5591570000000  0.4262390000000  0.4408620000000 1.0
C      1  0.5657560000000  0.4926310000000  0.5911890000000 1.0
C      1  0.5666320000000  0.5837960000000  0.4663650000000 1.0
C      1  0.4423890000000  0.4309870000000  0.5596710000000 1.0
C      1  0.4404460000000  0.4890720000000  0.4063990000000 1.0
C      1  0.4314470000000  0.5897420000000  0.5285090000000 1.0
C      1  0.4612340000000  0.5702050000000  0.4955630000000 1.0
C      1  0.4631310000000  0.4617800000000  0.4406630000000 1.0
C      1  0.4655800000000  0.4741900000000  0.5598990000000 1.0
C      1  0.5463780000000  0.5652510000000  0.5058630000000 1.0
C      1  0.5432930000000  0.4581300000000  0.5619090000000 1.0
C      1  0.5368080000000  0.4700360000000  0.4353920000000 1.0
C      1  0.5225410000000  0.4327290000000  0.4068170000000 1.0
C      1  0.5279050000000  0.4626630000000  0.6117940000000 1.0
C      1  0.5304200000000  0.6111350000000  0.4930920000000 1.0
C      1  0.4822360000000  0.4416340000000  0.5901770000000 1.0
C      1  0.4772380000000  0.4579920000000  0.3934020000000 1.0
C      1  0.4844020000000  0.6079190000000  0.5190600000000 1.0
C      1  0.4822420000000  0.4948480000000  0.5767240000000 1.0
C      1  0.4839170000000  0.5729970000000  0.4743240000000 1.0
C      1  0.4752210000000  0.4342530000000  0.4515230000000 1.0
C      1  0.5247780000000  0.4945260000000  0.4186900000000 1.0
C      1  0.5069060000000  0.5632680000000  0.5567170000000 1.0
C      1  0.5289750000000  0.4329830000000  0.5503620000000 1.0
C      1  0.5066970000000  0.4941800000000  0.5607280000000 1.0
C      1  0.5034520000000  0.5554070000000  0.4874300000000 1.0
C      1  0.4983210000000  0.4460670000000  0.4664280000000 1.0
C      1  0.5022280000000  0.5009900000000  0.4375660000000 1.0
C      1  0.4926440000000  0.5498610000000  0.5358860000000 1.0
C      1  0.5082290000000  0.4475220000000  0.5327530000000 1.0
C      1  0.5769050000000  0.5302440000000  0.5637490000000 1.0
C      1  0.5655620000000  0.5428250000000  0.4403020000000 1.0
C      1  0.5684950000000  0.4228400000000  0.4889970000000 1.0
C      1  0.4314480000000  0.5296710000000  0.4304760000000 1.0
C      1  0.4192030000000  0.5477880000000  0.5564150000000 1.0
C      1  0.4356820000000  0.4281640000000  0.5102010000000 1.0
C      1  0.5623710000000  0.5730900000000  0.5947750000000 1.0
C      1  0.5485690000000  0.5446610000000  0.3885530000000 1.0
C      1  0.5495570000000  0.3818330000000  0.5247770000000 1.0
C      1  0.4479630000000  0.5714370000000  0.4006270000000 1.0
C      1  0.4448250000000  0.5337180000000  0.6136530000000 1.0
C      1  0.4518090000000  0.3825530000000  0.4809450000000 1.0
C      1  0.4058450000000  0.4383680000000  0.4687880000000 1.0
C      1  0.3959430000000  0.5034760000000  0.5655860000000 1.0
C      1  0.4009600000000  0.5569760000000  0.4587920000000 1.0
C      1  0.5996020000000  0.4363320000000  0.5280620000000 1.0
C      1  0.5928490000000  0.5006080000000  0.4289120000000 1.0
C      1  0.6028080000000  0.5567140000000  0.5316150000000 1.0
C      1  0.5507910000000  0.5378590000000  0.5000140000000 1.0
C      1  0.5463980000000  0.4772110000000  0.4637700000000 1.0
C      1  0.5531610000000  0.4759100000000  0.5377100000000 1.0
C      1  0.4485230000000  0.5431180000000  0.4980080000000 1.0
C      1  0.4518680000000  0.4829380000000  0.5344090000000 1.0
C      1  0.4537990000000  0.4810880000000  0.4626330000000 1.0
C      1  0.5049650000000  0.5250140000000  0.3840820000000 1.0
C      1  0.5049450000000  0.3899680000000  0.5435890000000 1.0
C      1  0.4750990000000  0.5908960000000  0.5885010000000 1.0
C      1  0.4968720000000  0.5303280000000  0.6088140000000 1.0
C      1  0.4952530000000  0.3893810000000  0.4601280000000 1.0
C      1  0.5040460000000  0.5920410000000  0.4284840000000 1.0
C      1  0.5466230000000  0.4455090000000  0.4210240000000 1.0
C      1  0.5570720000000  0.4642840000000  0.5891740000000 1.0
C      1  0.5585520000000  0.5880140000000  0.4937870000000 1.0
C      1  0.4557220000000  0.4518100000000  0.5775500000000 1.0
C      1  0.4535220000000  0.4625600000000  0.4120500000000 1.0
C      1  0.4491080000000  0.5952650000000  0.5048710000000 1.0
C      1  0.4423550000000  0.5232600000000  0.4791080000000 1.0
C      1  0.4447130000000  0.4737740000000  0.4885450000000 1.0
C      1  0.4374720000000  0.5062810000000  0.5270140000000 1.0
C      1  0.5622890000000  0.5173840000000  0.5162320000000 1.0
C      1  0.5575740000000  0.4679630000000  0.5099500000000 1.0
C      1  0.5551320000000  0.5032660000000  0.4702570000000 1.0
C      1  0.5072300000000  0.4555430000000  0.5933330000000 1.0
C      1  0.4999280000000  0.4410970000000  0.3919680000000 1.0
C      1  0.5107870000000  0.5996440000000  0.5101440000000 1.0
C      1  0.5001620000000  0.5061320000000  0.5133440000000 1.0
END
