TITL C-3201372-1405-206 -3.63007420341001e-07 125000 -48.7316526727203 0 0 16 (Td) n - 1
REM
REM in /home/nfs/bkarasulu/CARBON/AIRSS/Generating-Clusters/LCBOP/Higher-Symm/SD-CG/FIRE-CG
REM
REM
REM
REM
REM
REM ./C.cell (b20cbc046b6831c77cfcea5457e17084)
REM AIRSS Version 0.9.1 bugfix July 2018 build 013d7b7c2542+ Fri, 06 Jul 2018 19:26:36 +0100
REM compiler GCC version 9.2.1 20190827 (Red Hat 9.2.1-1)
REM options -cpp -mtune=generic -march=x86-64 -g -O0 -fpre-include=/usr/include/finclude/math-vector-fortran.h
REM seed 1155055380 1968762272 568015366 -91683977 -510612433 1780973498 981726714 -1576903837 -1934491342 392694816 -89592741 -2055119470 -821042903 -2009685376 -427288373 -2100303059 279231040 703577822 -1955933445 -400735961 -820114050 -666225588 867381550 2004439739 951296867 -1964913251 -1367033284 -298362521 -1490029509 -516413234 -909157230 2109154254 -434555270
REM
CELL 1.54180   50.00000   50.00000   50.00000   90.00000   90.00000   90.00000
LATT -1
SFAC C  
C      1  0.5083720000000  0.5081070000000  0.4618080000000 1.0
C      1  0.5083720000000  0.4628180000000  0.5070970000000 1.0
C      1  0.5083720000000  0.4893430000000  0.5336220000000 1.0
C      1  0.4896080000000  0.5346320000000  0.5070970000000 1.0
C      1  0.4630830000000  0.5081070000000  0.5070970000000 1.0
C      1  0.4896080000000  0.5081070000000  0.5336220000000 1.0
C      1  0.4896080000000  0.4628180000000  0.4883330000000 1.0
C      1  0.5083720000000  0.5346320000000  0.4883330000000 1.0
C      1  0.5348970000000  0.4893430000000  0.5070970000000 1.0
C      1  0.5348970000000  0.5081070000000  0.4883330000000 1.0
C      1  0.4896080000000  0.4893430000000  0.4618080000000 1.0
C      1  0.4630830000000  0.4893430000000  0.4883330000000 1.0
C      1  0.4639680000000  0.5337470000000  0.5327370000000 1.0
C      1  0.5340120000000  0.5337470000000  0.4626930000000 1.0
C      1  0.5340120000000  0.4637030000000  0.5327370000000 1.0
C      1  0.4639680000000  0.4637030000000  0.4626930000000 1.0
END
