TITL C-3201373-1215-1283 -8.97527047284603e-05 125000 -944.118021885813 0 0 156 (C1) n - 1
REM
REM in /home/nfs/bkarasulu/CARBON/AIRSS/Generating-Clusters/LCBOP/Higher-Symm/SD-CG/FIRE-CG
REM
REM
REM
REM
REM
REM ./C.cell (b20cbc046b6831c77cfcea5457e17084)
REM AIRSS Version 0.9.1 bugfix July 2018 build 013d7b7c2542+ Fri, 06 Jul 2018 19:26:36 +0100
REM compiler GCC version 9.2.1 20190827 (Red Hat 9.2.1-1)
REM options -cpp -mtune=generic -march=x86-64 -g -O0 -fpre-include=/usr/include/finclude/math-vector-fortran.h
REM seed 489016962 1294417737 -181404715 -1353563626 -817541247 -1371914703 19880565 1473641762 -1326389861 829007807 1886264160 1042558909 1488059345 826657929 583400735 -370502995 -1430949626 691409568 -1318592597 1502529179 -1851505544 -454112659 -568922965 1268920164 95929568 -1509289729 -2074913670 204988377 -2143680395 -2048906037 -1840289357 -2043862972 -1608457073
REM
CELL 1.54180   50.00000   50.00000   50.00000   90.00000   90.00000   90.00000
LATT -1
SFAC C  
C      1  0.5347670000000  0.5392570000000  0.3999450000000 1.0
C      1  0.5349350000000  0.5402510000000  0.6028420000000 1.0
C      1  0.4512800000000  0.5199280000000  0.5404660000000 1.0
C      1  0.4449270000000  0.5191550000000  0.4537540000000 1.0
C      1  0.5385580000000  0.4256880000000  0.5644390000000 1.0
C      1  0.5371360000000  0.4228830000000  0.4417030000000 1.0
C      1  0.4482280000000  0.4028270000000  0.5116430000000 1.0
C      1  0.4321660000000  0.4148810000000  0.4908050000000 1.0
C      1  0.4649960000000  0.5359530000000  0.5834030000000 1.0
C      1  0.4559570000000  0.5365690000000  0.4102330000000 1.0
C      1  0.4582870000000  0.3931790000000  0.4313450000000 1.0
C      1  0.4530210000000  0.3923520000000  0.5750190000000 1.0
C      1  0.5412770000000  0.5788330000000  0.4656790000000 1.0
C      1  0.5432100000000  0.5792730000000  0.5350570000000 1.0
C      1  0.4463200000000  0.5796230000000  0.4759320000000 1.0
C      1  0.4469370000000  0.5791670000000  0.5264660000000 1.0
C      1  0.4988250000000  0.4475480000000  0.4072640000000 1.0
C      1  0.5017200000000  0.4478180000000  0.5969550000000 1.0
C      1  0.3952240000000  0.4578960000000  0.5451420000000 1.0
C      1  0.4142120000000  0.4645520000000  0.4510820000000 1.0
C      1  0.5733350000000  0.5245630000000  0.4241620000000 1.0
C      1  0.5940250000000  0.5237720000000  0.5752390000000 1.0
C      1  0.5481820000000  0.4725460000000  0.5290670000000 1.0
C      1  0.5481460000000  0.4688660000000  0.4749690000000 1.0
C      1  0.5614950000000  0.5031260000000  0.4382260000000 1.0
C      1  0.5823030000000  0.4983120000000  0.5746130000000 1.0
C      1  0.5676410000000  0.4876410000000  0.5149840000000 1.0
C      1  0.5670300000000  0.4866390000000  0.4882130000000 1.0
C      1  0.4563950000000  0.4187800000000  0.5342720000000 1.0
C      1  0.4394330000000  0.4253260000000  0.4648810000000 1.0
C      1  0.3662670000000  0.5286480000000  0.4571940000000 1.0
C      1  0.3783440000000  0.4995770000000  0.5286520000000 1.0
C      1  0.5638970000000  0.4340560000000  0.5535020000000 1.0
C      1  0.5640020000000  0.4318810000000  0.4487140000000 1.0
C      1  0.5843580000000  0.4230500000000  0.5370330000000 1.0
C      1  0.5820770000000  0.4176150000000  0.4651770000000 1.0
C      1  0.4724110000000  0.5700590000000  0.4862870000000 1.0
C      1  0.4735990000000  0.5714930000000  0.5161790000000 1.0
C      1  0.5214070000000  0.4661330000000  0.4858330000000 1.0
C      1  0.5219320000000  0.4692700000000  0.5165200000000 1.0
C      1  0.4163860000000  0.5027270000000  0.5041050000000 1.0
C      1  0.4022430000000  0.5021350000000  0.4786140000000 1.0
C      1  0.4103600000000  0.4691100000000  0.4234590000000 1.0
C      1  0.4113710000000  0.4595300000000  0.5665320000000 1.0
C      1  0.5935010000000  0.5680430000000  0.5155500000000 1.0
C      1  0.5937950000000  0.5704230000000  0.4861350000000 1.0
C      1  0.6073490000000  0.5433500000000  0.5245540000000 1.0
C      1  0.6085850000000  0.5459960000000  0.4755690000000 1.0
C      1  0.5647490000000  0.5376470000000  0.4912980000000 1.0
C      1  0.5525690000000  0.5309660000000  0.5153700000000 1.0
C      1  0.4962770000000  0.4027540000000  0.5556520000000 1.0
C      1  0.4816130000000  0.4126570000000  0.4709390000000 1.0
C      1  0.5642710000000  0.4594240000000  0.4525160000000 1.0
C      1  0.5644880000000  0.4618500000000  0.5504390000000 1.0
C      1  0.4270980000000  0.5583330000000  0.4749330000000 1.0
C      1  0.4285790000000  0.5569580000000  0.5237570000000 1.0
C      1  0.4177610000000  0.5342250000000  0.5737110000000 1.0
C      1  0.4093400000000  0.5308000000000  0.4210760000000 1.0
C      1  0.4628460000000  0.4807760000000  0.4959730000000 1.0
C      1  0.4765580000000  0.5021560000000  0.4801510000000 1.0
C      1  0.5885190000000  0.4786970000000  0.5552730000000 1.0
C      1  0.5804510000000  0.4827720000000  0.4455920000000 1.0
C      1  0.4859660000000  0.5846210000000  0.5783940000000 1.0
C      1  0.4818320000000  0.5822000000000  0.4236170000000 1.0
C      1  0.4630210000000  0.4975330000000  0.4546600000000 1.0
C      1  0.4528530000000  0.4918920000000  0.5374250000000 1.0
C      1  0.4739000000000  0.4432250000000  0.5919940000000 1.0
C      1  0.4703970000000  0.4429600000000  0.4046080000000 1.0
C      1  0.4376800000000  0.6038990000000  0.5153580000000 1.0
C      1  0.4376130000000  0.6041770000000  0.4878900000000 1.0
C      1  0.4551400000000  0.4669130000000  0.3975520000000 1.0
C      1  0.4574030000000  0.4673100000000  0.5930460000000 1.0
C      1  0.4987790000000  0.6115210000000  0.4613320000000 1.0
C      1  0.5019900000000  0.6135170000000  0.5404310000000 1.0
C      1  0.4680850000000  0.4522010000000  0.5010270000000 1.0
C      1  0.4845220000000  0.4380610000000  0.4827380000000 1.0
C      1  0.5288490000000  0.4414080000000  0.5881280000000 1.0
C      1  0.5249270000000  0.4399220000000  0.4193330000000 1.0
C      1  0.4964070000000  0.5189550000000  0.4205710000000 1.0
C      1  0.5044230000000  0.5125330000000  0.5710680000000 1.0
C      1  0.5540930000000  0.5003450000000  0.5765200000000 1.0
C      1  0.5360280000000  0.5080320000000  0.4541360000000 1.0
C      1  0.5666410000000  0.5421140000000  0.4651860000000 1.0
C      1  0.5628110000000  0.5368540000000  0.5407170000000 1.0
C      1  0.4635110000000  0.4454090000000  0.5285760000000 1.0
C      1  0.4402940000000  0.4530210000000  0.4565810000000 1.0
C      1  0.5356390000000  0.5607340000000  0.5842430000000 1.0
C      1  0.5335960000000  0.5609440000000  0.4168020000000 1.0
C      1  0.4463010000000  0.5341770000000  0.5150140000000 1.0
C      1  0.4422120000000  0.5336120000000  0.4791200000000 1.0
C      1  0.5009770000000  0.4753190000000  0.3943860000000 1.0
C      1  0.5010790000000  0.4755540000000  0.6092160000000 1.0
C      1  0.5052550000000  0.5318330000000  0.5250730000000 1.0
C      1  0.4955220000000  0.5246150000000  0.4780590000000 1.0
C      1  0.4763650000000  0.4887330000000  0.6007630000000 1.0
C      1  0.4743410000000  0.4886060000000  0.3934130000000 1.0
C      1  0.4682280000000  0.4046780000000  0.5559930000000 1.0
C      1  0.4600530000000  0.4093230000000  0.4529530000000 1.0
C      1  0.4903860000000  0.3916670000000  0.4883030000000 1.0
C      1  0.4684420000000  0.3834020000000  0.5041740000000 1.0
C      1  0.5284900000000  0.4848460000000  0.3947310000000 1.0
C      1  0.5279960000000  0.4860220000000  0.6130730000000 1.0
C      1  0.5233220000000  0.5731850000000  0.5145670000000 1.0
C      1  0.5219400000000  0.5691790000000  0.4855150000000 1.0
C      1  0.5065900000000  0.5952780000000  0.5622630000000 1.0
C      1  0.5028070000000  0.5930530000000  0.4395470000000 1.0
C      1  0.3981820000000  0.5189060000000  0.5214170000000 1.0
C      1  0.3891910000000  0.5271970000000  0.4719770000000 1.0
C      1  0.4985100000000  0.5599040000000  0.5251190000000 1.0
C      1  0.4957190000000  0.5548140000000  0.4775700000000 1.0
C      1  0.5286690000000  0.5791350000000  0.4388990000000 1.0
C      1  0.5313350000000  0.5795810000000  0.5620930000000 1.0
C      1  0.5139160000000  0.5079230000000  0.4365110000000 1.0
C      1  0.5296710000000  0.5054370000000  0.5672310000000 1.0
C      1  0.5329830000000  0.5149270000000  0.6142180000000 1.0
C      1  0.5348770000000  0.5128370000000  0.3919530000000 1.0
C      1  0.5001940000000  0.6208790000000  0.5142990000000 1.0
C      1  0.4991400000000  0.6200350000000  0.4871590000000 1.0
C      1  0.4400920000000  0.4890900000000  0.5111610000000 1.0
C      1  0.3975540000000  0.4746900000000  0.4721240000000 1.0
C      1  0.5804410000000  0.5420900000000  0.5606540000000 1.0
C      1  0.5761610000000  0.5459470000000  0.4401240000000 1.0
C      1  0.6078510000000  0.5154180000000  0.5148140000000 1.0
C      1  0.6064990000000  0.5174910000000  0.4842440000000 1.0
C      1  0.5697300000000  0.5843750000000  0.4738350000000 1.0
C      1  0.5712040000000  0.5806320000000  0.5288660000000 1.0
C      1  0.4656930000000  0.4693750000000  0.4520110000000 1.0
C      1  0.4720930000000  0.4703940000000  0.5413930000000 1.0
C      1  0.3828160000000  0.4712540000000  0.5234450000000 1.0
C      1  0.3853840000000  0.4624380000000  0.4956780000000 1.0
C      1  0.6074170000000  0.4616320000000  0.5109250000000 1.0
C      1  0.6122460000000  0.4698440000000  0.4834380000000 1.0
C      1  0.5217990000000  0.4101080000000  0.5461090000000 1.0
C      1  0.5289910000000  0.4061480000000  0.4647220000000 1.0
C      1  0.4997770000000  0.4737400000000  0.5341300000000 1.0
C      1  0.4968670000000  0.4590050000000  0.4687000000000 1.0
C      1  0.5423820000000  0.4616990000000  0.4070230000000 1.0
C      1  0.5442670000000  0.4626660000000  0.6031020000000 1.0
C      1  0.4007890000000  0.5506190000000  0.4852210000000 1.0
C      1  0.4025180000000  0.5471510000000  0.5147410000000 1.0
C      1  0.4813440000000  0.5132370000000  0.5871680000000 1.0
C      1  0.4741580000000  0.5152360000000  0.4040040000000 1.0
C      1  0.5272250000000  0.4039420000000  0.5180600000000 1.0
C      1  0.5187130000000  0.3974930000000  0.4910650000000 1.0
C      1  0.5935200000000  0.4910360000000  0.4719050000000 1.0
C      1  0.5967350000000  0.4868600000000  0.5268680000000 1.0
C      1  0.4278130000000  0.4695660000000  0.4029390000000 1.0
C      1  0.4312330000000  0.4664200000000  0.5831780000000 1.0
C      1  0.5937530000000  0.4195870000000  0.4893710000000 1.0
C      1  0.5975110000000  0.4338860000000  0.5138140000000 1.0
C      1  0.4735960000000  0.5624970000000  0.5871690000000 1.0
C      1  0.4664990000000  0.5631100000000  0.4122740000000 1.0
C      1  0.4354680000000  0.5291750000000  0.4286590000000 1.0
C      1  0.4436300000000  0.5310830000000  0.5655710000000 1.0
C      1  0.5231040000000  0.5151560000000  0.4809980000000 1.0
C      1  0.5270590000000  0.5206290000000  0.5098660000000 1.0
END
