TITL C-3201373-1215-1795 -1095841.74038091 125000 -745.490650415291 0 0 126 (C1) n - 1
REM
REM in /home/nfs/bkarasulu/CARBON/AIRSS/Generating-Clusters/LCBOP/Higher-Symm/SD-CG/FIRE-CG
REM
REM
REM
REM
REM
REM ./C.cell (b20cbc046b6831c77cfcea5457e17084)
REM AIRSS Version 0.9.1 bugfix July 2018 build 013d7b7c2542+ Fri, 06 Jul 2018 19:26:36 +0100
REM compiler GCC version 9.2.1 20190827 (Red Hat 9.2.1-1)
REM options -cpp -mtune=generic -march=x86-64 -g -O0 -fpre-include=/usr/include/finclude/math-vector-fortran.h
REM seed -986638738 -633889275 -309938380 554491420 729499557 -234524730 1862064326 -1014541991 -1498122792 -57266339 -508680716 321749994 685768355 95166927 1129641195 1047361257 -141329078 1361832385 1167441503 107386484 949844682 -118592518 -1367670394 -833952768 1624737875 459672742 1691648550 2057630470 -1020539101 364330026 580908784 -1307824950 1496429296
REM
CELL 1.54180   50.00000   50.00000   50.00000   90.00000   90.00000   90.00000
LATT -1
SFAC C  
C      1  0.4035420000000  0.5247360000000  0.5158640000000 1.0
C      1  0.4025690000000  0.4929840000000  0.5301580000000 1.0
C      1  0.4010390000000  0.4691480000000  0.5045950000000 1.0
C      1  0.4021730000000  0.4866320000000  0.4735320000000 1.0
C      1  0.4036840000000  0.5209980000000  0.4811700000000 1.0
C      1  0.4630790000000  0.5674540000000  0.5548540000000 1.0
C      1  0.4625690000000  0.4693730000000  0.5813990000000 1.0
C      1  0.4593360000000  0.4106150000000  0.4968720000000 1.0
C      1  0.4635120000000  0.4724510000000  0.4194860000000 1.0
C      1  0.4622130000000  0.5717260000000  0.4515230000000 1.0
C      1  0.4894900000000  0.4856950000000  0.4165670000000 1.0
C      1  0.4895610000000  0.5789180000000  0.4597290000000 1.0
C      1  0.4906830000000  0.5626580000000  0.5636740000000 1.0
C      1  0.4892150000000  0.4593860000000  0.5778870000000 1.0
C      1  0.4872910000000  0.4103450000000  0.4856660000000 1.0
C      1  0.4463260000000  0.4531380000000  0.4781610000000 1.0
C      1  0.4543390000000  0.5054180000000  0.4525720000000 1.0
C      1  0.4548440000000  0.5468150000000  0.4932830000000 1.0
C      1  0.4548530000000  0.5205490000000  0.5430700000000 1.0
C      1  0.4539050000000  0.4647670000000  0.5337490000000 1.0
C      1  0.5700250000000  0.5137710000000  0.5398090000000 1.0
C      1  0.5687710000000  0.4665010000000  0.5248460000000 1.0
C      1  0.5700180000000  0.4659620000000  0.4752880000000 1.0
C      1  0.5732540000000  0.5133030000000  0.4598060000000 1.0
C      1  0.5724150000000  0.5429440000000  0.5003910000000 1.0
C      1  0.4694190000000  0.4543510000000  0.4651670000000 1.0
C      1  0.4712540000000  0.5261520000000  0.4521070000000 1.0
C      1  0.4745400000000  0.5513250000000  0.5129760000000 1.0
C      1  0.4740010000000  0.5037600000000  0.5531230000000 1.0
C      1  0.4722600000000  0.4489830000000  0.5192240000000 1.0
C      1  0.5049790000000  0.4965140000000  0.4597910000000 1.0
C      1  0.4935490000000  0.5340100000000  0.4792860000000 1.0
C      1  0.4922290000000  0.5280880000000  0.5226640000000 1.0
C      1  0.4931160000000  0.4850350000000  0.5299960000000 1.0
C      1  0.4898290000000  0.4649930000000  0.4910410000000 1.0
C      1  0.4282810000000  0.4459320000000  0.4388750000000 1.0
C      1  0.4295420000000  0.5417740000000  0.4332120000000 1.0
C      1  0.4312250000000  0.5754950000000  0.5202540000000 1.0
C      1  0.4309520000000  0.5045830000000  0.5792470000000 1.0
C      1  0.4292990000000  0.4256120000000  0.5318450000000 1.0
C      1  0.5216320000000  0.4254890000000  0.4521250000000 1.0
C      1  0.5234650000000  0.5245950000000  0.4140630000000 1.0
C      1  0.5237820000000  0.5896790000000  0.4956700000000 1.0
C      1  0.5235880000000  0.5303340000000  0.5826830000000 1.0
C      1  0.5223720000000  0.4318760000000  0.5536920000000 1.0
C      1  0.5558720000000  0.4616090000000  0.5780950000000 1.0
C      1  0.5588690000000  0.4102280000000  0.4844430000000 1.0
C      1  0.5583490000000  0.4866960000000  0.4096760000000 1.0
C      1  0.5603350000000  0.5820700000000  0.4597980000000 1.0
C      1  0.5597470000000  0.5632120000000  0.5660630000000 1.0
C      1  0.5070610000000  0.4198650000000  0.5056250000000 1.0
C      1  0.5045140000000  0.4769660000000  0.4396430000000 1.0
C      1  0.5070860000000  0.5574340000000  0.4528700000000 1.0
C      1  0.5103710000000  0.5689860000000  0.5424240000000 1.0
C      1  0.5106880000000  0.4797610000000  0.5798110000000 1.0
C      1  0.5501250000000  0.4247860000000  0.4605130000000 1.0
C      1  0.5518830000000  0.5145690000000  0.4160940000000 1.0
C      1  0.5521970000000  0.5847370000000  0.4880670000000 1.0
C      1  0.5515600000000  0.5368080000000  0.5765860000000 1.0
C      1  0.5503380000000  0.4396380000000  0.5585450000000 1.0
C      1  0.4972630000000  0.5433420000000  0.5851380000000 1.0
C      1  0.4960910000000  0.4330780000000  0.5666340000000 1.0
C      1  0.4958100000000  0.4120600000000  0.4569350000000 1.0
C      1  0.4965140000000  0.5137790000000  0.4068730000000 1.0
C      1  0.4965570000000  0.5942040000000  0.4845160000000 1.0
C      1  0.5662250000000  0.5578830000000  0.4444590000000 1.0
C      1  0.5652080000000  0.5708520000000  0.5383550000000 1.0
C      1  0.5712790000000  0.4864480000000  0.5777920000000 1.0
C      1  0.5639520000000  0.4212190000000  0.5108610000000 1.0
C      1  0.5631880000000  0.4648630000000  0.4281510000000 1.0
C      1  0.4197410000000  0.4858770000000  0.5595530000000 1.0
C      1  0.4163160000000  0.4374420000000  0.5086670000000 1.0
C      1  0.4189750000000  0.4735060000000  0.4449930000000 1.0
C      1  0.4197970000000  0.5445800000000  0.4608940000000 1.0
C      1  0.4202810000000  0.5508720000000  0.5318820000000 1.0
C      1  0.4423480000000  0.5616690000000  0.4721080000000 1.0
C      1  0.4428460000000  0.5450290000000  0.5516490000000 1.0
C      1  0.4422240000000  0.4652960000000  0.5597270000000 1.0
C      1  0.4361900000000  0.4286000000000  0.4877670000000 1.0
C      1  0.4424350000000  0.4887890000000  0.4331690000000 1.0
C      1  0.4440210000000  0.5099180000000  0.5206300000000 1.0
C      1  0.4425740000000  0.4826890000000  0.5169480000000 1.0
C      1  0.4411270000000  0.4769410000000  0.4899520000000 1.0
C      1  0.4441910000000  0.5013030000000  0.4771490000000 1.0
C      1  0.4448890000000  0.5215960000000  0.4957450000000 1.0
C      1  0.4611670000000  0.4202870000000  0.5268270000000 1.0
C      1  0.4610260000000  0.4449460000000  0.4353760000000 1.0
C      1  0.4612180000000  0.5470340000000  0.4313260000000 1.0
C      1  0.4630700000000  0.5779660000000  0.5253550000000 1.0
C      1  0.4626450000000  0.5003540000000  0.5829050000000 1.0
C      1  0.5209990000000  0.5376140000000  0.4400300000000 1.0
C      1  0.5190120000000  0.5674000000000  0.5148280000000 1.0
C      1  0.5163120000000  0.5064250000000  0.5665940000000 1.0
C      1  0.5157980000000  0.4388120000000  0.5256680000000 1.0
C      1  0.5161690000000  0.4538260000000  0.4512020000000 1.0
C      1  0.5178930000000  0.5190240000000  0.5388380000000 1.0
C      1  0.5160940000000  0.4685460000000  0.5261170000000 1.0
C      1  0.5190190000000  0.4615700000000  0.4797670000000 1.0
C      1  0.5252130000000  0.5146850000000  0.4575540000000 1.0
C      1  0.5225100000000  0.5448290000000  0.4968150000000 1.0
C      1  0.4758580000000  0.4182560000000  0.4359620000000 1.0
C      1  0.4757160000000  0.5352550000000  0.4069330000000 1.0
C      1  0.4763630000000  0.5977060000000  0.5058430000000 1.0
C      1  0.4767080000000  0.5246770000000  0.5956140000000 1.0
C      1  0.4761010000000  0.4162580000000  0.5533350000000 1.0
C      1  0.5616660000000  0.3828570000000  0.4817810000000 1.0
C      1  0.5584440000000  0.4801310000000  0.3827870000000 1.0
C      1  0.5614170000000  0.6057950000000  0.4454840000000 1.0
C      1  0.5617820000000  0.5835000000000  0.5848030000000 1.0
C      1  0.5328790000000  0.4684450000000  0.5935060000000 1.0
C      1  0.5475240000000  0.5082420000000  0.4752520000000 1.0
C      1  0.5462180000000  0.5272050000000  0.4986120000000 1.0
C      1  0.5437350000000  0.5110400000000  0.5242950000000 1.0
C      1  0.5427340000000  0.4809150000000  0.5170580000000 1.0
C      1  0.5442220000000  0.4786300000000  0.4860750000000 1.0
C      1  0.5680230000000  0.5296080000000  0.4368590000000 1.0
C      1  0.5673100000000  0.5696470000000  0.5091990000000 1.0
C      1  0.5674530000000  0.5133890000000  0.5679410000000 1.0
C      1  0.5651370000000  0.4397010000000  0.5331560000000 1.0
C      1  0.5649080000000  0.4494290000000  0.4526170000000 1.0
C      1  0.5922370000000  0.4797760000000  0.5152090000000 1.0
C      1  0.5932850000000  0.4792140000000  0.4860070000000 1.0
C      1  0.5952050000000  0.5071680000000  0.4768210000000 1.0
C      1  0.5948230000000  0.5248340000000  0.5005050000000 1.0
C      1  0.5930920000000  0.5075170000000  0.5239900000000 1.0
C      1  0.4915270000000  0.5012320000000  0.4951570000000 1.0
END
