TITL C-3201377-4638-692 -443.453530250442 125000 -1215.88784254968 0 0 199 (C1) n - 1
REM
REM in /home/nfs/bkarasulu/CARBON/AIRSS/Generating-Clusters/LCBOP/Higher-Symm/SD-CG/FIRE-CG
REM
REM
REM
REM
REM
REM ./C.cell (b20cbc046b6831c77cfcea5457e17084)
REM AIRSS Version 0.9.1 bugfix July 2018 build 013d7b7c2542+ Fri, 06 Jul 2018 19:26:36 +0100
REM compiler GCC version 9.2.1 20190827 (Red Hat 9.2.1-1)
REM options -cpp -mtune=generic -march=x86-64 -g -O0 -fpre-include=/usr/include/finclude/math-vector-fortran.h
REM seed 1474116015 786739844 2140522306 -1159098293 469324804 795579713 -1766623736 710382838 1786420439 -1475061437 -2039472995 -56167541 1434658069 -553219425 -2078753630 1372155060 -1028368842 -545929181 -31518379 -301409041 -2034245908 1299313495 1384067345 -2036757231 578818449 1911853559 496228191 -2029173716 1920721568 -896430168 -718348208 512178406 1931207376
REM
CELL 1.54180   50.00000   50.00000   50.00000   90.00000   90.00000   90.00000
LATT -1
SFAC C  
C      1  0.4090760000000  0.4315450000000  0.5062360000000 1.0
C      1  0.4477460000000  0.4770590000000  0.4451810000000 1.0
C      1  0.3976170000000  0.5104800000000  0.4137620000000 1.0
C      1  0.4352820000000  0.4875550000000  0.4691280000000 1.0
C      1  0.4939410000000  0.5318250000000  0.5672020000000 1.0
C      1  0.4469610000000  0.5643410000000  0.6103490000000 1.0
C      1  0.4452590000000  0.5078320000000  0.4055180000000 1.0
C      1  0.4379680000000  0.3994520000000  0.4840880000000 1.0
C      1  0.5284960000000  0.4175440000000  0.6169190000000 1.0
C      1  0.4861010000000  0.5146690000000  0.4930710000000 1.0
C      1  0.6294190000000  0.4748650000000  0.5644710000000 1.0
C      1  0.3989560000000  0.5221050000000  0.5448840000000 1.0
C      1  0.4509870000000  0.4517500000000  0.5177360000000 1.0
C      1  0.4327620000000  0.6187190000000  0.5367120000000 1.0
C      1  0.5970930000000  0.4533140000000  0.4295830000000 1.0
C      1  0.5094490000000  0.5912650000000  0.5476850000000 1.0
C      1  0.5025250000000  0.4627050000000  0.4218020000000 1.0
C      1  0.4843620000000  0.4375240000000  0.5677090000000 1.0
C      1  0.5453800000000  0.3856460000000  0.4899980000000 1.0
C      1  0.4068990000000  0.5636010000000  0.4224590000000 1.0
C      1  0.5481010000000  0.6238320000000  0.5166530000000 1.0
C      1  0.5946270000000  0.4412560000000  0.4551440000000 1.0
C      1  0.5266030000000  0.4628180000000  0.3704820000000 1.0
C      1  0.4130780000000  0.4702030000000  0.6015960000000 1.0
C      1  0.3684830000000  0.4874670000000  0.5290820000000 1.0
C      1  0.4785640000000  0.5395830000000  0.4366270000000 1.0
C      1  0.4963410000000  0.4932630000000  0.4777870000000 1.0
C      1  0.3819180000000  0.5123880000000  0.5238510000000 1.0
C      1  0.4548890000000  0.5257620000000  0.5346470000000 1.0
C      1  0.5666510000000  0.4434770000000  0.4648780000000 1.0
C      1  0.5887600000000  0.3640190000000  0.4937010000000 1.0
C      1  0.4883740000000  0.4021480000000  0.4879680000000 1.0
C      1  0.4188360000000  0.4981320000000  0.3990600000000 1.0
C      1  0.4903290000000  0.5494150000000  0.6265840000000 1.0
C      1  0.5730600000000  0.5657270000000  0.5432640000000 1.0
C      1  0.4158220000000  0.5767460000000  0.4695020000000 1.0
C      1  0.6014180000000  0.5013500000000  0.5425510000000 1.0
C      1  0.4734780000000  0.4425930000000  0.4633790000000 1.0
C      1  0.4994820000000  0.5204080000000  0.5177510000000 1.0
C      1  0.5241250000000  0.4529650000000  0.4341390000000 1.0
C      1  0.5085620000000  0.5022980000000  0.4540920000000 1.0
C      1  0.4212740000000  0.5564750000000  0.4886120000000 1.0
C      1  0.4845290000000  0.5983390000000  0.4671740000000 1.0
C      1  0.5751920000000  0.5136040000000  0.3744840000000 1.0
C      1  0.5593410000000  0.4364040000000  0.4951080000000 1.0
C      1  0.5673110000000  0.5857410000000  0.5019340000000 1.0
C      1  0.5499280000000  0.4909760000000  0.4736740000000 1.0
C      1  0.5460280000000  0.4533130000000  0.5621370000000 1.0
C      1  0.5618780000000  0.5596300000000  0.5159900000000 1.0
C      1  0.4733330000000  0.5575410000000  0.6052750000000 1.0
C      1  0.5310740000000  0.5909710000000  0.4646600000000 1.0
C      1  0.4570000000000  0.6296380000000  0.5399070000000 1.0
C      1  0.4646050000000  0.4534940000000  0.3713360000000 1.0
C      1  0.4750840000000  0.3921290000000  0.6094540000000 1.0
C      1  0.4480670000000  0.4457500000000  0.4470270000000 1.0
C      1  0.5098980000000  0.4210300000000  0.4853660000000 1.0
C      1  0.4396590000000  0.5497170000000  0.5331280000000 1.0
C      1  0.5711610000000  0.5372580000000  0.4985610000000 1.0
C      1  0.4706430000000  0.5656140000000  0.4992210000000 1.0
C      1  0.4521630000000  0.4249390000000  0.4260540000000 1.0
C      1  0.4838200000000  0.4320700000000  0.3718560000000 1.0
C      1  0.5227360000000  0.3914750000000  0.6125810000000 1.0
C      1  0.3770470000000  0.4852650000000  0.4575560000000 1.0
C      1  0.5397020000000  0.4848230000000  0.6243180000000 1.0
C      1  0.5102950000000  0.6102270000000  0.4793200000000 1.0
C      1  0.5377570000000  0.4148410000000  0.4904900000000 1.0
C      1  0.4357630000000  0.5965920000000  0.4641950000000 1.0
C      1  0.4010790000000  0.5770210000000  0.5368760000000 1.0
C      1  0.5195050000000  0.6194590000000  0.5083930000000 1.0
C      1  0.5034440000000  0.6155190000000  0.5330710000000 1.0
C      1  0.5884910000000  0.4917100000000  0.3872700000000 1.0
C      1  0.4622310000000  0.5220370000000  0.3860440000000 1.0
C      1  0.3916080000000  0.4411060000000  0.5267250000000 1.0
C      1  0.3974780000000  0.5388510000000  0.4129510000000 1.0
C      1  0.5354350000000  0.5393420000000  0.4662530000000 1.0
C      1  0.3826970000000  0.4963360000000  0.4334690000000 1.0
C      1  0.5103950000000  0.4415040000000  0.3667750000000 1.0
C      1  0.5815110000000  0.5136450000000  0.6378470000000 1.0
C      1  0.6075890000000  0.4196910000000  0.4958780000000 1.0
C      1  0.5699960000000  0.5458280000000  0.4206030000000 1.0
C      1  0.4252570000000  0.4449900000000  0.5978640000000 1.0
C      1  0.4576360000000  0.5806370000000  0.4237540000000 1.0
C      1  0.4924460000000  0.3695220000000  0.4513520000000 1.0
C      1  0.4993440000000  0.4695900000000  0.4924740000000 1.0
C      1  0.4777340000000  0.4770310000000  0.3808220000000 1.0
C      1  0.5972460000000  0.4427970000000  0.5362400000000 1.0
C      1  0.4268650000000  0.4553400000000  0.5046690000000 1.0
C      1  0.5687310000000  0.3767250000000  0.5084230000000 1.0
C      1  0.3895010000000  0.4798540000000  0.4841060000000 1.0
C      1  0.5202330000000  0.5290950000000  0.5797080000000 1.0
C      1  0.6129620000000  0.5825270000000  0.5557330000000 1.0
C      1  0.4134170000000  0.5283310000000  0.4884180000000 1.0
C      1  0.4888950000000  0.4355930000000  0.5963030000000 1.0
C      1  0.5043120000000  0.5800270000000  0.5734900000000 1.0
C      1  0.6064290000000  0.5059220000000  0.5157590000000 1.0
C      1  0.5059400000000  0.5431210000000  0.3820230000000 1.0
C      1  0.5833640000000  0.5480360000000  0.5627650000000 1.0
C      1  0.5229600000000  0.4659450000000  0.6162010000000 1.0
C      1  0.4190150000000  0.4744720000000  0.3830230000000 1.0
C      1  0.4324280000000  0.4877050000000  0.5411330000000 1.0
C      1  0.4702110000000  0.4054620000000  0.4157660000000 1.0
C      1  0.4052790000000  0.4382340000000  0.5526710000000 1.0
C      1  0.6780370000000  0.5391300000000  0.5925190000000 1.0
C      1  0.5169930000000  0.5622490000000  0.4698070000000 1.0
C      1  0.4212700000000  0.4412740000000  0.4620580000000 1.0
C      1  0.5512220000000  0.4512950000000  0.4406210000000 1.0
C      1  0.5104200000000  0.3804990000000  0.5230690000000 1.0
C      1  0.6139740000000  0.4845940000000  0.3964340000000 1.0
C      1  0.4791770000000  0.4104190000000  0.3893530000000 1.0
C      1  0.5575620000000  0.3763970000000  0.4629050000000 1.0
C      1  0.4979390000000  0.4728060000000  0.5205600000000 1.0
C      1  0.5196830000000  0.3716070000000  0.4973850000000 1.0
C      1  0.5045150000000  0.3626080000000  0.4746970000000 1.0
C      1  0.5701170000000  0.4588450000000  0.4198130000000 1.0
C      1  0.5341640000000  0.5108070000000  0.4605300000000 1.0
C      1  0.4429770000000  0.5620700000000  0.5067720000000 1.0
C      1  0.5485950000000  0.5107220000000  0.5133650000000 1.0
C      1  0.6124940000000  0.4261680000000  0.4702690000000 1.0
C      1  0.5071130000000  0.3975020000000  0.5458440000000 1.0
C      1  0.6179780000000  0.4661220000000  0.4158890000000 1.0
C      1  0.5492310000000  0.4851600000000  0.5020450000000 1.0
C      1  0.5766580000000  0.5017410000000  0.5558020000000 1.0
C      1  0.5449230000000  0.4578330000000  0.5128800000000 1.0
C      1  0.3913530000000  0.5132860000000  0.4971970000000 1.0
C      1  0.6548230000000  0.5349190000000  0.5814510000000 1.0
C      1  0.5822180000000  0.3639680000000  0.4667940000000 1.0
C      1  0.4118770000000  0.5503270000000  0.5471300000000 1.0
C      1  0.4816710000000  0.4766710000000  0.4093760000000 1.0
C      1  0.6301080000000  0.5303970000000  0.5690260000000 1.0
C      1  0.4686390000000  0.4198050000000  0.6100260000000 1.0
C      1  0.5873510000000  0.4314330000000  0.5118450000000 1.0
C      1  0.4811890000000  0.4841460000000  0.5408840000000 1.0
C      1  0.4788950000000  0.5452040000000  0.3909920000000 1.0
C      1  0.5314170000000  0.4458560000000  0.5398680000000 1.0
C      1  0.4612920000000  0.5384230000000  0.4580560000000 1.0
C      1  0.4566120000000  0.4463450000000  0.5619630000000 1.0
C      1  0.4120140000000  0.5549870000000  0.5767420000000 1.0
C      1  0.4363010000000  0.4562430000000  0.3723630000000 1.0
C      1  0.5418610000000  0.4830020000000  0.3829520000000 1.0
C      1  0.5292260000000  0.5488390000000  0.5994580000000 1.0
C      1  0.4594760000000  0.4891590000000  0.4227430000000 1.0
C      1  0.4555740000000  0.4683990000000  0.5425050000000 1.0
C      1  0.4827600000000  0.5159520000000  0.5431420000000 1.0
C      1  0.4406630000000  0.5051010000000  0.5195720000000 1.0
C      1  0.4305780000000  0.5771480000000  0.4140500000000 1.0
C      1  0.4943720000000  0.6461350000000  0.5682470000000 1.0
C      1  0.4881920000000  0.5704560000000  0.4767450000000 1.0
C      1  0.4997620000000  0.3831060000000  0.5981360000000 1.0
C      1  0.6237490000000  0.5029740000000  0.5605010000000 1.0
C      1  0.4122030000000  0.6015760000000  0.5351880000000 1.0
C      1  0.5170680000000  0.5449440000000  0.6249180000000 1.0
C      1  0.5382360000000  0.6004960000000  0.6003410000000 1.0
C      1  0.4623920000000  0.5243040000000  0.4818070000000 1.0
C      1  0.4810730000000  0.3848810000000  0.4322220000000 1.0
C      1  0.4743570000000  0.5583590000000  0.4161120000000 1.0
C      1  0.4846840000000  0.5582240000000  0.5784500000000 1.0
C      1  0.4872890000000  0.5632250000000  0.5210920000000 1.0
C      1  0.5781290000000  0.5448640000000  0.4463510000000 1.0
C      1  0.4968520000000  0.4454610000000  0.4788750000000 1.0
C      1  0.5329390000000  0.5360760000000  0.3873560000000 1.0
C      1  0.4739500000000  0.5023090000000  0.3689810000000 1.0
C      1  0.5874120000000  0.5918140000000  0.5429500000000 1.0
C      1  0.3776060000000  0.4644830000000  0.5160400000000 1.0
C      1  0.5459610000000  0.5123670000000  0.3778670000000 1.0
C      1  0.5714850000000  0.6068180000000  0.5218820000000 1.0
C      1  0.5365290000000  0.5786250000000  0.4128780000000 1.0
C      1  0.6121490000000  0.5534260000000  0.5652640000000 1.0
C      1  0.5305820000000  0.6262460000000  0.5987650000000 1.0
C      1  0.4228140000000  0.5622810000000  0.5997080000000 1.0
C      1  0.5333950000000  0.5536840000000  0.5228140000000 1.0
C      1  0.4607270000000  0.4253900000000  0.5169690000000 1.0
C      1  0.5703860000000  0.5242340000000  0.5692120000000 1.0
C      1  0.4378590000000  0.5101320000000  0.4891630000000 1.0
C      1  0.5663040000000  0.4746100000000  0.3968050000000 1.0
C      1  0.4291780000000  0.4390730000000  0.5699470000000 1.0
C      1  0.5269610000000  0.5261990000000  0.5201210000000 1.0
C      1  0.4131980000000  0.5000790000000  0.5583720000000 1.0
C      1  0.5124730000000  0.5701990000000  0.5296210000000 1.0
C      1  0.5316990000000  0.5935060000000  0.4346580000000 1.0
C      1  0.5636050000000  0.5430160000000  0.4704360000000 1.0
C      1  0.5023000000000  0.3832520000000  0.5700960000000 1.0
C      1  0.4962600000000  0.5181110000000  0.4348030000000 1.0
C      1  0.4432240000000  0.4311890000000  0.6147300000000 1.0
C      1  0.5064990000000  0.4275160000000  0.5481760000000 1.0
C      1  0.5474680000000  0.5536710000000  0.4052250000000 1.0
C      1  0.5578320000000  0.5921210000000  0.4766250000000 1.0
C      1  0.4623350000000  0.4049200000000  0.4977420000000 1.0
C      1  0.4168020000000  0.4183790000000  0.4811660000000 1.0
C      1  0.5971470000000  0.5254250000000  0.5003520000000 1.0
C      1  0.4606610000000  0.5963020000000  0.4494650000000 1.0
C      1  0.4090000000000  0.4907620000000  0.5845660000000 1.0
C      1  0.5136020000000  0.4405870000000  0.6096870000000 1.0
C      1  0.5604780000000  0.4993830000000  0.6320280000000 1.0
C      1  0.4844510000000  0.6327040000000  0.5454460000000 1.0
C      1  0.3982170000000  0.5714600000000  0.4482280000000 1.0
C      1  0.5129990000000  0.6429510000000  0.5873220000000 1.0
C      1  0.6155770000000  0.4539390000000  0.5530460000000 1.0
C      1  0.4164800000000  0.4672830000000  0.4795890000000 1.0
C      1  0.5274250000000  0.5765060000000  0.5906610000000 1.0
END
