TITL C-3201376-6384-1216 77868.9471604408 125000 -1193.50888751044 0 0 195 (C1) n - 1
REM
REM in /home/nfs/bkarasulu/CARBON/AIRSS/Generating-Clusters/LCBOP/Higher-Symm/SD-CG/FIRE-CG
REM
REM
REM
REM
REM
REM ./C.cell (b20cbc046b6831c77cfcea5457e17084)
REM AIRSS Version 0.9.1 bugfix July 2018 build 013d7b7c2542+ Fri, 06 Jul 2018 19:26:36 +0100
REM compiler GCC version 9.2.1 20190827 (Red Hat 9.2.1-1)
REM options -cpp -mtune=generic -march=x86-64 -g -O0 -fpre-include=/usr/include/finclude/math-vector-fortran.h
REM seed 1990472229 1146004994 1636984354 1873350833 -903837680 -2080264019 303562289 802472304 259329988 99180826 646091105 1950579725 -1020794483 1483133691 1218032509 -1880776842 2101877268 -1983162056 -1246034051 -406910032 -1858073724 233266628 -42287091 -433791361 339815180 1716574820 194327190 -41078951 1094887582 -437791649 931743823 -869113649 2113624156
REM
CELL 1.54180   50.00000   50.00000   50.00000   90.00000   90.00000   90.00000
LATT -1
SFAC C  
C      1  0.5743850000000  0.5761520000000  0.4456250000000 1.0
C      1  0.5700270000000  0.5504870000000  0.5798130000000 1.0
C      1  0.5658240000000  0.4226460000000  0.5519480000000 1.0
C      1  0.5682220000000  0.4458250000000  0.4209590000000 1.0
C      1  0.4248790000000  0.5783360000000  0.4445290000000 1.0
C      1  0.4321090000000  0.5485480000000  0.5733640000000 1.0
C      1  0.4322320000000  0.4237050000000  0.5494320000000 1.0
C      1  0.4271170000000  0.4488450000000  0.4240030000000 1.0
C      1  0.4555500000000  0.4857230000000  0.4662020000000 1.0
C      1  0.4520000000000  0.5464780000000  0.4811820000000 1.0
C      1  0.4548720000000  0.5184270000000  0.5340690000000 1.0
C      1  0.4648460000000  0.4569910000000  0.5248560000000 1.0
C      1  0.5526780000000  0.4908500000000  0.4552580000000 1.0
C      1  0.5519890000000  0.5454050000000  0.4846990000000 1.0
C      1  0.5482280000000  0.5256330000000  0.5410080000000 1.0
C      1  0.5566790000000  0.4672100000000  0.5189030000000 1.0
C      1  0.5542160000000  0.5745830000000  0.5740570000000 1.0
C      1  0.5520800000000  0.4236050000000  0.5780570000000 1.0
C      1  0.5514770000000  0.4229790000000  0.4256180000000 1.0
C      1  0.5568360000000  0.5711230000000  0.4225210000000 1.0
C      1  0.4465550000000  0.5739360000000  0.5705900000000 1.0
C      1  0.4456950000000  0.4242200000000  0.5753170000000 1.0
C      1  0.4424620000000  0.4249480000000  0.4272620000000 1.0
C      1  0.4419810000000  0.5731220000000  0.4217960000000 1.0
C      1  0.4836010000000  0.3989740000000  0.4789320000000 1.0
C      1  0.4699850000000  0.5057180000000  0.4134900000000 1.0
C      1  0.4706520000000  0.5935820000000  0.5038020000000 1.0
C      1  0.4789640000000  0.4829220000000  0.6113540000000 1.0
C      1  0.5114810000000  0.3998440000000  0.4793980000000 1.0
C      1  0.5286560000000  0.5076320000000  0.4103690000000 1.0
C      1  0.5316610000000  0.5943950000000  0.5051260000000 1.0
C      1  0.5198170000000  0.4828960000000  0.6085550000000 1.0
C      1  0.4081940000000  0.5419010000000  0.5572640000000 1.0
C      1  0.4091680000000  0.4413340000000  0.5411160000000 1.0
C      1  0.4056290000000  0.4549510000000  0.4428260000000 1.0
C      1  0.4011340000000  0.5603240000000  0.4489220000000 1.0
C      1  0.5960990000000  0.5449650000000  0.5666220000000 1.0
C      1  0.5879470000000  0.4422740000000  0.5448790000000 1.0
C      1  0.5907300000000  0.4507000000000  0.4393670000000 1.0
C      1  0.5976180000000  0.5580200000000  0.4510870000000 1.0
C      1  0.4378410000000  0.4702200000000  0.4056000000000 1.0
C      1  0.4365820000000  0.5949660000000  0.4673330000000 1.0
C      1  0.4450080000000  0.5253970000000  0.5891130000000 1.0
C      1  0.4453340000000  0.4069140000000  0.5273670000000 1.0
C      1  0.5583520000000  0.4679490000000  0.4028220000000 1.0
C      1  0.5641220000000  0.5935050000000  0.4678160000000 1.0
C      1  0.5563610000000  0.5269850000000  0.5945150000000 1.0
C      1  0.5526400000000  0.4059760000000  0.5289500000000 1.0
C      1  0.4685340000000  0.4249160000000  0.4158290000000 1.0
C      1  0.4686730000000  0.5851810000000  0.4201020000000 1.0
C      1  0.4700310000000  0.5785750000000  0.5878250000000 1.0
C      1  0.4688920000000  0.4080560000000  0.5809630000000 1.0
C      1  0.5264820000000  0.4199820000000  0.4117260000000 1.0
C      1  0.5306770000000  0.5844270000000  0.4190420000000 1.0
C      1  0.5298140000000  0.5790910000000  0.5899960000000 1.0
C      1  0.5278920000000  0.4083060000000  0.5823260000000 1.0
C      1  0.5236140000000  0.4577500000000  0.4877120000000 1.0
C      1  0.5162280000000  0.5186340000000  0.4558390000000 1.0
C      1  0.5157560000000  0.5517560000000  0.5136890000000 1.0
C      1  0.5175290000000  0.4939610000000  0.5518480000000 1.0
C      1  0.4930280000000  0.4502080000000  0.4858170000000 1.0
C      1  0.4860470000000  0.5200040000000  0.4539180000000 1.0
C      1  0.4863180000000  0.5502810000000  0.5115880000000 1.0
C      1  0.4881660000000  0.4901010000000  0.5546670000000 1.0
C      1  0.4437360000000  0.4470980000000  0.5919860000000 1.0
C      1  0.4418470000000  0.4086710000000  0.4508890000000 1.0
C      1  0.4399510000000  0.5472250000000  0.4089240000000 1.0
C      1  0.4426930000000  0.5895650000000  0.5462180000000 1.0
C      1  0.5551350000000  0.4467970000000  0.5948690000000 1.0
C      1  0.5518450000000  0.4087810000000  0.4508440000000 1.0
C      1  0.5599200000000  0.5463380000000  0.4076530000000 1.0
C      1  0.5583350000000  0.5891350000000  0.5489890000000 1.0
C      1  0.4681730000000  0.6101450000000  0.4618030000000 1.0
C      1  0.4695640000000  0.5314380000000  0.6050930000000 1.0
C      1  0.4692820000000  0.3908390000000  0.5347480000000 1.0
C      1  0.4665020000000  0.4662880000000  0.3923990000000 1.0
C      1  0.5328030000000  0.6088550000000  0.4619410000000 1.0
C      1  0.5299740000000  0.5320510000000  0.6073680000000 1.0
C      1  0.5284800000000  0.3903420000000  0.5359640000000 1.0
C      1  0.5290650000000  0.4651330000000  0.3921760000000 1.0
C      1  0.5889880000000  0.4448820000000  0.4698070000000 1.0
C      1  0.5979710000000  0.5293880000000  0.4413390000000 1.0
C      1  0.6031560000000  0.5469240000000  0.5365140000000 1.0
C      1  0.5948780000000  0.4719630000000  0.5533440000000 1.0
C      1  0.4042760000000  0.4473260000000  0.4721190000000 1.0
C      1  0.4016640000000  0.5299900000000  0.4426980000000 1.0
C      1  0.4022600000000  0.5452570000000  0.5272590000000 1.0
C      1  0.4039530000000  0.4713410000000  0.5437940000000 1.0
C      1  0.4373140000000  0.4116760000000  0.4987180000000 1.0
C      1  0.4257880000000  0.4984740000000  0.4088320000000 1.0
C      1  0.4255800000000  0.5892840000000  0.4970400000000 1.0
C      1  0.4387820000000  0.4952350000000  0.5819030000000 1.0
C      1  0.5591500000000  0.4105150000000  0.4994870000000 1.0
C      1  0.5723930000000  0.4960000000000  0.4040460000000 1.0
C      1  0.5764240000000  0.5877270000000  0.5007480000000 1.0
C      1  0.5639180000000  0.4974650000000  0.5890070000000 1.0
C      1  0.4044840000000  0.5163760000000  0.5189850000000 1.0
C      1  0.3942330000000  0.4868960000000  0.5162230000000 1.0
C      1  0.4020500000000  0.4737030000000  0.4850840000000 1.0
C      1  0.4106800000000  0.5213230000000  0.4685690000000 1.0
C      1  0.5988650000000  0.5184230000000  0.5305550000000 1.0
C      1  0.6016320000000  0.4884540000000  0.5289970000000 1.0
C      1  0.5874410000000  0.4718970000000  0.4803180000000 1.0
C      1  0.5880530000000  0.5168100000000  0.4641600000000 1.0
C      1  0.4852880000000  0.3731480000000  0.5189840000000 1.0
C      1  0.4840080000000  0.4900270000000  0.3940050000000 1.0
C      1  0.4856670000000  0.6113190000000  0.4861240000000 1.0
C      1  0.4849220000000  0.5098160000000  0.6154220000000 1.0
C      1  0.5127670000000  0.3729940000000  0.5195800000000 1.0
C      1  0.5130990000000  0.4900670000000  0.3933650000000 1.0
C      1  0.5159980000000  0.6110190000000  0.4865520000000 1.0
C      1  0.5141430000000  0.5096060000000  0.6147310000000 1.0
C      1  0.4603620000000  0.4721130000000  0.5899460000000 1.0
C      1  0.4546060000000  0.4047260000000  0.4764770000000 1.0
C      1  0.4455960000000  0.5194730000000  0.4076550000000 1.0
C      1  0.4455070000000  0.5947120000000  0.5181110000000 1.0
C      1  0.5429350000000  0.4741400000000  0.5903790000000 1.0
C      1  0.5405680000000  0.4047280000000  0.4772260000000 1.0
C      1  0.5540160000000  0.5188440000000  0.4031070000000 1.0
C      1  0.5564160000000  0.5945050000000  0.5207570000000 1.0
C      1  0.4848840000000  0.5403320000000  0.5591170000000 1.0
C      1  0.4986650000000  0.4406630000000  0.5464160000000 1.0
C      1  0.4895320000000  0.4679480000000  0.4407660000000 1.0
C      1  0.4889760000000  0.5664340000000  0.4647810000000 1.0
C      1  0.5124310000000  0.5427140000000  0.5612010000000 1.0
C      1  0.5250930000000  0.4483350000000  0.5442590000000 1.0
C      1  0.5173830000000  0.4704410000000  0.4398980000000 1.0
C      1  0.5168540000000  0.5661180000000  0.4664700000000 1.0
C      1  0.5253600000000  0.4928890000000  0.5224630000000 1.0
C      1  0.5326760000000  0.4885540000000  0.4887320000000 1.0
C      1  0.5259820000000  0.5159000000000  0.4830310000000 1.0
C      1  0.5243070000000  0.5245060000000  0.5115380000000 1.0
C      1  0.4795070000000  0.4809310000000  0.5286320000000 1.0
C      1  0.4781500000000  0.4770870000000  0.4849730000000 1.0
C      1  0.4692320000000  0.5239560000000  0.4781710000000 1.0
C      1  0.4788650000000  0.5213570000000  0.5058260000000 1.0
C      1  0.5700800000000  0.5193950000000  0.5281730000000 1.0
C      1  0.5801850000000  0.4805700000000  0.5073160000000 1.0
C      1  0.5783490000000  0.4908290000000  0.4616460000000 1.0
C      1  0.5720130000000  0.5284210000000  0.4839450000000 1.0
C      1  0.4329520000000  0.5104230000000  0.5213270000000 1.0
C      1  0.4398060000000  0.4624890000000  0.5178100000000 1.0
C      1  0.4293240000000  0.4855640000000  0.4794910000000 1.0
C      1  0.4262400000000  0.5381750000000  0.4824110000000 1.0
C      1  0.4842830000000  0.4101730000000  0.6048210000000 1.0
C      1  0.4866870000000  0.4196990000000  0.4374080000000 1.0
C      1  0.4865810000000  0.5622840000000  0.4166650000000 1.0
C      1  0.4862750000000  0.6018180000000  0.5852070000000 1.0
C      1  0.5115010000000  0.4105740000000  0.6054530000000 1.0
C      1  0.5083320000000  0.4050350000000  0.4276110000000 1.0
C      1  0.5112910000000  0.5686900000000  0.4049930000000 1.0
C      1  0.5134330000000  0.6020850000000  0.5862830000000 1.0
C      1  0.5838690000000  0.4264400000000  0.4933380000000 1.0
C      1  0.5967550000000  0.5001890000000  0.4197700000000 1.0
C      1  0.5980280000000  0.5671440000000  0.5067300000000 1.0
C      1  0.5896800000000  0.4926200000000  0.5756120000000 1.0
C      1  0.4117440000000  0.4266670000000  0.4926720000000 1.0
C      1  0.4028390000000  0.5046290000000  0.4259180000000 1.0
C      1  0.4032720000000  0.5694810000000  0.5019140000000 1.0
C      1  0.4130560000000  0.4908710000000  0.5660650000000 1.0
C      1  0.6053330000000  0.5177160000000  0.5760440000000 1.0
C      1  0.5978100000000  0.4338170000000  0.5181360000000 1.0
C      1  0.6065380000000  0.4745030000000  0.4303630000000 1.0
C      1  0.6085410000000  0.5611070000000  0.4792890000000 1.0
C      1  0.3978030000000  0.5159510000000  0.5664520000000 1.0
C      1  0.3968730000000  0.4301810000000  0.5173260000000 1.0
C      1  0.3916780000000  0.4797990000000  0.4359300000000 1.0
C      1  0.3892620000000  0.5654720000000  0.4761370000000 1.0
C      1  0.4760120000000  0.5578920000000  0.5384100000000 1.0
C      1  0.4823260000000  0.4638560000000  0.5688570000000 1.0
C      1  0.4865860000000  0.4418620000000  0.4558240000000 1.0
C      1  0.4831600000000  0.5484420000000  0.4416490000000 1.0
C      1  0.5205630000000  0.5619430000000  0.5413630000000 1.0
C      1  0.5314250000000  0.4700760000000  0.5624630000000 1.0
C      1  0.5309680000000  0.4528990000000  0.4586470000000 1.0
C      1  0.5268760000000  0.5458140000000  0.4490520000000 1.0
C      1  0.4822990000000  0.6047970000000  0.4370980000000 1.0
C      1  0.4842070000000  0.5566310000000  0.6018150000000 1.0
C      1  0.4837440000000  0.3972160000000  0.5591350000000 1.0
C      1  0.4816560000000  0.4416210000000  0.3961140000000 1.0
C      1  0.5178920000000  0.6035850000000  0.4374230000000 1.0
C      1  0.5151090000000  0.5569450000000  0.6030960000000 1.0
C      1  0.5137160000000  0.3971870000000  0.5598740000000 1.0
C      1  0.5128900000000  0.4407710000000  0.3957350000000 1.0
C      1  0.4727040000000  0.5155170000000  0.5553820000000 1.0
C      1  0.4851110000000  0.4387360000000  0.5204480000000 1.0
C      1  0.4731660000000  0.4944870000000  0.4415930000000 1.0
C      1  0.4729080000000  0.5665610000000  0.4898170000000 1.0
C      1  0.5288520000000  0.5201340000000  0.5593010000000 1.0
C      1  0.5364800000000  0.4504440000000  0.5183470000000 1.0
C      1  0.5291900000000  0.4973340000000  0.4386070000000 1.0
C      1  0.5307680000000  0.5661990000000  0.4924120000000 1.0
C      1  0.5674320000000  0.5076460000000  0.5026130000000 1.0
C      1  0.4371120000000  0.4874510000000  0.5066900000000 1.0
C      1  0.4874020000000  0.4943700000000  0.5061610000000 1.0
END
