TITL C-3201378-2706-1041 -1.24403758324663e-06 125000 -1197.92740656927 0 0 193 (C1) n - 1
REM
REM in /home/nfs/bkarasulu/CARBON/AIRSS/Generating-Clusters/LCBOP/Higher-Symm/SD-CG/FIRE-CG
REM
REM
REM
REM
REM
REM ./C.cell (b20cbc046b6831c77cfcea5457e17084)
REM AIRSS Version 0.9.1 bugfix July 2018 build 013d7b7c2542+ Fri, 06 Jul 2018 19:26:36 +0100
REM compiler GCC version 9.2.1 20190827 (Red Hat 9.2.1-1)
REM options -cpp -mtune=generic -march=x86-64 -g -O0 -fpre-include=/usr/include/finclude/math-vector-fortran.h
REM seed 290672862 -284672803 753654829 1299463356 -882352469 2145502460 -2124177306 -203568668 -2081334714 884198121 127690485 -929160949 1349724177 680176897 -2025431272 616057212 -1523012192 2021793562 -740782392 -1186638566 -757863227 -586554513 1371844350 685430644 2123779788 1582507951 -1880144234 38361574 284950014 470742267 25171788 603862572 -1853517339
REM
CELL 1.54180   50.00000   50.00000   50.00000   90.00000   90.00000   90.00000
LATT -1
SFAC C  
C      1  0.4066210000000  0.5454710000000  0.4745240000000 1.0
C      1  0.5796970000000  0.4553660000000  0.4752990000000 1.0
C      1  0.5954370000000  0.5454930000000  0.5215870000000 1.0
C      1  0.4201640000000  0.4542090000000  0.5266170000000 1.0
C      1  0.5473870000000  0.4150060000000  0.4705880000000 1.0
C      1  0.4494680000000  0.5856870000000  0.4730810000000 1.0
C      1  0.5476040000000  0.5827200000000  0.5305470000000 1.0
C      1  0.4536680000000  0.4108460000000  0.5244620000000 1.0
C      1  0.5413810000000  0.4117690000000  0.5638270000000 1.0
C      1  0.4578050000000  0.5946070000000  0.5638550000000 1.0
C      1  0.4610530000000  0.4110610000000  0.4299120000000 1.0
C      1  0.5401340000000  0.5886460000000  0.4365810000000 1.0
C      1  0.4079530000000  0.5384620000000  0.5661070000000 1.0
C      1  0.5926720000000  0.4648690000000  0.5614640000000 1.0
C      1  0.4088880000000  0.4605810000000  0.4312450000000 1.0
C      1  0.5918560000000  0.5361980000000  0.4329290000000 1.0
C      1  0.4843380000000  0.5873590000000  0.4351310000000 1.0
C      1  0.5140540000000  0.4119870000000  0.4306710000000 1.0
C      1  0.5100210000000  0.5996640000000  0.5686180000000 1.0
C      1  0.4915210000000  0.4047110000000  0.5559930000000 1.0
C      1  0.5866930000000  0.4812260000000  0.4324500000000 1.0
C      1  0.4025830000000  0.5091360000000  0.4425400000000 1.0
C      1  0.6094080000000  0.5138060000000  0.5565430000000 1.0
C      1  0.4136300000000  0.4831120000000  0.5677330000000 1.0
C      1  0.4481790000000  0.4314160000000  0.4789080000000 1.0
C      1  0.5476780000000  0.5648860000000  0.4834700000000 1.0
C      1  0.5428900000000  0.4360150000000  0.5166020000000 1.0
C      1  0.4491250000000  0.5693150000000  0.5179690000000 1.0
C      1  0.4327760000000  0.4561180000000  0.4807510000000 1.0
C      1  0.5691290000000  0.5462600000000  0.4796540000000 1.0
C      1  0.4275070000000  0.5511130000000  0.5180010000000 1.0
C      1  0.5632400000000  0.4571780000000  0.5204420000000 1.0
C      1  0.4643750000000  0.4877370000000  0.4518220000000 1.0
C      1  0.5291010000000  0.5061810000000  0.4576910000000 1.0
C      1  0.5261280000000  0.4925650000000  0.5436930000000 1.0
C      1  0.4737250000000  0.5037960000000  0.5461890000000 1.0
C      1  0.4908430000000  0.4787510000000  0.4558960000000 1.0
C      1  0.5061770000000  0.5251660000000  0.4596600000000 1.0
C      1  0.4863170000000  0.5291180000000  0.5473530000000 1.0
C      1  0.5079090000000  0.4693840000000  0.5398810000000 1.0
C      1  0.5694310000000  0.4169470000000  0.5576150000000 1.0
C      1  0.4288070000000  0.5893510000000  0.5677990000000 1.0
C      1  0.4320890000000  0.4120870000000  0.4298210000000 1.0
C      1  0.5690440000000  0.5853720000000  0.4319670000000 1.0
C      1  0.4105930000000  0.5679050000000  0.5693930000000 1.0
C      1  0.5894700000000  0.4359620000000  0.5593020000000 1.0
C      1  0.4133320000000  0.4320110000000  0.4339010000000 1.0
C      1  0.5888410000000  0.5655130000000  0.4305220000000 1.0
C      1  0.5610940000000  0.4426790000000  0.4254890000000 1.0
C      1  0.4264470000000  0.5440930000000  0.4186240000000 1.0
C      1  0.4392010000000  0.4449140000000  0.5806910000000 1.0
C      1  0.5785990000000  0.5418360000000  0.5858650000000 1.0
C      1  0.4452540000000  0.5631570000000  0.4204100000000 1.0
C      1  0.5746390000000  0.4221940000000  0.4164700000000 1.0
C      1  0.4591120000000  0.4270920000000  0.5811010000000 1.0
C      1  0.5557410000000  0.5560650000000  0.5860770000000 1.0
C      1  0.4857740000000  0.3783460000000  0.5163650000000 1.0
C      1  0.5159900000000  0.6163160000000  0.5226300000000 1.0
C      1  0.5179800000000  0.3810270000000  0.4726900000000 1.0
C      1  0.4835980000000  0.6173040000000  0.4770840000000 1.0
C      1  0.3823550000000  0.4804040000000  0.5266840000000 1.0
C      1  0.6279860000000  0.5139990000000  0.5125530000000 1.0
C      1  0.3756180000000  0.5124850000000  0.4823620000000 1.0
C      1  0.6182870000000  0.4788600000000  0.4726530000000 1.0
C      1  0.3940120000000  0.5143860000000  0.5589840000000 1.0
C      1  0.6113200000000  0.4849900000000  0.5494430000000 1.0
C      1  0.6057900000000  0.5119030000000  0.4395040000000 1.0
C      1  0.3957500000000  0.4809390000000  0.4487140000000 1.0
C      1  0.5191840000000  0.3974250000000  0.5490910000000 1.0
C      1  0.4822340000000  0.6099440000000  0.5564600000000 1.0
C      1  0.5168370000000  0.6032600000000  0.4453450000000 1.0
C      1  0.4857180000000  0.3972530000000  0.4390190000000 1.0
C      1  0.4605120000000  0.5114080000000  0.4330650000000 1.0
C      1  0.5325040000000  0.4871360000000  0.4335370000000 1.0
C      1  0.5223990000000  0.5071680000000  0.5704250000000 1.0
C      1  0.4686040000000  0.4852710000000  0.5685860000000 1.0
C      1  0.5093440000000  0.4687450000000  0.4343580000000 1.0
C      1  0.4848520000000  0.5318510000000  0.4369500000000 1.0
C      1  0.5097000000000  0.5336130000000  0.5677620000000 1.0
C      1  0.4904360000000  0.4627990000000  0.5663810000000 1.0
C      1  0.6000560000000  0.4644730000000  0.4554890000000 1.0
C      1  0.3881640000000  0.5275330000000  0.4608510000000 1.0
C      1  0.4002520000000  0.4664070000000  0.5451810000000 1.0
C      1  0.6185000000000  0.5308510000000  0.5340040000000 1.0
C      1  0.4674210000000  0.6031890000000  0.4566460000000 1.0
C      1  0.5337750000000  0.3956470000000  0.4530140000000 1.0
C      1  0.4715730000000  0.3914930000000  0.5379650000000 1.0
C      1  0.5292480000000  0.6013060000000  0.5449320000000 1.0
C      1  0.5214810000000  0.5559120000000  0.4677340000000 1.0
C      1  0.4722040000000  0.4382280000000  0.4646480000000 1.0
C      1  0.4773300000000  0.5573050000000  0.5363130000000 1.0
C      1  0.5168290000000  0.4439980000000  0.5260720000000 1.0
C      1  0.5573680000000  0.5217760000000  0.4655550000000 1.0
C      1  0.4435740000000  0.4823820000000  0.4710610000000 1.0
C      1  0.5549960000000  0.4834430000000  0.5388430000000 1.0
C      1  0.4359580000000  0.5270440000000  0.5310140000000 1.0
C      1  0.5397370000000  0.4990550000000  0.4067680000000 1.0
C      1  0.4604560000000  0.5052140000000  0.4024620000000 1.0
C      1  0.4599900000000  0.5031440000000  0.5910090000000 1.0
C      1  0.5360330000000  0.5035050000000  0.5954210000000 1.0
C      1  0.5005740000000  0.5379610000000  0.4120700000000 1.0
C      1  0.5000740000000  0.4623450000000  0.4061850000000 1.0
C      1  0.4993360000000  0.4617740000000  0.5962830000000 1.0
C      1  0.4952830000000  0.5441470000000  0.5917870000000 1.0
C      1  0.4987180000000  0.5650390000000  0.4898860000000 1.0
C      1  0.4919090000000  0.4431170000000  0.4850600000000 1.0
C      1  0.5021930000000  0.5618970000000  0.5181100000000 1.0
C      1  0.4921890000000  0.4361040000000  0.5127170000000 1.0
C      1  0.5556940000000  0.5030690000000  0.4936010000000 1.0
C      1  0.4379940000000  0.5075250000000  0.4847970000000 1.0
C      1  0.5639350000000  0.5070380000000  0.5208880000000 1.0
C      1  0.4429490000000  0.5067140000000  0.5124430000000 1.0
C      1  0.5358460000000  0.5514880000000  0.5663430000000 1.0
C      1  0.4802220000000  0.4327470000000  0.5605960000000 1.0
C      1  0.4690060000000  0.5591000000000  0.4404900000000 1.0
C      1  0.5165340000000  0.4402160000000  0.4444290000000 1.0
C      1  0.5847440000000  0.5263500000000  0.5635930000000 1.0
C      1  0.4428810000000  0.4696950000000  0.5628740000000 1.0
C      1  0.5576780000000  0.4710580000000  0.4394210000000 1.0
C      1  0.4303270000000  0.5219630000000  0.4382890000000 1.0
C      1  0.6170310000000  0.5241690000000  0.4869780000000 1.0
C      1  0.3869650000000  0.4697860000000  0.4991810000000 1.0
C      1  0.3829870000000  0.5250790000000  0.5088960000000 1.0
C      1  0.6127970000000  0.4704970000000  0.5008450000000 1.0
C      1  0.5274240000000  0.6095290000000  0.4961100000000 1.0
C      1  0.4731780000000  0.3862670000000  0.4900370000000 1.0
C      1  0.5293200000000  0.3869140000000  0.4999550000000 1.0
C      1  0.4718450000000  0.6130840000000  0.5043500000000 1.0
C      1  0.5331080000000  0.4822750000000  0.4819720000000 1.0
C      1  0.4889940000000  0.5226340000000  0.4836530000000 1.0
C      1  0.4627680000000  0.4868710000000  0.5224340000000 1.0
C      1  0.5186470000000  0.5160680000000  0.5232850000000 1.0
C      1  0.4764690000000  0.5478020000000  0.4846330000000 1.0
C      1  0.5022840000000  0.4712180000000  0.4838700000000 1.0
C      1  0.4892190000000  0.4825480000000  0.5089600000000 1.0
C      1  0.5239310000000  0.5434790000000  0.5237670000000 1.0
C      1  0.5247050000000  0.4511140000000  0.3938670000000 1.0
C      1  0.4834360000000  0.5514990000000  0.3931580000000 1.0
C      1  0.4768030000000  0.4651130000000  0.6158410000000 1.0
C      1  0.5150860000000  0.5570630000000  0.6065730000000 1.0
C      1  0.4653710000000  0.5289040000000  0.3844590000000 1.0
C      1  0.5510220000000  0.4756380000000  0.3927250000000 1.0
C      1  0.4477730000000  0.4850680000000  0.6091260000000 1.0
C      1  0.5344030000000  0.5262310000000  0.6146570000000 1.0
C      1  0.4523460000000  0.4766170000000  0.4025230000000 1.0
C      1  0.5470720000000  0.5255820000000  0.4143480000000 1.0
C      1  0.5476880000000  0.4767890000000  0.5909040000000 1.0
C      1  0.4519590000000  0.5285270000000  0.5822220000000 1.0
C      1  0.4721170000000  0.4569360000000  0.4111160000000 1.0
C      1  0.5269690000000  0.5447770000000  0.4171340000000 1.0
C      1  0.4691490000000  0.5505180000000  0.5850800000000 1.0
C      1  0.5281460000000  0.4549150000000  0.5955220000000 1.0
C      1  0.4118200000000  0.4556350000000  0.4996040000000 1.0
C      1  0.5947340000000  0.5430390000000  0.4925690000000 1.0
C      1  0.5865060000000  0.4579240000000  0.5028780000000 1.0
C      1  0.4030080000000  0.5468360000000  0.5032860000000 1.0
C      1  0.4520420000000  0.4073330000000  0.4952970000000 1.0
C      1  0.5458960000000  0.5872300000000  0.5012680000000 1.0
C      1  0.4522240000000  0.5917000000000  0.5014410000000 1.0
C      1  0.5453480000000  0.4113130000000  0.4992490000000 1.0
C      1  0.4535610000000  0.5297940000000  0.3596270000000 1.0
C      1  0.5812480000000  0.4777910000000  0.4005010000000 1.0
C      1  0.5450150000000  0.5262740000000  0.6394070000000 1.0
C      1  0.4186730000000  0.4847290000000  0.5998220000000 1.0
C      1  0.5231600000000  0.4217020000000  0.4015480000000 1.0
C      1  0.4859290000000  0.5813480000000  0.4025960000000 1.0
C      1  0.5160260000000  0.5845780000000  0.5941060000000 1.0
C      1  0.4770080000000  0.4534310000000  0.6402920000000 1.0
C      1  0.6184560000000  0.5067590000000  0.4647460000000 1.0
C      1  0.3810740000000  0.4842020000000  0.4757260000000 1.0
C      1  0.3823620000000  0.5087460000000  0.5327190000000 1.0
C      1  0.6225380000000  0.4864080000000  0.5216670000000 1.0
C      1  0.5119700000000  0.6138150000000  0.4720060000000 1.0
C      1  0.4895080000000  0.3842100000000  0.4663850000000 1.0
C      1  0.5143940000000  0.3820870000000  0.5231070000000 1.0
C      1  0.4874760000000  0.6177240000000  0.5278240000000 1.0
C      1  0.4685560000000  0.5683010000000  0.5630420000000 1.0
C      1  0.5334250000000  0.4285160000000  0.5860120000000 1.0
C      1  0.5299790000000  0.5622250000000  0.4392600000000 1.0
C      1  0.4684940000000  0.4392170000000  0.4348800000000 1.0
C      1  0.5660720000000  0.4762220000000  0.5672740000000 1.0
C      1  0.4348630000000  0.5297870000000  0.5596390000000 1.0
C      1  0.5651130000000  0.5271530000000  0.4364210000000 1.0
C      1  0.4252240000000  0.4712710000000  0.4098590000000 1.0
C      1  0.5707470000000  0.5343630000000  0.5360920000000 1.0
C      1  0.4484170000000  0.4610790000000  0.5334300000000 1.0
C      1  0.4340690000000  0.5345750000000  0.4672340000000 1.0
C      1  0.5524020000000  0.4629220000000  0.4680340000000 1.0
C      1  0.5472000000000  0.5534760000000  0.5387860000000 1.0
C      1  0.4670010000000  0.4373310000000  0.5317590000000 1.0
C      1  0.5366230000000  0.4394680000000  0.4636010000000 1.0
C      1  0.4546630000000  0.5563450000000  0.4673660000000 1.0
C      1  0.4985740000000  0.5095720000000  0.5057790000000 1.0
END
