TITL C-3201372-1405-1661 -0.500817492597719 125000 -258.390813400112 0 0 43 (C1) n - 1
REM
REM in /home/nfs/bkarasulu/CARBON/AIRSS/Generating-Clusters/LCBOP/Higher-Symm/SD-CG/FIRE-CG
REM
REM
REM
REM
REM
REM ./C.cell (b20cbc046b6831c77cfcea5457e17084)
REM AIRSS Version 0.9.1 bugfix July 2018 build 013d7b7c2542+ Fri, 06 Jul 2018 19:26:36 +0100
REM compiler GCC version 9.2.1 20190827 (Red Hat 9.2.1-1)
REM options -cpp -mtune=generic -march=x86-64 -g -O0 -fpre-include=/usr/include/finclude/math-vector-fortran.h
REM seed -1172598382 -613107816 -385448143 1743058027 -579656863 1077296254 226644726 -1918426912 -1807512395 -844641320 1223397859 -1785877392 -343591921 1818164991 279113227 735688876 2128213237 -1022984469 -356901567 -204530798 -55501941 -207586625 1169734101 111897518 -1653359709 -1397701541 -2129284004 -679811564 84258922 -1809094591 189184117 1113531706 156623192
REM
CELL 1.54180   50.00000   50.00000   50.00000   90.00000   90.00000   90.00000
LATT -1
SFAC C  
C      1  0.5066970000000  0.5245460000000  0.5098070000000 1.0
C      1  0.5147070000000  0.4887360000000  0.5967700000000 1.0
C      1  0.5053370000000  0.4439410000000  0.5605390000000 1.0
C      1  0.5165800000000  0.5950960000000  0.4175890000000 1.0
C      1  0.4922040000000  0.5577830000000  0.3726590000000 1.0
C      1  0.4895810000000  0.5889510000000  0.4116170000000 1.0
C      1  0.5029190000000  0.4423080000000  0.5887930000000 1.0
C      1  0.5045560000000  0.4537200000000  0.4480320000000 1.0
C      1  0.5220230000000  0.5327650000000  0.4048100000000 1.0
C      1  0.4766460000000  0.4395400000000  0.5991860000000 1.0
C      1  0.4685470000000  0.5553700000000  0.4452280000000 1.0
C      1  0.5102430000000  0.5169280000000  0.4246480000000 1.0
C      1  0.5461940000000  0.5034610000000  0.4934980000000 1.0
C      1  0.4888820000000  0.4979470000000  0.6044720000000 1.0
C      1  0.4456090000000  0.4568500000000  0.5678530000000 1.0
C      1  0.5080110000000  0.5374820000000  0.3806860000000 1.0
C      1  0.4842960000000  0.4441230000000  0.5400870000000 1.0
C      1  0.5380810000000  0.5788030000000  0.4179670000000 1.0
C      1  0.5191620000000  0.4611470000000  0.6027490000000 1.0
C      1  0.4430390000000  0.4552390000000  0.5182560000000 1.0
C      1  0.4974280000000  0.4481270000000  0.5136660000000 1.0
C      1  0.4576060000000  0.4599930000000  0.5931330000000 1.0
C      1  0.4842010000000  0.5803160000000  0.3851610000000 1.0
C      1  0.5267260000000  0.4979690000000  0.5726040000000 1.0
C      1  0.4647050000000  0.4857090000000  0.6029180000000 1.0
C      1  0.5165890000000  0.5207500000000  0.5595740000000 1.0
C      1  0.4554370000000  0.4591620000000  0.4944950000000 1.0
C      1  0.5253270000000  0.4505570000000  0.5197720000000 1.0
C      1  0.5620650000000  0.4896000000000  0.5391740000000 1.0
C      1  0.5073850000000  0.5294090000000  0.5360520000000 1.0
C      1  0.4943340000000  0.5137950000000  0.4475110000000 1.0
C      1  0.4564120000000  0.4504700000000  0.5427150000000 1.0
C      1  0.4971470000000  0.4696130000000  0.4690850000000 1.0
C      1  0.4738550000000  0.5779710000000  0.4321430000000 1.0
C      1  0.4835300000000  0.4582540000000  0.4911730000000 1.0
C      1  0.4467280000000  0.5141460000000  0.4566750000000 1.0
C      1  0.4695500000000  0.5277380000000  0.4500510000000 1.0
C      1  0.5295900000000  0.4552270000000  0.5480780000000 1.0
C      1  0.5188930000000  0.5092430000000  0.4895830000000 1.0
C      1  0.5407570000000  0.5525370000000  0.4125520000000 1.0
C      1  0.5035470000000  0.4974370000000  0.4688710000000 1.0
C      1  0.5629900000000  0.4976210000000  0.5135660000000 1.0
C      1  0.5418850000000  0.4796200000000  0.5562050000000 1.0
END
