TITL C-3201378-2706-986 1.1198554370755e-06 125000 -1073.53467084943 0 0 178 (C1) n - 1
REM
REM in /home/nfs/bkarasulu/CARBON/AIRSS/Generating-Clusters/LCBOP/Higher-Symm/SD-CG/FIRE-CG
REM
REM
REM
REM
REM
REM ./C.cell (b20cbc046b6831c77cfcea5457e17084)
REM AIRSS Version 0.9.1 bugfix July 2018 build 013d7b7c2542+ Fri, 06 Jul 2018 19:26:36 +0100
REM compiler GCC version 9.2.1 20190827 (Red Hat 9.2.1-1)
REM options -cpp -mtune=generic -march=x86-64 -g -O0 -fpre-include=/usr/include/finclude/math-vector-fortran.h
REM seed -250427343 -1926494437 1711419452 -266767155 265707230 1587762101 1433596054 -387848803 1951911294 -1407644272 -999815038 1436093376 1798479179 382967018 -1756051213 -642805357 2031414892 -2090641928 -818888756 1929964648 1247122585 -1213818844 382806702 -655111169 1533788232 1849298949 872771277 -802850963 778077211 108995781 -356478 -896564444 653492875
REM
CELL 1.54180   50.00000   50.00000   50.00000   90.00000   90.00000   90.00000
LATT -1
SFAC C  
C      1  0.4703260000000  0.3320210000000  0.5233870000000 1.0
C      1  0.4718530000000  0.5714630000000  0.3544250000000 1.0
C      1  0.4731350000000  0.5975610000000  0.6316130000000 1.0
C      1  0.5273480000000  0.3382460000000  0.5109860000000 1.0
C      1  0.5304340000000  0.5687250000000  0.3506460000000 1.0
C      1  0.5305100000000  0.6095130000000  0.6300140000000 1.0
C      1  0.4492060000000  0.5259050000000  0.5598300000000 1.0
C      1  0.4449700000000  0.4262470000000  0.4918040000000 1.0
C      1  0.4486970000000  0.5377430000000  0.4511970000000 1.0
C      1  0.5561310000000  0.5321910000000  0.5681250000000 1.0
C      1  0.5507480000000  0.4379020000000  0.4908380000000 1.0
C      1  0.5526960000000  0.5383410000000  0.4487750000000 1.0
C      1  0.4241320000000  0.5250540000000  0.5452420000000 1.0
C      1  0.4224270000000  0.4446030000000  0.4965840000000 1.0
C      1  0.4234920000000  0.5248640000000  0.4578850000000 1.0
C      1  0.5783080000000  0.5261340000000  0.5496050000000 1.0
C      1  0.5761380000000  0.4502020000000  0.4980890000000 1.0
C      1  0.5776320000000  0.5250400000000  0.4557490000000 1.0
C      1  0.5735580000000  0.5865130000000  0.4754230000000 1.0
C      1  0.5745080000000  0.4727970000000  0.5903920000000 1.0
C      1  0.5747050000000  0.4342360000000  0.4319800000000 1.0
C      1  0.4247540000000  0.5891930000000  0.4760970000000 1.0
C      1  0.4275360000000  0.4748780000000  0.5875380000000 1.0
C      1  0.4251560000000  0.4346340000000  0.4297480000000 1.0
C      1  0.5490860000000  0.5340560000000  0.5047570000000 1.0
C      1  0.5502570000000  0.4799560000000  0.5356890000000 1.0
C      1  0.5524560000000  0.4803430000000  0.4627110000000 1.0
C      1  0.4478930000000  0.5401860000000  0.5028550000000 1.0
C      1  0.4515260000000  0.4787020000000  0.5277160000000 1.0
C      1  0.4498690000000  0.4781710000000  0.4637150000000 1.0
C      1  0.4098430000000  0.4505240000000  0.4481850000000 1.0
C      1  0.4090310000000  0.5660780000000  0.4829540000000 1.0
C      1  0.4124190000000  0.4810750000000  0.5639830000000 1.0
C      1  0.5907450000000  0.4506530000000  0.4494330000000 1.0
C      1  0.5890430000000  0.5637080000000  0.4832830000000 1.0
C      1  0.5898810000000  0.4805080000000  0.5673840000000 1.0
C      1  0.5932130000000  0.4780550000000  0.4393180000000 1.0
C      1  0.5901530000000  0.5596610000000  0.5120400000000 1.0
C      1  0.5913220000000  0.4594890000000  0.5471320000000 1.0
C      1  0.4085300000000  0.4785960000000  0.4403090000000 1.0
C      1  0.4073150000000  0.5619460000000  0.5119490000000 1.0
C      1  0.4105460000000  0.4590730000000  0.5449750000000 1.0
C      1  0.4863400000000  0.5669170000000  0.4847280000000 1.0
C      1  0.4858920000000  0.4774810000000  0.5658330000000 1.0
C      1  0.4872030000000  0.4506420000000  0.4441290000000 1.0
C      1  0.5131210000000  0.5648000000000  0.4859160000000 1.0
C      1  0.5126660000000  0.4765960000000  0.5685740000000 1.0
C      1  0.5141330000000  0.4510910000000  0.4458020000000 1.0
C      1  0.4643990000000  0.4676280000000  0.4854910000000 1.0
C      1  0.4623320000000  0.5175510000000  0.4924490000000 1.0
C      1  0.4694880000000  0.5025710000000  0.5183240000000 1.0
C      1  0.5379420000000  0.4842540000000  0.4875580000000 1.0
C      1  0.5364350000000  0.5137830000000  0.4877860000000 1.0
C      1  0.5371580000000  0.5050880000000  0.5359010000000 1.0
C      1  0.5146290000000  0.6082430000000  0.3245420000000 1.0
C      1  0.5146060000000  0.6144380000000  0.6770840000000 1.0
C      1  0.5126190000000  0.2930280000000  0.4957680000000 1.0
C      1  0.4877950000000  0.6095390000000  0.3263340000000 1.0
C      1  0.4883000000000  0.6087480000000  0.6778530000000 1.0
C      1  0.4865110000000  0.2900860000000  0.5016590000000 1.0
C      1  0.4739800000000  0.5304660000000  0.3814560000000 1.0
C      1  0.4748120000000  0.5925010000000  0.5828230000000 1.0
C      1  0.4709410000000  0.3784590000000  0.5393810000000 1.0
C      1  0.5281250000000  0.5290930000000  0.3796280000000 1.0
C      1  0.5295140000000  0.5981310000000  0.5822750000000 1.0
C      1  0.5253290000000  0.3818910000000  0.5333960000000 1.0
C      1  0.5354260000000  0.4695060000000  0.4426140000000 1.0
C      1  0.5337820000000  0.5588310000000  0.5042730000000 1.0
C      1  0.5342480000000  0.4649330000000  0.5543720000000 1.0
C      1  0.4654710000000  0.4687370000000  0.4412730000000 1.0
C      1  0.4647740000000  0.5629950000000  0.5026020000000 1.0
C      1  0.4661300000000  0.4654220000000  0.5495490000000 1.0
C      1  0.4702200000000  0.5721430000000  0.5302600000000 1.0
C      1  0.4695190000000  0.4359560000000  0.5449700000000 1.0
C      1  0.4702760000000  0.4913390000000  0.4228140000000 1.0
C      1  0.5312070000000  0.5717060000000  0.5311620000000 1.0
C      1  0.5298530000000  0.4372760000000  0.5450030000000 1.0
C      1  0.5301470000000  0.4908120000000  0.4224110000000 1.0
C      1  0.5315590000000  0.6145090000000  0.6562450000000 1.0
C      1  0.5289760000000  0.3138900000000  0.5001120000000 1.0
C      1  0.5317510000000  0.5905100000000  0.3352230000000 1.0
C      1  0.4716740000000  0.6016520000000  0.6579800000000 1.0
C      1  0.4695110000000  0.3072340000000  0.5134330000000 1.0
C      1  0.4706160000000  0.5934450000000  0.3392770000000 1.0
C      1  0.4043910000000  0.5072630000000  0.5556010000000 1.0
C      1  0.4026670000000  0.4446340000000  0.4755850000000 1.0
C      1  0.4028320000000  0.5432700000000  0.4660330000000 1.0
C      1  0.5975970000000  0.5071560000000  0.5594280000000 1.0
C      1  0.5965690000000  0.4469640000000  0.4778000000000 1.0
C      1  0.5976590000000  0.5424330000000  0.4661330000000 1.0
C      1  0.4563290000000  0.5711290000000  0.5777690000000 1.0
C      1  0.4511790000000  0.3928040000000  0.5249450000000 1.0
C      1  0.4561710000000  0.5347750000000  0.4033070000000 1.0
C      1  0.5494640000000  0.5783290000000  0.5781020000000 1.0
C      1  0.5432320000000  0.3981220000000  0.5180600000000 1.0
C      1  0.5462250000000  0.5333060000000  0.4011350000000 1.0
C      1  0.3765630000000  0.4388010000000  0.4816800000000 1.0
C      1  0.3770270000000  0.5393960000000  0.4575820000000 1.0
C      1  0.3782690000000  0.5151010000000  0.5577540000000 1.0
C      1  0.6220470000000  0.4400550000000  0.4853660000000 1.0
C      1  0.6240450000000  0.5391850000000  0.4598230000000 1.0
C      1  0.6239180000000  0.5146320000000  0.5614130000000 1.0
C      1  0.5579310000000  0.4522850000000  0.5979190000000 1.0
C      1  0.5578250000000  0.4377430000000  0.4105200000000 1.0
C      1  0.5567960000000  0.6049160000000  0.4867340000000 1.0
C      1  0.4437460000000  0.4550150000000  0.5970650000000 1.0
C      1  0.4418030000000  0.4387400000000  0.4082820000000 1.0
C      1  0.4419330000000  0.6067050000000  0.4884360000000 1.0
C      1  0.5158790000000  0.6079430000000  0.5583610000000 1.0
C      1  0.5144720000000  0.3939330000000  0.5580700000000 1.0
C      1  0.5154470000000  0.5026210000000  0.3785820000000 1.0
C      1  0.4859630000000  0.6063910000000  0.5591720000000 1.0
C      1  0.4846380000000  0.3933180000000  0.5604230000000 1.0
C      1  0.4854780000000  0.5034190000000  0.3791540000000 1.0
C      1  0.5773340000000  0.6063750000000  0.5289740000000 1.0
C      1  0.5770780000000  0.4174680000000  0.5727410000000 1.0
C      1  0.5773600000000  0.4754370000000  0.3905590000000 1.0
C      1  0.4231090000000  0.6067560000000  0.5314660000000 1.0
C      1  0.4230640000000  0.4191840000000  0.5748570000000 1.0
C      1  0.4229380000000  0.4782300000000  0.3911280000000 1.0
C      1  0.4877460000000  0.5971470000000  0.6077140000000 1.0
C      1  0.4842850000000  0.3556860000000  0.5287930000000 1.0
C      1  0.4867050000000  0.5512530000000  0.3668610000000 1.0
C      1  0.5162680000000  0.6017570000000  0.6071790000000 1.0
C      1  0.5126650000000  0.3582460000000  0.5239850000000 1.0
C      1  0.5155100000000  0.5501820000000  0.3653750000000 1.0
C      1  0.4862630000000  0.5094660000000  0.4428330000000 1.0
C      1  0.4874700000000  0.5480080000000  0.5402710000000 1.0
C      1  0.4858660000000  0.4371750000000  0.5184430000000 1.0
C      1  0.5139950000000  0.5104520000000  0.4408970000000 1.0
C      1  0.5150490000000  0.5492930000000  0.5452300000000 1.0
C      1  0.5132330000000  0.4439350000000  0.5192320000000 1.0
C      1  0.5456930000000  0.4094810000000  0.4917300000000 1.0
C      1  0.5492650000000  0.5512510000000  0.4232630000000 1.0
C      1  0.5552890000000  0.5523070000000  0.5883240000000 1.0
C      1  0.4457140000000  0.3983230000000  0.4975070000000 1.0
C      1  0.4535340000000  0.5515970000000  0.4264240000000 1.0
C      1  0.4530020000000  0.5429500000000  0.5830860000000 1.0
C      1  0.5253610000000  0.4768180000000  0.3948910000000 1.0
C      1  0.5256260000000  0.6024520000000  0.5283780000000 1.0
C      1  0.5253480000000  0.4208280000000  0.5712850000000 1.0
C      1  0.4747600000000  0.4777730000000  0.3948910000000 1.0
C      1  0.4749790000000  0.6027670000000  0.5293800000000 1.0
C      1  0.4748650000000  0.4213520000000  0.5722590000000 1.0
C      1  0.5319300000000  0.5270520000000  0.5530300000000 1.0
C      1  0.5294460000000  0.4569710000000  0.4981490000000 1.0
C      1  0.5304110000000  0.5242670000000  0.4604230000000 1.0
C      1  0.4718160000000  0.5234120000000  0.5419540000000 1.0
C      1  0.4690460000000  0.4416370000000  0.4954420000000 1.0
C      1  0.4699090000000  0.5218530000000  0.4637730000000 1.0
C      1  0.4059600000000  0.5856640000000  0.5278930000000 1.0
C      1  0.4074640000000  0.4333350000000  0.5572260000000 1.0
C      1  0.4064060000000  0.4837380000000  0.4122770000000 1.0
C      1  0.5930670000000  0.5839390000000  0.5270120000000 1.0
C      1  0.5935170000000  0.4327690000000  0.5570490000000 1.0
C      1  0.5947650000000  0.4811840000000  0.4109400000000 1.0
C      1  0.5528610000000  0.5083160000000  0.4132980000000 1.0
C      1  0.5543250000000  0.5744080000000  0.5501460000000 1.0
C      1  0.5518480000000  0.4202140000000  0.5339970000000 1.0
C      1  0.4481930000000  0.5096130000000  0.4141650000000 1.0
C      1  0.4480190000000  0.5724200000000  0.5504670000000 1.0
C      1  0.4464880000000  0.4185380000000  0.5366450000000 1.0
C      1  0.5524700000000  0.6108900000000  0.5147010000000 1.0
C      1  0.5527310000000  0.4265510000000  0.5855080000000 1.0
C      1  0.5525560000000  0.4606360000000  0.3931580000000 1.0
C      1  0.4475360000000  0.6115420000000  0.5165870000000 1.0
C      1  0.4479560000000  0.4283360000000  0.5866670000000 1.0
C      1  0.4472690000000  0.4625540000000  0.3924550000000 1.0
C      1  0.4261890000000  0.4632530000000  0.5203770000000 1.0
C      1  0.4256170000000  0.4949640000000  0.4571970000000 1.0
C      1  0.4241470000000  0.5399600000000  0.5200290000000 1.0
C      1  0.5743320000000  0.4654640000000  0.5241380000000 1.0
C      1  0.5765520000000  0.4957270000000  0.4548020000000 1.0
C      1  0.5744510000000  0.5367090000000  0.5214940000000 1.0
C      1  0.4997670000000  0.4606760000000  0.3941110000000 1.0
C      1  0.5004150000000  0.4296900000000  0.5860060000000 1.0
C      1  0.5000830000000  0.6095650000000  0.5138440000000 1.0
C      1  0.4973630000000  0.4928530000000  0.5129560000000 1.0
END
