TITL C-3201378-2706-2230 2.1929631457725 125000 -921.285962036482 0 0 149 (C1) n - 1
REM
REM in /home/nfs/bkarasulu/CARBON/AIRSS/Generating-Clusters/LCBOP/Higher-Symm/SD-CG/FIRE-CG
REM
REM
REM
REM
REM
REM ./C.cell (b20cbc046b6831c77cfcea5457e17084)
REM AIRSS Version 0.9.1 bugfix July 2018 build 013d7b7c2542+ Fri, 06 Jul 2018 19:26:36 +0100
REM compiler GCC version 9.2.1 20190827 (Red Hat 9.2.1-1)
REM options -cpp -mtune=generic -march=x86-64 -g -O0 -fpre-include=/usr/include/finclude/math-vector-fortran.h
REM seed -1507264702 -911398911 -1740052043 -111041213 307895736 -1741893766 -470114081 958313304 -120996801 -952273264 2123750581 315348449 -1714161403 854096125 1412860128 1510594929 -784640227 881345764 254158534 628052928 -1262952856 1960873503 441306810 536215201 -932218863 -1905469726 -1341598517 -554479048 -2000874882 1098175064 -182333017 -546572065 -923912181
REM
CELL 1.54180   50.00000   50.00000   50.00000   90.00000   90.00000   90.00000
LATT -1
SFAC C  
C      1  0.5173630000000  0.5894630000000  0.4436670000000 1.0
C      1  0.4106980000000  0.5129750000000  0.4451160000000 1.0
C      1  0.4841980000000  0.4105050000000  0.4398670000000 1.0
C      1  0.5902170000000  0.4836420000000  0.4431280000000 1.0
C      1  0.4866850000000  0.5923510000000  0.5581760000000 1.0
C      1  0.5879330000000  0.5164850000000  0.5543610000000 1.0
C      1  0.5160160000000  0.4166250000000  0.5628180000000 1.0
C      1  0.4162730000000  0.4828850000000  0.5637040000000 1.0
C      1  0.5261130000000  0.4422680000000  0.5191050000000 1.0
C      1  0.5370990000000  0.5166080000000  0.5226300000000 1.0
C      1  0.4753590000000  0.5470610000000  0.5254870000000 1.0
C      1  0.4577220000000  0.4809080000000  0.5278000000000 1.0
C      1  0.4772300000000  0.4516380000000  0.4686570000000 1.0
C      1  0.4573460000000  0.5214470000000  0.4806050000000 1.0
C      1  0.5217470000000  0.5447540000000  0.4764220000000 1.0
C      1  0.5438930000000  0.4646270000000  0.4692050000000 1.0
C      1  0.4402570000000  0.4316690000000  0.5431410000000 1.0
C      1  0.5667840000000  0.4400120000000  0.5453190000000 1.0
C      1  0.5618160000000  0.5666500000000  0.5403910000000 1.0
C      1  0.4352960000000  0.5657290000000  0.5436060000000 1.0
C      1  0.5676120000000  0.4302580000000  0.4578420000000 1.0
C      1  0.4322660000000  0.4359130000000  0.4606730000000 1.0
C      1  0.4372580000000  0.5660800000000  0.4571960000000 1.0
C      1  0.5666320000000  0.5604910000000  0.4593100000000 1.0
C      1  0.5981290000000  0.5163150000000  0.4830380000000 1.0
C      1  0.4829370000000  0.6014290000000  0.4815590000000 1.0
C      1  0.4026820000000  0.4820350000000  0.4870160000000 1.0
C      1  0.5212060000000  0.3940360000000  0.4793980000000 1.0
C      1  0.4032150000000  0.5188740000000  0.5220530000000 1.0
C      1  0.5184150000000  0.6012600000000  0.5172970000000 1.0
C      1  0.5972090000000  0.4815310000000  0.5166770000000 1.0
C      1  0.4868390000000  0.3997740000000  0.5199740000000 1.0
C      1  0.4903490000000  0.4112550000000  0.5469110000000 1.0
C      1  0.5861220000000  0.4893120000000  0.5419800000000 1.0
C      1  0.5136200000000  0.5924050000000  0.5443930000000 1.0
C      1  0.4129240000000  0.5155960000000  0.5491840000000 1.0
C      1  0.5160560000000  0.4070890000000  0.4541540000000 1.0
C      1  0.4100260000000  0.4859250000000  0.4594160000000 1.0
C      1  0.4895060000000  0.5899470000000  0.4558270000000 1.0
C      1  0.5890600000000  0.5109100000000  0.4563320000000 1.0
C      1  0.4911150000000  0.5924100000000  0.4031910000000 1.0
C      1  0.4052700000000  0.4851020000000  0.4060730000000 1.0
C      1  0.5129970000000  0.4250760000000  0.4017730000000 1.0
C      1  0.5926760000000  0.5123580000000  0.4036530000000 1.0
C      1  0.5156590000000  0.5911280000000  0.5975440000000 1.0
C      1  0.5907370000000  0.4922560000000  0.5957410000000 1.0
C      1  0.4855530000000  0.4187290000000  0.6016450000000 1.0
C      1  0.4265560000000  0.5124840000000  0.6014330000000 1.0
C      1  0.5242740000000  0.4898730000000  0.5253470000000 1.0
C      1  0.4983720000000  0.5436020000000  0.5410940000000 1.0
C      1  0.4621030000000  0.5028490000000  0.5441110000000 1.0
C      1  0.5005510000000  0.4880600000000  0.5076950000000 1.0
C      1  0.4678480000000  0.4982160000000  0.4681550000000 1.0
C      1  0.4973830000000  0.5411180000000  0.4616100000000 1.0
C      1  0.5234400000000  0.5017000000000  0.4658440000000 1.0
C      1  0.4948220000000  0.4589050000000  0.4477670000000 1.0
C      1  0.4630680000000  0.5443040000000  0.6003440000000 1.0
C      1  0.4365910000000  0.4207450000000  0.6005430000000 1.0
C      1  0.5439440000000  0.4842130000000  0.5979990000000 1.0
C      1  0.5367430000000  0.5477500000000  0.5986880000000 1.0
C      1  0.5509770000000  0.5353100000000  0.3988700000000 1.0
C      1  0.5363830000000  0.4674290000000  0.4105090000000 1.0
C      1  0.4435580000000  0.4562030000000  0.4025910000000 1.0
C      1  0.4815420000000  0.5462850000000  0.3995380000000 1.0
C      1  0.4183610000000  0.4625750000000  0.5001000000000 1.0
C      1  0.5442360000000  0.4046970000000  0.4933060000000 1.0
C      1  0.5793480000000  0.5326410000000  0.4965240000000 1.0
C      1  0.4639550000000  0.5854250000000  0.4947500000000 1.0
C      1  0.5825710000000  0.4617420000000  0.5030390000000 1.0
C      1  0.4676720000000  0.4150270000000  0.5055600000000 1.0
C      1  0.4169920000000  0.5382550000000  0.5064940000000 1.0
C      1  0.5353670000000  0.5823380000000  0.5050640000000 1.0
C      1  0.4222050000000  0.5381320000000  0.4569930000000 1.0
C      1  0.4556950000000  0.4183220000000  0.4485520000000 1.0
C      1  0.5831470000000  0.4555270000000  0.4501950000000 1.0
C      1  0.5434780000000  0.5774660000000  0.4507530000000 1.0
C      1  0.5764550000000  0.5423450000000  0.5477570000000 1.0
C      1  0.5439180000000  0.4249180000000  0.5566130000000 1.0
C      1  0.4252930000000  0.4584780000000  0.5481530000000 1.0
C      1  0.4593420000000  0.5828000000000  0.5510740000000 1.0
C      1  0.5984100000000  0.5138670000000  0.5809760000000 1.0
C      1  0.4919900000000  0.5980480000000  0.5859230000000 1.0
C      1  0.4189580000000  0.4887180000000  0.5909670000000 1.0
C      1  0.5101720000000  0.4165870000000  0.5908790000000 1.0
C      1  0.4035740000000  0.5096030000000  0.4177520000000 1.0
C      1  0.5141170000000  0.5986270000000  0.4165130000000 1.0
C      1  0.5975120000000  0.4884520000000  0.4156800000000 1.0
C      1  0.4908850000000  0.4132140000000  0.4121650000000 1.0
C      1  0.5201610000000  0.4998060000000  0.5956660000000 1.0
C      1  0.5160820000000  0.5282810000000  0.6026260000000 1.0
C      1  0.4901150000000  0.5389610000000  0.5934920000000 1.0
C      1  0.4132600000000  0.4209660000000  0.6121540000000 1.0
C      1  0.4686110000000  0.4651240000000  0.4060330000000 1.0
C      1  0.5024310000000  0.5311190000000  0.3909170000000 1.0
C      1  0.5279250000000  0.5189230000000  0.3958420000000 1.0
C      1  0.5288650000000  0.4952270000000  0.4131680000000 1.0
C      1  0.5747160000000  0.5321670000000  0.4138650000000 1.0
C      1  0.4744870000000  0.5707510000000  0.4125410000000 1.0
C      1  0.4202040000000  0.4631700000000  0.4165130000000 1.0
C      1  0.5339300000000  0.4386840000000  0.4159760000000 1.0
C      1  0.4378900000000  0.5357140000000  0.5891710000000 1.0
C      1  0.5346580000000  0.5731340000000  0.5857620000000 1.0
C      1  0.5687360000000  0.4764170000000  0.5861450000000 1.0
C      1  0.4611920000000  0.4205370000000  0.5875750000000 1.0
C      1  0.5381950000000  0.5778480000000  0.5569540000000 1.0
C      1  0.4271400000000  0.5407600000000  0.5617090000000 1.0
C      1  0.4636060000000  0.4214550000000  0.5588220000000 1.0
C      1  0.5733630000000  0.4671940000000  0.5581940000000 1.0
C      1  0.4656960000000  0.5753280000000  0.4408470000000 1.0
C      1  0.5767170000000  0.5357130000000  0.4428840000000 1.0
C      1  0.5414580000000  0.4234150000000  0.4412350000000 1.0
C      1  0.4197400000000  0.4603610000000  0.4455550000000 1.0
C      1  0.5209210000000  0.5400750000000  0.5250630000000 1.0
C      1  0.4569910000000  0.5268840000000  0.5308200000000 1.0
C      1  0.4805970000000  0.4709750000000  0.5166730000000 1.0
C      1  0.5384500000000  0.4667930000000  0.5147000000000 1.0
C      1  0.4756310000000  0.5425370000000  0.4794000000000 1.0
C      1  0.5386740000000  0.5217630000000  0.4769150000000 1.0
C      1  0.5216540000000  0.4592180000000  0.4555570000000 1.0
C      1  0.4587800000000  0.4719010000000  0.4740220000000 1.0
C      1  0.4749480000000  0.5599680000000  0.5012390000000 1.0
C      1  0.4320910000000  0.4712410000000  0.5228910000000 1.0
C      1  0.5324950000000  0.4166870000000  0.5159150000000 1.0
C      1  0.5545130000000  0.5194480000000  0.5002260000000 1.0
C      1  0.5223070000000  0.5574360000000  0.5014670000000 1.0
C      1  0.5564750000000  0.4688000000000  0.4935950000000 1.0
C      1  0.4793130000000  0.4301790000000  0.4854190000000 1.0
C      1  0.4304010000000  0.5285630000000  0.4835270000000 1.0
C      1  0.5196130000000  0.5053680000000  0.4381600000000 1.0
C      1  0.4957160000000  0.5222450000000  0.4391540000000 1.0
C      1  0.4751090000000  0.5017930000000  0.4393130000000 1.0
C      1  0.4819550000000  0.4759320000000  0.4280250000000 1.0
C      1  0.4816740000000  0.5052510000000  0.5641610000000 1.0
C      1  0.4915350000000  0.5326150000000  0.5657240000000 1.0
C      1  0.5186600000000  0.4805920000000  0.5527200000000 1.0
C      1  0.5035060000000  0.4900790000000  0.5739170000000 1.0
C      1  0.4253270000000  0.5647900000000  0.5142410000000 1.0
C      1  0.4415800000000  0.4234570000000  0.5134670000000 1.0
C      1  0.5786920000000  0.4344530000000  0.5113740000000 1.0
C      1  0.5626470000000  0.5753650000000  0.5112730000000 1.0
C      1  0.5748360000000  0.5601890000000  0.4889230000000 1.0
C      1  0.5682020000000  0.4192580000000  0.4866040000000 1.0
C      1  0.4272520000000  0.4368350000000  0.4908440000000 1.0
C      1  0.4364990000000  0.5791750000000  0.4901090000000 1.0
C      1  0.5024190000000  0.3849880000000  0.5001380000000 1.0
C      1  0.6119280000000  0.4987450000000  0.4999590000000 1.0
C      1  0.3901820000000  0.4998180000000  0.5053910000000 1.0
C      1  0.5010350000000  0.6143240000000  0.4992110000000 1.0
C      1  0.5006550000000  0.4955750000000  0.4816020000000 1.0
END
