TITL C-3201377-4638-2074 84025.8307112185 125000 -1202.8737970497 0 0 196 (C1) n - 1
REM
REM in /home/nfs/bkarasulu/CARBON/AIRSS/Generating-Clusters/LCBOP/Higher-Symm/SD-CG/FIRE-CG
REM
REM
REM
REM
REM
REM ./C.cell (b20cbc046b6831c77cfcea5457e17084)
REM AIRSS Version 0.9.1 bugfix July 2018 build 013d7b7c2542+ Fri, 06 Jul 2018 19:26:36 +0100
REM compiler GCC version 9.2.1 20190827 (Red Hat 9.2.1-1)
REM options -cpp -mtune=generic -march=x86-64 -g -O0 -fpre-include=/usr/include/finclude/math-vector-fortran.h
REM seed 607986929 1671857679 -77551182 1053262448 966208475 -1978957599 310203793 1407821808 -110021924 1515786140 733589752 -138797766 -1062983139 -1178667489 -209638127 -131485494 -156797618 -642652372 -833494045 1212172609 -757188086 27661340 154701471 -273392114 -287255514 -312426653 -495378673 -1151684323 1731119678 432448491 1724057537 1235933142 698026968
REM
CELL 1.54180   50.00000   50.00000   50.00000   90.00000   90.00000   90.00000
LATT -1
SFAC C  
C      1  0.4232720000000  0.4930630000000  0.6167200000000 1.0
C      1  0.4240030000000  0.4928700000000  0.3908330000000 1.0
C      1  0.6532750000000  0.5155770000000  0.4532400000000 1.0
C      1  0.4703690000000  0.4939660000000  0.5198750000000 1.0
C      1  0.5705290000000  0.4475590000000  0.5573680000000 1.0
C      1  0.4400930000000  0.5181390000000  0.5552920000000 1.0
C      1  0.5651480000000  0.5657360000000  0.3850610000000 1.0
C      1  0.5382900000000  0.6051760000000  0.4853630000000 1.0
C      1  0.4138440000000  0.5326980000000  0.5904740000000 1.0
C      1  0.3737410000000  0.5077910000000  0.5635130000000 1.0
C      1  0.4502890000000  0.3871810000000  0.5212670000000 1.0
C      1  0.5749440000000  0.5266700000000  0.4415920000000 1.0
C      1  0.5655500000000  0.4012320000000  0.5237770000000 1.0
C      1  0.6345500000000  0.4614210000000  0.5246340000000 1.0
C      1  0.4316090000000  0.4635170000000  0.5205720000000 1.0
C      1  0.5529030000000  0.3973370000000  0.4397250000000 1.0
C      1  0.4361940000000  0.5540750000000  0.4091110000000 1.0
C      1  0.5501910000000  0.5250650000000  0.5972670000000 1.0
C      1  0.5547770000000  0.5457930000000  0.4001900000000 1.0
C      1  0.5052580000000  0.6038960000000  0.5454200000000 1.0
C      1  0.4458120000000  0.5158420000000  0.4740100000000 1.0
C      1  0.4662260000000  0.4905590000000  0.5933380000000 1.0
C      1  0.5626580000000  0.4471110000000  0.4249890000000 1.0
C      1  0.4914670000000  0.4771710000000  0.5980690000000 1.0
C      1  0.5251550000000  0.5389110000000  0.4035360000000 1.0
C      1  0.5780470000000  0.4480830000000  0.4705980000000 1.0
C      1  0.5354690000000  0.5683610000000  0.4522360000000 1.0
C      1  0.4121270000000  0.4145640000000  0.4950010000000 1.0
C      1  0.5130110000000  0.4856070000000  0.4133670000000 1.0
C      1  0.4975780000000  0.3868340000000  0.5430710000000 1.0
C      1  0.6172840000000  0.4861960000000  0.4414080000000 1.0
C      1  0.4988190000000  0.4505610000000  0.5913510000000 1.0
C      1  0.4933220000000  0.4239330000000  0.4843800000000 1.0
C      1  0.5614550000000  0.5720850000000  0.5480650000000 1.0
C      1  0.5055740000000  0.6428060000000  0.4831310000000 1.0
C      1  0.5364060000000  0.5212950000000  0.4722770000000 1.0
C      1  0.3936880000000  0.4879320000000  0.4306570000000 1.0
C      1  0.3990390000000  0.4398940000000  0.4902130000000 1.0
C      1  0.4311480000000  0.5315950000000  0.4557740000000 1.0
C      1  0.5158010000000  0.5161270000000  0.4941340000000 1.0
C      1  0.4834560000000  0.5660370000000  0.4563300000000 1.0
C      1  0.6373470000000  0.4787560000000  0.5045970000000 1.0
C      1  0.4426290000000  0.5365420000000  0.4303530000000 1.0
C      1  0.4866900000000  0.5124240000000  0.6461210000000 1.0
C      1  0.5170570000000  0.5429590000000  0.5340920000000 1.0
C      1  0.5887780000000  0.3941200000000  0.4796090000000 1.0
C      1  0.5376610000000  0.5762800000000  0.4814620000000 1.0
C      1  0.3707840000000  0.4754010000000  0.5115530000000 1.0
C      1  0.5718800000000  0.6024780000000  0.4504380000000 1.0
C      1  0.4654040000000  0.5154840000000  0.3670900000000 1.0
C      1  0.5686050000000  0.6433510000000  0.4773730000000 1.0
C      1  0.6194420000000  0.5616000000000  0.4822290000000 1.0
C      1  0.6017810000000  0.5422660000000  0.4920020000000 1.0
C      1  0.4767970000000  0.5659280000000  0.5581000000000 1.0
C      1  0.5598560000000  0.6182250000000  0.4712400000000 1.0
C      1  0.4822020000000  0.6505340000000  0.4956890000000 1.0
C      1  0.4425000000000  0.5037520000000  0.3747400000000 1.0
C      1  0.4680520000000  0.4499510000000  0.4855130000000 1.0
C      1  0.3877670000000  0.4529610000000  0.5139950000000 1.0
C      1  0.5219480000000  0.4253770000000  0.5551710000000 1.0
C      1  0.5413240000000  0.4876710000000  0.5680740000000 1.0
C      1  0.4532870000000  0.6227660000000  0.5270880000000 1.0
C      1  0.5635310000000  0.5287860000000  0.4674760000000 1.0
C      1  0.6253560000000  0.4985770000000  0.4887880000000 1.0
C      1  0.4075210000000  0.4576310000000  0.5345850000000 1.0
C      1  0.4660310000000  0.4346750000000  0.5305300000000 1.0
C      1  0.4764410000000  0.5904140000000  0.4438240000000 1.0
C      1  0.4795980000000  0.4569480000000  0.3899600000000 1.0
C      1  0.4865400000000  0.5532300000000  0.5321180000000 1.0
C      1  0.5397760000000  0.4999420000000  0.5381440000000 1.0
C      1  0.5614970000000  0.4180420000000  0.4212210000000 1.0
C      1  0.4810740000000  0.4815620000000  0.4932970000000 1.0
C      1  0.5142170000000  0.4059690000000  0.5948440000000 1.0
C      1  0.5684890000000  0.4806530000000  0.5063750000000 1.0
C      1  0.3923670000000  0.4813060000000  0.4582040000000 1.0
C      1  0.5185100000000  0.6209630000000  0.4975520000000 1.0
C      1  0.4327110000000  0.5871060000000  0.4971470000000 1.0
C      1  0.5039200000000  0.3959460000000  0.4247840000000 1.0
C      1  0.6319080000000  0.5002190000000  0.4609820000000 1.0
C      1  0.5516260000000  0.5524030000000  0.5293280000000 1.0
C      1  0.5198510000000  0.4340620000000  0.4820850000000 1.0
C      1  0.4247470000000  0.4540940000000  0.4214730000000 1.0
C      1  0.5652630000000  0.5971270000000  0.5929650000000 1.0
C      1  0.6178990000000  0.4544230000000  0.5442810000000 1.0
C      1  0.4401410000000  0.4897420000000  0.5188510000000 1.0
C      1  0.4745450000000  0.5022680000000  0.4194080000000 1.0
C      1  0.3859530000000  0.5016720000000  0.4762590000000 1.0
C      1  0.5092060000000  0.5030920000000  0.6346670000000 1.0
C      1  0.4534820000000  0.3951400000000  0.5921670000000 1.0
C      1  0.5997640000000  0.4778730000000  0.4230230000000 1.0
C      1  0.5253170000000  0.4466770000000  0.3875080000000 1.0
C      1  0.4602940000000  0.4993700000000  0.5666750000000 1.0
C      1  0.5729540000000  0.4727540000000  0.4142990000000 1.0
C      1  0.5544430000000  0.4399220000000  0.6013070000000 1.0
C      1  0.4629330000000  0.5195750000000  0.6327210000000 1.0
C      1  0.4283910000000  0.5590290000000  0.4951250000000 1.0
C      1  0.4931490000000  0.5886140000000  0.5657300000000 1.0
C      1  0.5744340000000  0.5464260000000  0.4863120000000 1.0
C      1  0.4509180000000  0.4996790000000  0.6157620000000 1.0
C      1  0.4561360000000  0.3823590000000  0.5688330000000 1.0
C      1  0.4711850000000  0.5065640000000  0.4749610000000 1.0
C      1  0.5694990000000  0.5863000000000  0.5689960000000 1.0
C      1  0.5884490000000  0.3980800000000  0.5065610000000 1.0
C      1  0.5649430000000  0.3889480000000  0.4655250000000 1.0
C      1  0.4015770000000  0.4684090000000  0.5604150000000 1.0
C      1  0.5945240000000  0.4636410000000  0.5567610000000 1.0
C      1  0.4325190000000  0.6027440000000  0.4727010000000 1.0
C      1  0.4341250000000  0.5400670000000  0.5718410000000 1.0
C      1  0.4419140000000  0.5342260000000  0.5065900000000 1.0
C      1  0.4697940000000  0.4298780000000  0.4407680000000 1.0
C      1  0.5413930000000  0.4798820000000  0.5137840000000 1.0
C      1  0.4546890000000  0.4450430000000  0.4591000000000 1.0
C      1  0.5942300000000  0.4910440000000  0.5642200000000 1.0
C      1  0.4379690000000  0.6018140000000  0.5204190000000 1.0
C      1  0.5588380000000  0.4974350000000  0.4057200000000 1.0
C      1  0.5663220000000  0.5199880000000  0.5358510000000 1.0
C      1  0.4299220000000  0.3975640000000  0.5065670000000 1.0
C      1  0.5415290000000  0.3873730000000  0.5127980000000 1.0
C      1  0.4887000000000  0.5287620000000  0.4886500000000 1.0
C      1  0.5005940000000  0.5495430000000  0.3875980000000 1.0
C      1  0.5137510000000  0.4849550000000  0.4922560000000 1.0
C      1  0.4551960000000  0.6040380000000  0.4559200000000 1.0
C      1  0.5236890000000  0.5176010000000  0.4473590000000 1.0
C      1  0.5454410000000  0.6025220000000  0.6100580000000 1.0
C      1  0.4910600000000  0.4430870000000  0.5303450000000 1.0
C      1  0.5993580000000  0.5968980000000  0.4518610000000 1.0
C      1  0.4697050000000  0.5274180000000  0.4285410000000 1.0
C      1  0.5821430000000  0.4602930000000  0.4937060000000 1.0
C      1  0.4597920000000  0.5623130000000  0.6044750000000 1.0
C      1  0.4054640000000  0.4565520000000  0.4667350000000 1.0
C      1  0.4076340000000  0.5050140000000  0.5963250000000 1.0
C      1  0.3796880000000  0.5267170000000  0.5434540000000 1.0
C      1  0.4823850000000  0.5716700000000  0.3962260000000 1.0
C      1  0.5481040000000  0.4580750000000  0.5760130000000 1.0
C      1  0.5126230000000  0.4940780000000  0.6082080000000 1.0
C      1  0.4132000000000  0.4787690000000  0.4126370000000 1.0
C      1  0.4076050000000  0.3894630000000  0.3936970000000 1.0
C      1  0.5204530000000  0.4472970000000  0.5725910000000 1.0
C      1  0.4824320000000  0.4114860000000  0.4264910000000 1.0
C      1  0.5732650000000  0.5304680000000  0.5843450000000 1.0
C      1  0.5435950000000  0.3808430000000  0.4838210000000 1.0
C      1  0.5172400000000  0.4343810000000  0.5297920000000 1.0
C      1  0.5332040000000  0.5034240000000  0.5911890000000 1.0
C      1  0.4874440000000  0.5305250000000  0.3705220000000 1.0
C      1  0.4786010000000  0.4899790000000  0.5472470000000 1.0
C      1  0.5402460000000  0.4159040000000  0.6048310000000 1.0
C      1  0.4986210000000  0.3954040000000  0.4900060000000 1.0
C      1  0.5691490000000  0.5240520000000  0.4139410000000 1.0
C      1  0.4269080000000  0.5156450000000  0.5264470000000 1.0
C      1  0.5681240000000  0.4222020000000  0.5434680000000 1.0
C      1  0.4541660000000  0.5663270000000  0.3926890000000 1.0
C      1  0.3824080000000  0.5002840000000  0.5037730000000 1.0
C      1  0.4924070000000  0.4246140000000  0.6023560000000 1.0
C      1  0.4861490000000  0.5915390000000  0.4167400000000 1.0
C      1  0.6173690000000  0.5822680000000  0.4652340000000 1.0
C      1  0.3966080000000  0.5162090000000  0.5230010000000 1.0
C      1  0.5821530000000  0.5166810000000  0.5613980000000 1.0
C      1  0.4994030000000  0.5948440000000  0.5922900000000 1.0
C      1  0.5024980000000  0.6187920000000  0.5221140000000 1.0
C      1  0.5183870000000  0.5426020000000  0.4332010000000 1.0
C      1  0.4127730000000  0.4765780000000  0.6357100000000 1.0
C      1  0.4773870000000  0.6340560000000  0.5188200000000 1.0
C      1  0.5821290000000  0.5049910000000  0.5138070000000 1.0
C      1  0.5307210000000  0.5032580000000  0.4003710000000 1.0
C      1  0.5542330000000  0.5607580000000  0.5001730000000 1.0
C      1  0.5185990000000  0.4751280000000  0.4636500000000 1.0
C      1  0.4164060000000  0.5511870000000  0.4698720000000 1.0
C      1  0.4893370000000  0.5456030000000  0.4377680000000 1.0
C      1  0.4282900000000  0.4506630000000  0.4501440000000 1.0
C      1  0.5304110000000  0.4502390000000  0.4624490000000 1.0
C      1  0.4592040000000  0.5467090000000  0.6262810000000 1.0
C      1  0.4873760000000  0.5584920000000  0.4828260000000 1.0
C      1  0.3702890000000  0.5522560000000  0.5433710000000 1.0
C      1  0.4558530000000  0.5580580000000  0.5767180000000 1.0
C      1  0.5122490000000  0.4002840000000  0.5653240000000 1.0
C      1  0.4670040000000  0.4135940000000  0.6061750000000 1.0
C      1  0.4683930000000  0.3835430000000  0.5433870000000 1.0
C      1  0.4502130000000  0.4451470000000  0.5102250000000 1.0
C      1  0.4568190000000  0.4434450000000  0.3880930000000 1.0
C      1  0.5153800000000  0.4913490000000  0.4413300000000 1.0
C      1  0.4098150000000  0.6165750000000  0.4659310000000 1.0
C      1  0.6055390000000  0.5154430000000  0.5005760000000 1.0
C      1  0.5177470000000  0.3835900000000  0.4703220000000 1.0
C      1  0.5538090000000  0.5845850000000  0.4375840000000 1.0
C      1  0.5056600000000  0.4626950000000  0.3981030000000 1.0
C      1  0.3929250000000  0.4909530000000  0.5759990000000 1.0
C      1  0.5566210000000  0.4490680000000  0.4528890000000 1.0
C      1  0.5187530000000  0.6008980000000  0.6096230000000 1.0
C      1  0.4875180000000  0.5722890000000  0.5079120000000 1.0
C      1  0.5324050000000  0.4346960000000  0.5069510000000 1.0
C      1  0.5194650000000  0.5191110000000  0.5256210000000 1.0
C      1  0.4721200000000  0.5287170000000  0.5166560000000 1.0
C      1  0.5112770000000  0.3878470000000  0.5172510000000 1.0
C      1  0.5243030000000  0.3901010000000  0.4426760000000 1.0
C      1  0.4199630000000  0.4122620000000  0.3962730000000 1.0
C      1  0.4335260000000  0.4359330000000  0.4016430000000 1.0
END
