TITL C-3201379-3821-114 -218.136798320283 125000 -865.563771108074 0 0 148 (C2) n - 1
REM
REM in /home/nfs/bkarasulu/CARBON/AIRSS/Generating-Clusters/LCBOP/Higher-Symm/SD-CG/FIRE-CG
REM
REM
REM
REM
REM
REM ./C.cell (b20cbc046b6831c77cfcea5457e17084)
REM AIRSS Version 0.9.1 bugfix July 2018 build 013d7b7c2542+ Fri, 06 Jul 2018 19:26:36 +0100
REM compiler GCC version 9.2.1 20190827 (Red Hat 9.2.1-1)
REM options -cpp -mtune=generic -march=x86-64 -g -O0 -fpre-include=/usr/include/finclude/math-vector-fortran.h
REM seed -591204583 1842520032 2096651380 -776404975 -1945137547 -1338380130 -1755633155 -178925019 1564429740 1708916711 395542836 11194119 -1159814650 -1860159738 1037952806 -1714425153 -369701281 -194089175 -159837733 1997931509 91496413 -1248913380 -380013048 -1812472270 -552116176 -1624710248 -515694831 -254633489 -758337435 -257784136 916375387 -1173986701 268384598
REM
CELL 1.54180   50.00000   50.00000   50.00000   90.00000   90.00000   90.00000
LATT -1
SFAC C  
C      1  0.4647780000000  0.4906530000000  0.5330210000000 1.0
C      1  0.4643010000000  0.5187030000000  0.5259870000000 1.0
C      1  0.4648070000000  0.5097150000000  0.4673070000000 1.0
C      1  0.4641740000000  0.4817360000000  0.4744470000000 1.0
C      1  0.5358880000000  0.4744460000000  0.4817400000000 1.0
C      1  0.5352830000000  0.5330190000000  0.4906500000000 1.0
C      1  0.5357600000000  0.5259880000000  0.5187010000000 1.0
C      1  0.5352550000000  0.4673090000000  0.5097190000000 1.0
C      1  0.5186950000000  0.4339080000000  0.4068560000000 1.0
C      1  0.5191820000000  0.4066510000000  0.5665240000000 1.0
C      1  0.5188400000000  0.5660090000000  0.5931110000000 1.0
C      1  0.5196270000000  0.5932560000000  0.4334130000000 1.0
C      1  0.4804350000000  0.4334200000000  0.5932620000000 1.0
C      1  0.4813680000000  0.4068510000000  0.4339160000000 1.0
C      1  0.4808810000000  0.5665170000000  0.4066460000000 1.0
C      1  0.4812230000000  0.5931160000000  0.5660020000000 1.0
C      1  0.4934780000000  0.5143490000000  0.4336760000000 1.0
C      1  0.4966970000000  0.4342840000000  0.4881550000000 1.0
C      1  0.4933920000000  0.4856990000000  0.5665850000000 1.0
C      1  0.4966710000000  0.5659090000000  0.5118560000000 1.0
C      1  0.5033910000000  0.5118610000000  0.5659090000000 1.0
C      1  0.5065840000000  0.4336770000000  0.5143540000000 1.0
C      1  0.5033660000000  0.4881500000000  0.4342860000000 1.0
C      1  0.5066700000000  0.5665830000000  0.4856940000000 1.0
C      1  0.4077860000000  0.4944140000000  0.5217040000000 1.0
C      1  0.4079760000000  0.5209600000000  0.5077480000000 1.0
C      1  0.4078000000000  0.5089890000000  0.4792460000000 1.0
C      1  0.4061050000000  0.4761240000000  0.4906560000000 1.0
C      1  0.5939590000000  0.4906550000000  0.4761240000000 1.0
C      1  0.5922770000000  0.5217030000000  0.4944120000000 1.0
C      1  0.5920860000000  0.5077490000000  0.5209580000000 1.0
C      1  0.5922630000000  0.4792470000000  0.5089900000000 1.0
C      1  0.4572350000000  0.3961240000000  0.5180480000000 1.0
C      1  0.4500480000000  0.5234970000000  0.6070790000000 1.0
C      1  0.4572460000000  0.6034800000000  0.4820940000000 1.0
C      1  0.4498360000000  0.4766060000000  0.3934240000000 1.0
C      1  0.5502260000000  0.3934230000000  0.4766140000000 1.0
C      1  0.5428280000000  0.5180400000000  0.3961220000000 1.0
C      1  0.5500150000000  0.6070810000000  0.5234880000000 1.0
C      1  0.5428170000000  0.4821020000000  0.6034820000000 1.0
C      1  0.5667910000000  0.4140850000000  0.5399070000000 1.0
C      1  0.5659720000000  0.5395770000000  0.5855610000000 1.0
C      1  0.5670820000000  0.5856010000000  0.4599190000000 1.0
C      1  0.5642110000000  0.4602060000000  0.4138010000000 1.0
C      1  0.4358500000000  0.4137970000000  0.4602120000000 1.0
C      1  0.4332720000000  0.5399010000000  0.4140810000000 1.0
C      1  0.4340900000000  0.5855650000000  0.5395710000000 1.0
C      1  0.4329790000000  0.4599260000000  0.5856040000000 1.0
C      1  0.5746850000000  0.5699210000000  0.5034850000000 1.0
C      1  0.5686260000000  0.5009260000000  0.4335400000000 1.0
C      1  0.5746720000000  0.4307740000000  0.4966620000000 1.0
C      1  0.5683000000000  0.4987620000000  0.5654840000000 1.0
C      1  0.4317630000000  0.5654840000000  0.4987580000000 1.0
C      1  0.4253770000000  0.5034910000000  0.5699220000000 1.0
C      1  0.4314370000000  0.4335400000000  0.5009310000000 1.0
C      1  0.4253900000000  0.4966570000000  0.4307740000000 1.0
C      1  0.5486870000000  0.4794230000000  0.4286590000000 1.0
C      1  0.5543580000000  0.4197920000000  0.5152090000000 1.0
C      1  0.5491670000000  0.5207420000000  0.5716690000000 1.0
C      1  0.5544930000000  0.5805300000000  0.4846680000000 1.0
C      1  0.4455690000000  0.4846740000000  0.5805320000000 1.0
C      1  0.4513750000000  0.4286550000000  0.4794270000000 1.0
C      1  0.4457050000000  0.5152030000000  0.4197900000000 1.0
C      1  0.4508960000000  0.5716720000000  0.5207370000000 1.0
C      1  0.4876640000000  0.4788550000000  0.4894850000000 1.0
C      1  0.4858420000000  0.4761480000000  0.5176350000000 1.0
C      1  0.4876820000000  0.5213810000000  0.5107590000000 1.0
C      1  0.4858880000000  0.5241460000000  0.4826390000000 1.0
C      1  0.5141730000000  0.4826410000000  0.5241490000000 1.0
C      1  0.5123970000000  0.4894820000000  0.4788570000000 1.0
C      1  0.5142190000000  0.5176320000000  0.4761470000000 1.0
C      1  0.5123790000000  0.5107610000000  0.5213800000000 1.0
C      1  0.4197950000000  0.4355500000000  0.4502420000000 1.0
C      1  0.4254870000000  0.4518670000000  0.5592450000000 1.0
C      1  0.4193520000000  0.5628050000000  0.5493960000000 1.0
C      1  0.4256830000000  0.5486330000000  0.4401510000000 1.0
C      1  0.5743790000000  0.4401550000000  0.5486380000000 1.0
C      1  0.5802670000000  0.4502380000000  0.4355530000000 1.0
C      1  0.5745750000000  0.5592410000000  0.4518620000000 1.0
C      1  0.5807100000000  0.5494010000000  0.5628010000000 1.0
C      1  0.4676730000000  0.4298500000000  0.4208080000000 1.0
C      1  0.4672250000000  0.4206720000000  0.5694970000000 1.0
C      1  0.4675770000000  0.5700770000000  0.5790650000000 1.0
C      1  0.4676220000000  0.5794240000000  0.4302900000000 1.0
C      1  0.5324410000000  0.4302970000000  0.5794290000000 1.0
C      1  0.5323900000000  0.4208030000000  0.4298560000000 1.0
C      1  0.5328370000000  0.5694900000000  0.4206660000000 1.0
C      1  0.5324850000000  0.5790710000000  0.5700700000000 1.0
C      1  0.4659420000000  0.4857020000000  0.5611780000000 1.0
C      1  0.4571290000000  0.5451730000000  0.5307410000000 1.0
C      1  0.4660590000000  0.5144630000000  0.4391540000000 1.0
C      1  0.4566420000000  0.4554220000000  0.4697180000000 1.0
C      1  0.5434210000000  0.4697170000000  0.4554270000000 1.0
C      1  0.5341200000000  0.5611750000000  0.4856970000000 1.0
C      1  0.5429330000000  0.5307440000000  0.5451700000000 1.0
C      1  0.5340040000000  0.4391560000000  0.5144690000000 1.0
C      1  0.4128800000000  0.5479480000000  0.5154410000000 1.0
C      1  0.4142440000000  0.5157490000000  0.4527400000000 1.0
C      1  0.4120190000000  0.4498160000000  0.4840830000000 1.0
C      1  0.4143030000000  0.4853170000000  0.5475290000000 1.0
C      1  0.5857600000000  0.5475280000000  0.4853120000000 1.0
C      1  0.5871820000000  0.5154440000000  0.5479460000000 1.0
C      1  0.5858180000000  0.4527420000000  0.5157530000000 1.0
C      1  0.5880450000000  0.4840800000000  0.4498170000000 1.0
C      1  0.5274800000000  0.6185230000000  0.5138950000000 1.0
C      1  0.5212040000000  0.5077550000000  0.3836190000000 1.0
C      1  0.5277270000000  0.3818790000000  0.4862100000000 1.0
C      1  0.5213950000000  0.4923650000000  0.6163190000000 1.0
C      1  0.4786680000000  0.6163180000000  0.4923550000000 1.0
C      1  0.4725830000000  0.5139050000000  0.6185220000000 1.0
C      1  0.4788600000000  0.3836190000000  0.5077640000000 1.0
C      1  0.4723360000000  0.4862010000000  0.3818800000000 1.0
C      1  0.4924820000000  0.5872020000000  0.4450440000000 1.0
C      1  0.4920820000000  0.4460040000000  0.4140630000000 1.0
C      1  0.4921280000000  0.4128850000000  0.5548140000000 1.0
C      1  0.4921090000000  0.5540530000000  0.5859990000000 1.0
C      1  0.5079530000000  0.5860030000000  0.5540460000000 1.0
C      1  0.5075810000000  0.4450510000000  0.5872060000000 1.0
C      1  0.5079810000000  0.4140590000000  0.4460110000000 1.0
C      1  0.5079350000000  0.5548060000000  0.4128800000000 1.0
C      1  0.4334500000000  0.4716380000000  0.4169610000000 1.0
C      1  0.4409370000000  0.4191690000000  0.5243390000000 1.0
C      1  0.4335660000000  0.5282660000000  0.5836720000000 1.0
C      1  0.4413110000000  0.5802790000000  0.4755110000000 1.0
C      1  0.5587520000000  0.4755170000000  0.5802810000000 1.0
C      1  0.5666120000000  0.4169590000000  0.4716440000000 1.0
C      1  0.5591270000000  0.5243330000000  0.4191660000000 1.0
C      1  0.5664960000000  0.5836740000000  0.5282590000000 1.0
C      1  0.5566790000000  0.4483020000000  0.5705660000000 1.0
C      1  0.5633950000000  0.5721040000000  0.5539650000000 1.0
C      1  0.5570180000000  0.5513160000000  0.4295530000000 1.0
C      1  0.5634070000000  0.4278630000000  0.4455930000000 1.0
C      1  0.4366560000000  0.4455880000000  0.4278670000000 1.0
C      1  0.4433840000000  0.5705620000000  0.4482970000000 1.0
C      1  0.4366670000000  0.5539710000000  0.5721000000000 1.0
C      1  0.4430440000000  0.4295580000000  0.5513210000000 1.0
C      1  0.5017420000000  0.5609650000000  0.5392950000000 1.0
C      1  0.5028420000000  0.5405640000000  0.4381060000000 1.0
C      1  0.5017530000000  0.4391040000000  0.4607120000000 1.0
C      1  0.5026410000000  0.4594580000000  0.5620350000000 1.0
C      1  0.4974220000000  0.5620310000000  0.4594530000000 1.0
C      1  0.4983200000000  0.5393000000000  0.5609620000000 1.0
C      1  0.4972200000000  0.4381100000000  0.5405690000000 1.0
C      1  0.4983110000000  0.4607080000000  0.4391080000000 1.0
C      1  0.4968830000000  0.4970250000000  0.3790220000000 1.0
C      1  0.5031800000000  0.3790220000000  0.4970340000000 1.0
C      1  0.4971370000000  0.5030820000000  0.6212060000000 1.0
C      1  0.5029260000000  0.6212060000000  0.5030720000000 1.0
END
