TITL C-3201377-4638-1631 -7.98685287999398e-07 125000 -443.619294887675 0 0 70 (C2) n - 1
REM
REM in /home/nfs/bkarasulu/CARBON/AIRSS/Generating-Clusters/LCBOP/Higher-Symm/SD-CG/FIRE-CG
REM
REM
REM
REM
REM
REM ./C.cell (b20cbc046b6831c77cfcea5457e17084)
REM AIRSS Version 0.9.1 bugfix July 2018 build 013d7b7c2542+ Fri, 06 Jul 2018 19:26:36 +0100
REM compiler GCC version 9.2.1 20190827 (Red Hat 9.2.1-1)
REM options -cpp -mtune=generic -march=x86-64 -g -O0 -fpre-include=/usr/include/finclude/math-vector-fortran.h
REM seed -856437478 795160318 -529559796 2112473361 -631481491 -1146785955 -288034580 2027213495 -1146258585 -1624686209 -877773242 -1782912267 -1840407690 407771013 -970789886 1488086828 -652944794 -2092224677 1886951846 -2139238872 1681921660 -170183654 977685872 239641279 1477983169 -1638125026 -1626034522 22599358 1638540969 -1596470065 326700425 -1927139998 -1392649663
REM
CELL 1.54180   50.00000   50.00000   50.00000   90.00000   90.00000   90.00000
LATT -1
SFAC C  
C      1  0.5087490000000  0.4397030000000  0.5133230000000 1.0
C      1  0.4962920000000  0.4404530000000  0.4854330000000 1.0
C      1  0.5087410000000  0.5584660000000  0.4866760000000 1.0
C      1  0.4962870000000  0.5577150000000  0.5145670000000 1.0
C      1  0.4883600000000  0.5460540000000  0.4699170000000 1.0
C      1  0.5181780000000  0.5469880000000  0.5308440000000 1.0
C      1  0.4883680000000  0.4521130000000  0.5300850000000 1.0
C      1  0.5181790000000  0.4511820000000  0.4691540000000 1.0
C      1  0.5318070000000  0.4904300000000  0.4901950000000 1.0
C      1  0.4784260000000  0.4950920000000  0.5127660000000 1.0
C      1  0.5318070000000  0.5077420000000  0.5098020000000 1.0
C      1  0.4784240000000  0.5030740000000  0.4872360000000 1.0
C      1  0.5308250000000  0.4774980000000  0.5882770000000 1.0
C      1  0.4621330000000  0.4753020000000  0.4036750000000 1.0
C      1  0.5308130000000  0.5206730000000  0.4117200000000 1.0
C      1  0.4621410000000  0.5228620000000  0.5963290000000 1.0
C      1  0.5869130000000  0.5089900000000  0.4895540000000 1.0
C      1  0.4162730000000  0.5092220000000  0.5100020000000 1.0
C      1  0.5869160000000  0.4891870000000  0.5104360000000 1.0
C      1  0.4162730000000  0.4889370000000  0.4900070000000 1.0
C      1  0.5372270000000  0.4396690000000  0.5109230000000 1.0
C      1  0.4677270000000  0.4418310000000  0.4885850000000 1.0
C      1  0.5372200000000  0.5585040000000  0.4890730000000 1.0
C      1  0.4677220000000  0.5563340000000  0.5114180000000 1.0
C      1  0.4369290000000  0.5413950000000  0.4772760000000 1.0
C      1  0.5690740000000  0.5434910000000  0.5219790000000 1.0
C      1  0.4369350000000  0.4567670000000  0.5227310000000 1.0
C      1  0.5690760000000  0.4546840000000  0.4780130000000 1.0
C      1  0.4625960000000  0.4446600000000  0.5184290000000 1.0
C      1  0.5435770000000  0.4413780000000  0.4812420000000 1.0
C      1  0.4625880000000  0.5535040000000  0.4815750000000 1.0
C      1  0.5435730000000  0.5567950000000  0.5187530000000 1.0
C      1  0.4727050000000  0.5134930000000  0.6205570000000 1.0
C      1  0.5159880000000  0.5140820000000  0.3906030000000 1.0
C      1  0.4726930000000  0.4846720000000  0.3794460000000 1.0
C      1  0.5160020000000  0.4840880000000  0.6093950000000 1.0
C      1  0.5781940000000  0.4622010000000  0.5046790000000 1.0
C      1  0.4260230000000  0.4625200000000  0.4965020000000 1.0
C      1  0.5781890000000  0.5359760000000  0.4953130000000 1.0
C      1  0.4260190000000  0.5356400000000  0.5035060000000 1.0
C      1  0.4908700000000  0.5177320000000  0.4660610000000 1.0
C      1  0.5195100000000  0.5185080000000  0.5330870000000 1.0
C      1  0.4908760000000  0.4804350000000  0.5339400000000 1.0
C      1  0.5195090000000  0.4796630000000  0.4669110000000 1.0
C      1  0.4521850000000  0.5276770000000  0.5722100000000 1.0
C      1  0.5333900000000  0.5168960000000  0.4392410000000 1.0
C      1  0.4521800000000  0.4704860000000  0.4277960000000 1.0
C      1  0.5333990000000  0.4812760000000  0.5607550000000 1.0
C      1  0.5566200000000  0.5227180000000  0.4548790000000 1.0
C      1  0.4415080000000  0.5258210000000  0.5466790000000 1.0
C      1  0.5566270000000  0.4754570000000  0.5451150000000 1.0
C      1  0.4415060000000  0.4723410000000  0.4533280000000 1.0
C      1  0.4451050000000  0.4535410000000  0.4750880000000 1.0
C      1  0.5578270000000  0.4539810000000  0.5252640000000 1.0
C      1  0.4451030000000  0.5446220000000  0.5249180000000 1.0
C      1  0.5578190000000  0.5441930000000  0.4747300000000 1.0
C      1  0.4302810000000  0.4757340000000  0.5425300000000 1.0
C      1  0.5747940000000  0.4739080000000  0.4579710000000 1.0
C      1  0.4302740000000  0.5224270000000  0.4574780000000 1.0
C      1  0.5747960000000  0.5242680000000  0.5420210000000 1.0
C      1  0.4260030000000  0.5031190000000  0.5371290000000 1.0
C      1  0.5758470000000  0.5017760000000  0.4630330000000 1.0
C      1  0.4259990000000  0.4950410000000  0.4628790000000 1.0
C      1  0.5758510000000  0.4964000000000  0.5369590000000 1.0
C      1  0.4610470000000  0.5203080000000  0.6443320000000 1.0
C      1  0.4953680000000  0.5011260000000  0.3799730000000 1.0
C      1  0.4610330000000  0.4778570000000  0.3556720000000 1.0
C      1  0.4953810000000  0.4970420000000  0.6200270000000 1.0
C      1  0.5116630000000  0.5033930000000  0.4525270000000 1.0
C      1  0.5116690000000  0.4947770000000  0.5474720000000 1.0
END
