TITL C-3201379-3821-583 -0.0949737340114529 125000 -459.451416570592 0 0 77 (C1) n - 1
REM
REM in /home/nfs/bkarasulu/CARBON/AIRSS/Generating-Clusters/LCBOP/Higher-Symm/SD-CG/FIRE-CG
REM
REM
REM
REM
REM
REM ./C.cell (b20cbc046b6831c77cfcea5457e17084)
REM AIRSS Version 0.9.1 bugfix July 2018 build 013d7b7c2542+ Fri, 06 Jul 2018 19:26:36 +0100
REM compiler GCC version 9.2.1 20190827 (Red Hat 9.2.1-1)
REM options -cpp -mtune=generic -march=x86-64 -g -O0 -fpre-include=/usr/include/finclude/math-vector-fortran.h
REM seed 264214321 2004126665 -1002815934 1506709786 -640142813 1359906237 -1903566598 1671701474 225929216 -974978387 1885231103 -2116251272 -1630951204 -1692049727 1118110261 -1090711163 -2009682117 4225710 1546865596 1070547611 668710180 -206239862 -2091023605 -932671285 -353051304 -1413772573 -2054809233 282948512 3741870 1567336717 1260540270 1030997300 1247172274
REM
CELL 1.54180   50.00000   50.00000   50.00000   90.00000   90.00000   90.00000
LATT -1
SFAC C  
C      1  0.4686220000000  0.5007260000000  0.5180710000000 1.0
C      1  0.5383050000000  0.4993190000000  0.5060170000000 1.0
C      1  0.4689480000000  0.4992410000000  0.4733930000000 1.0
C      1  0.5143640000000  0.5002090000000  0.4971430000000 1.0
C      1  0.4999330000000  0.4619420000000  0.4831750000000 1.0
C      1  0.5010840000000  0.5394770000000  0.4853210000000 1.0
C      1  0.4999010000000  0.5375320000000  0.5132500000000 1.0
C      1  0.4995750000000  0.4632230000000  0.5134010000000 1.0
C      1  0.5171000000000  0.5353410000000  0.4162730000000 1.0
C      1  0.4866570000000  0.4664210000000  0.4192850000000 1.0
C      1  0.5165150000000  0.4673990000000  0.5807500000000 1.0
C      1  0.4861440000000  0.5291930000000  0.5789510000000 1.0
C      1  0.4955790000000  0.5722580000000  0.5387390000000 1.0
C      1  0.5046450000000  0.4266890000000  0.5382450000000 1.0
C      1  0.4961150000000  0.4365230000000  0.4712360000000 1.0
C      1  0.5044490000000  0.5745790000000  0.4602840000000 1.0
C      1  0.5108180000000  0.4729200000000  0.4324140000000 1.0
C      1  0.4956980000000  0.5286530000000  0.4333210000000 1.0
C      1  0.5094750000000  0.5246990000000  0.5639400000000 1.0
C      1  0.4949560000000  0.4725150000000  0.5634680000000 1.0
C      1  0.5711890000000  0.4590640000000  0.5021080000000 1.0
C      1  0.4280270000000  0.5400640000000  0.5016470000000 1.0
C      1  0.5705010000000  0.5399360000000  0.4974020000000 1.0
C      1  0.4276370000000  0.4593750000000  0.4980320000000 1.0
C      1  0.4663000000000  0.4106780000000  0.5119700000000 1.0
C      1  0.5326550000000  0.5879510000000  0.5107960000000 1.0
C      1  0.4673170000000  0.5883160000000  0.4890800000000 1.0
C      1  0.5331210000000  0.4097300000000  0.4893410000000 1.0
C      1  0.5345080000000  0.5374620000000  0.5653680000000 1.0
C      1  0.4683040000000  0.4633430000000  0.5639240000000 1.0
C      1  0.5351830000000  0.4585150000000  0.4332950000000 1.0
C      1  0.4688690000000  0.5375080000000  0.4347980000000 1.0
C      1  0.4340470000000  0.4725910000000  0.4724310000000 1.0
C      1  0.5619570000000  0.5260740000000  0.4724270000000 1.0
C      1  0.4345230000000  0.5265410000000  0.5270800000000 1.0
C      1  0.5649900000000  0.4726430000000  0.5279520000000 1.0
C      1  0.5049750000000  0.5135090000000  0.5377380000000 1.0
C      1  0.5028500000000  0.4829730000000  0.5373500000000 1.0
C      1  0.5068110000000  0.4866470000000  0.4569030000000 1.0
C      1  0.5050380000000  0.5170370000000  0.4580950000000 1.0
C      1  0.4379180000000  0.4687180000000  0.5239960000000 1.0
C      1  0.5626240000000  0.5310010000000  0.5244860000000 1.0
C      1  0.4376540000000  0.5310500000000  0.4751750000000 1.0
C      1  0.5610070000000  0.4680730000000  0.4756990000000 1.0
C      1  0.4669500000000  0.5672200000000  0.5337760000000 1.0
C      1  0.5332630000000  0.4316670000000  0.5339090000000 1.0
C      1  0.4672230000000  0.4323310000000  0.4681850000000 1.0
C      1  0.5327470000000  0.5685610000000  0.4653200000000 1.0
C      1  0.5717090000000  0.5681580000000  0.4933800000000 1.0
C      1  0.4271830000000  0.4309600000000  0.4947090000000 1.0
C      1  0.5721660000000  0.4307340000000  0.5057600000000 1.0
C      1  0.4278800000000  0.5683690000000  0.5054930000000 1.0
C      1  0.5242420000000  0.4276200000000  0.4692160000000 1.0
C      1  0.4758590000000  0.5720600000000  0.4674700000000 1.0
C      1  0.5244880000000  0.5709530000000  0.5320710000000 1.0
C      1  0.4757610000000  0.4282950000000  0.5320900000000 1.0
C      1  0.4519890000000  0.5439100000000  0.5448780000000 1.0
C      1  0.5486170000000  0.4547300000000  0.5454980000000 1.0
C      1  0.4517960000000  0.4544770000000  0.4550490000000 1.0
C      1  0.5471890000000  0.5448080000000  0.4541750000000 1.0
C      1  0.5642850000000  0.4968980000000  0.4688610000000 1.0
C      1  0.4408290000000  0.5013990000000  0.4710070000000 1.0
C      1  0.5590260000000  0.5013650000000  0.5249750000000 1.0
C      1  0.4418470000000  0.4981460000000  0.5264130000000 1.0
C      1  0.5438160000000  0.5491770000000  0.5407090000000 1.0
C      1  0.4575050000000  0.4510170000000  0.5401490000000 1.0
C      1  0.5435790000000  0.4488250000000  0.4592760000000 1.0
C      1  0.4578750000000  0.5491090000000  0.4590720000000 1.0
C      1  0.5472430000000  0.4183480000000  0.5122130000000 1.0
C      1  0.4531200000000  0.5801590000000  0.5118690000000 1.0
C      1  0.5467160000000  0.5806920000000  0.4875780000000 1.0
C      1  0.4523570000000  0.4186920000000  0.4888980000000 1.0
C      1  0.5414780000000  0.4616590000000  0.5720330000000 1.0
C      1  0.4612720000000  0.5350420000000  0.5701840000000 1.0
C      1  0.5418300000000  0.5396770000000  0.4267190000000 1.0
C      1  0.4619480000000  0.4616990000000  0.4294110000000 1.0
C      1  0.4850300000000  0.5005550000000  0.4959830000000 1.0
END
