TITL C-3201378-2706-1609 -0.000464447524323012 125000 -426.684468960653 0 0 71 (C1) n - 1
REM
REM in /home/nfs/bkarasulu/CARBON/AIRSS/Generating-Clusters/LCBOP/Higher-Symm/SD-CG/FIRE-CG
REM
REM
REM
REM
REM
REM ./C.cell (b20cbc046b6831c77cfcea5457e17084)
REM AIRSS Version 0.9.1 bugfix July 2018 build 013d7b7c2542+ Fri, 06 Jul 2018 19:26:36 +0100
REM compiler GCC version 9.2.1 20190827 (Red Hat 9.2.1-1)
REM options -cpp -mtune=generic -march=x86-64 -g -O0 -fpre-include=/usr/include/finclude/math-vector-fortran.h
REM seed 604587535 -93169157 -1539422459 -1939288818 -197218379 -243685449 939935542 -366068735 -1485606895 336400371 -1690753230 399420830 1721345081 1980441559 -168544492 859424435 -1972576353 -2001290285 711774727 -809744421 -549568777 -211893586 1895647655 1447925342 116787892 1195765468 -1007517707 -1576978029 198033424 -701735943 291027847 410158471 -1599917231
REM
CELL 1.54180   50.00000   50.00000   50.00000   90.00000   90.00000   90.00000
LATT -1
SFAC C  
C      1  0.4820150000000  0.4596120000000  0.5503530000000 1.0
C      1  0.5756450000000  0.5494370000000  0.4818220000000 1.0
C      1  0.5609890000000  0.5297010000000  0.4680570000000 1.0
C      1  0.5570020000000  0.4935980000000  0.5317320000000 1.0
C      1  0.4959850000000  0.4218370000000  0.5128230000000 1.0
C      1  0.5342480000000  0.4659330000000  0.4831330000000 1.0
C      1  0.4225030000000  0.6037620000000  0.5015160000000 1.0
C      1  0.4656930000000  0.4213750000000  0.4766040000000 1.0
C      1  0.4392410000000  0.4875650000000  0.5625430000000 1.0
C      1  0.5847520000000  0.4349560000000  0.5024060000000 1.0
C      1  0.4835270000000  0.5978560000000  0.5409340000000 1.0
C      1  0.4794620000000  0.5611550000000  0.5092810000000 1.0
C      1  0.5234860000000  0.4531140000000  0.4287500000000 1.0
C      1  0.5217310000000  0.5427880000000  0.4936710000000 1.0
C      1  0.4302730000000  0.5449070000000  0.4488610000000 1.0
C      1  0.4856640000000  0.4913150000000  0.5063320000000 1.0
C      1  0.5046600000000  0.4737050000000  0.4165030000000 1.0
C      1  0.4692680000000  0.5849230000000  0.5207030000000 1.0
C      1  0.4987200000000  0.5210610000000  0.5782960000000 1.0
C      1  0.3977820000000  0.4607730000000  0.5164860000000 1.0
C      1  0.4675600000000  0.4466770000000  0.4663440000000 1.0
C      1  0.4216990000000  0.4663590000000  0.5044720000000 1.0
C      1  0.5739840000000  0.5580090000000  0.5073740000000 1.0
C      1  0.5864140000000  0.4564590000000  0.5186560000000 1.0
C      1  0.4450520000000  0.5954070000000  0.5115580000000 1.0
C      1  0.5115250000000  0.4961840000000  0.5742370000000 1.0
C      1  0.5200100000000  0.5064990000000  0.4581270000000 1.0
C      1  0.4864950000000  0.4457810000000  0.5244290000000 1.0
C      1  0.5101490000000  0.4136450000000  0.4648650000000 1.0
C      1  0.4724320000000  0.4657770000000  0.5072410000000 1.0
C      1  0.4226890000000  0.4724030000000  0.4768910000000 1.0
C      1  0.5762430000000  0.4824720000000  0.5135520000000 1.0
C      1  0.5587580000000  0.4896980000000  0.4400780000000 1.0
C      1  0.5531910000000  0.4508920000000  0.4673110000000 1.0
C      1  0.5201930000000  0.4967380000000  0.4099820000000 1.0
C      1  0.4253130000000  0.4825250000000  0.5860260000000 1.0
C      1  0.5121960000000  0.4802380000000  0.4702950000000 1.0
C      1  0.5391990000000  0.4921170000000  0.5785200000000 1.0
C      1  0.4783490000000  0.4816760000000  0.4275950000000 1.0
C      1  0.4362020000000  0.4799540000000  0.4549670000000 1.0
C      1  0.4909030000000  0.4116480000000  0.4865790000000 1.0
C      1  0.5587880000000  0.4900210000000  0.5598950000000 1.0
C      1  0.5070300000000  0.4938320000000  0.5261570000000 1.0
C      1  0.5720190000000  0.5033440000000  0.4628300000000 1.0
C      1  0.4817190000000  0.5350610000000  0.5627010000000 1.0
C      1  0.4607210000000  0.4927950000000  0.4483190000000 1.0
C      1  0.5564230000000  0.5612230000000  0.5529640000000 1.0
C      1  0.4933950000000  0.4585080000000  0.4621860000000 1.0
C      1  0.4412640000000  0.5133530000000  0.5511250000000 1.0
C      1  0.5549880000000  0.5518110000000  0.5274620000000 1.0
C      1  0.5325250000000  0.5070450000000  0.5239500000000 1.0
C      1  0.5321550000000  0.5287510000000  0.4716510000000 1.0
C      1  0.4683100000000  0.5354700000000  0.5148390000000 1.0
C      1  0.5711850000000  0.4332020000000  0.4791820000000 1.0
C      1  0.5506620000000  0.4611500000000  0.4401650000000 1.0
C      1  0.5006290000000  0.4815460000000  0.5523030000000 1.0
C      1  0.4123710000000  0.4776250000000  0.6081080000000 1.0
C      1  0.4527080000000  0.4673220000000  0.5480320000000 1.0
C      1  0.5094620000000  0.4371830000000  0.4485020000000 1.0
C      1  0.5813490000000  0.4917800000000  0.4870350000000 1.0
C      1  0.4457160000000  0.4660210000000  0.5192170000000 1.0
C      1  0.5349380000000  0.5046850000000  0.4323500000000 1.0
C      1  0.4756770000000  0.5609210000000  0.4494370000000 1.0
C      1  0.4980690000000  0.6082530000000  0.5598960000000 1.0
C      1  0.4623480000000  0.5299080000000  0.5425310000000 1.0
C      1  0.4567690000000  0.5407230000000  0.4543260000000 1.0
C      1  0.4948880000000  0.5712790000000  0.4650840000000 1.0
C      1  0.5010640000000  0.5616140000000  0.4907930000000 1.0
C      1  0.4723390000000  0.5142150000000  0.4949240000000 1.0
C      1  0.5338490000000  0.5349700000000  0.5181630000000 1.0
C      1  0.4654360000000  0.5158580000000  0.4659680000000 1.0
END
