TITL C-3201376-6384-745 -2.37257888567935e-08 125000 -179.496902781632 0 0 30 (C1) n - 1
REM
REM in /home/nfs/bkarasulu/CARBON/AIRSS/Generating-Clusters/LCBOP/Higher-Symm/SD-CG/FIRE-CG
REM
REM
REM
REM
REM
REM ./C.cell (b20cbc046b6831c77cfcea5457e17084)
REM AIRSS Version 0.9.1 bugfix July 2018 build 013d7b7c2542+ Fri, 06 Jul 2018 19:26:36 +0100
REM compiler GCC version 9.2.1 20190827 (Red Hat 9.2.1-1)
REM options -cpp -mtune=generic -march=x86-64 -g -O0 -fpre-include=/usr/include/finclude/math-vector-fortran.h
REM seed 1634217191 -512232056 1465454609 -456693489 1506722680 1892626743 -1335397152 -189742395 -1265397703 -1094061902 -836760364 458704807 411161630 609515781 1792050351 2070096912 190577859 1487296526 -1319613979 2011546795 -1036182656 12854105 -1311225819 583312268 216130738 1804073487 1950920326 -964271121 697607716 -2123130502 -797261152 1666584794 -1701599806
REM
CELL 1.54180   50.00000   50.00000   50.00000   90.00000   90.00000   90.00000
LATT -1
SFAC C  
C      1  0.4644730000000  0.4759290000000  0.4944020000000 1.0
C      1  0.5345490000000  0.4752920000000  0.4842110000000 1.0
C      1  0.5502710000000  0.5300110000000  0.5406360000000 1.0
C      1  0.4190500000000  0.5445270000000  0.4780000000000 1.0
C      1  0.5065410000000  0.4792620000000  0.4453220000000 1.0
C      1  0.4801620000000  0.4793650000000  0.4491000000000 1.0
C      1  0.5161430000000  0.5212450000000  0.4921230000000 1.0
C      1  0.4869360000000  0.5203590000000  0.4938660000000 1.0
C      1  0.5211110000000  0.4934760000000  0.5288480000000 1.0
C      1  0.4920850000000  0.4913380000000  0.5324270000000 1.0
C      1  0.5260070000000  0.5033310000000  0.5756760000000 1.0
C      1  0.5003720000000  0.4952190000000  0.5800700000000 1.0
C      1  0.4722670000000  0.5434830000000  0.4858860000000 1.0
C      1  0.5291620000000  0.5463730000000  0.4976130000000 1.0
C      1  0.4448790000000  0.5433290000000  0.4812570000000 1.0
C      1  0.5473890000000  0.5461530000000  0.5191520000000 1.0
C      1  0.4771890000000  0.4972990000000  0.5084470000000 1.0
C      1  0.5283210000000  0.4969610000000  0.5013280000000 1.0
C      1  0.4878740000000  0.4323830000000  0.5075090000000 1.0
C      1  0.5143770000000  0.4322040000000  0.5035000000000 1.0
C      1  0.4676580000000  0.4497180000000  0.5043270000000 1.0
C      1  0.5331410000000  0.4491020000000  0.4945150000000 1.0
C      1  0.4582380000000  0.4790560000000  0.4667180000000 1.0
C      1  0.5325720000000  0.4788680000000  0.4559560000000 1.0
C      1  0.5144580000000  0.5687360000000  0.4886420000000 1.0
C      1  0.4878830000000  0.5670890000000  0.4834460000000 1.0
C      1  0.4324960000000  0.4811630000000  0.4579330000000 1.0
C      1  0.5547240000000  0.4818480000000  0.4403110000000 1.0
C      1  0.4836230000000  0.4896150000000  0.5593380000000 1.0
C      1  0.5360440000000  0.5072670000000  0.5494380000000 1.0
END
