TITL C-3201375-1262-124 -2.23899056912459e-07 125000 -77.3669241954942 0 0 16 (C3h) n - 1
REM
REM in /home/nfs/bkarasulu/CARBON/AIRSS/Generating-Clusters/LCBOP/Higher-Symm/SD-CG/FIRE-CG
REM
REM
REM
REM
REM
REM ./C.cell (b20cbc046b6831c77cfcea5457e17084)
REM AIRSS Version 0.9.1 bugfix July 2018 build 013d7b7c2542+ Fri, 06 Jul 2018 19:26:36 +0100
REM compiler GCC version 9.2.1 20190827 (Red Hat 9.2.1-1)
REM options -cpp -mtune=generic -march=x86-64 -g -O0 -fpre-include=/usr/include/finclude/math-vector-fortran.h
REM seed 1546273091 1193626859 395936194 59784015 466916523 464115382 -1311414672 -999003519 -1834588549 212546030 2121702312 -2124021102 45220925 -75148343 -283993233 -1730935174 -907626692 187928102 1960562247 -2115573305 2075334762 -22382365 252169342 -1176752071 -951639484 -1435882129 -1512863381 -152658408 1949814367 -810765538 -2027002112 -935320862 703163731
REM
CELL 1.54180   50.00000   50.00000   50.00000   90.00000   90.00000   90.00000
LATT -1
SFAC C  
C      1  0.4807840000000  0.5177330000000  0.5540840000000 1.0
C      1  0.5524680000000  0.4818870000000  0.5183170000000 1.0
C      1  0.5166700000000  0.5535390000000  0.4824400000000 1.0
C      1  0.4463890000000  0.4833080000000  0.5196500000000 1.0
C      1  0.5180730000000  0.4474620000000  0.4838840000000 1.0
C      1  0.4822750000000  0.5191140000000  0.4480060000000 1.0
C      1  0.4670460000000  0.4680800000000  0.4686300000000 1.0
C      1  0.5318410000000  0.5329340000000  0.5334980000000 1.0
C      1  0.4877570000000  0.5088070000000  0.5293010000000 1.0
C      1  0.5077450000000  0.5287520000000  0.4893950000000 1.0
C      1  0.4711860000000  0.4922210000000  0.5127110000000 1.0
C      1  0.5111140000000  0.4722550000000  0.4927890000000 1.0
C      1  0.5276850000000  0.4888410000000  0.5093790000000 1.0
C      1  0.4843300000000  0.4853800000000  0.4859330000000 1.0
C      1  0.5145570000000  0.5156340000000  0.5161940000000 1.0
C      1  0.4911740000000  0.5121660000000  0.4728050000000 1.0
END
