TITL C-3201372-1405-663 -0.000406165973668593 125000 -801.708610943058 0 0 131 (C1) n - 1
REM
REM in /home/nfs/bkarasulu/CARBON/AIRSS/Generating-Clusters/LCBOP/Higher-Symm/SD-CG/FIRE-CG
REM
REM
REM
REM
REM
REM ./C.cell (b20cbc046b6831c77cfcea5457e17084)
REM AIRSS Version 0.9.1 bugfix July 2018 build 013d7b7c2542+ Fri, 06 Jul 2018 19:26:36 +0100
REM compiler GCC version 9.2.1 20190827 (Red Hat 9.2.1-1)
REM options -cpp -mtune=generic -march=x86-64 -g -O0 -fpre-include=/usr/include/finclude/math-vector-fortran.h
REM seed 836229196 587842312 1453214709 115052743 332776618 -661296610 1750696476 -1146643772 77892935 724616184 1362447345 -920305409 -1052651906 1705901503 1427222713 -939350449 -509289740 2125184828 -787638181 657325167 306275723 -1725554035 -897936291 -1723612534 950192605 -2099680236 1731208718 1806990263 -1814457395 2118252927 102405098 -1177466003 -2084428840
REM
CELL 1.54180   50.00000   50.00000   50.00000   90.00000   90.00000   90.00000
LATT -1
SFAC C  
C      1  0.4438170000000  0.4985340000000  0.4312440000000 1.0
C      1  0.4683500000000  0.4432830000000  0.5888970000000 1.0
C      1  0.4351700000000  0.4096710000000  0.4280910000000 1.0
C      1  0.5360350000000  0.4555470000000  0.4680430000000 1.0
C      1  0.5775290000000  0.5813570000000  0.4976020000000 1.0
C      1  0.4133620000000  0.5290020000000  0.4534840000000 1.0
C      1  0.5097490000000  0.6171870000000  0.4767440000000 1.0
C      1  0.5080930000000  0.5711590000000  0.5925580000000 1.0
C      1  0.5142750000000  0.6082580000000  0.5043900000000 1.0
C      1  0.4311720000000  0.5956160000000  0.4792390000000 1.0
C      1  0.4229070000000  0.5022750000000  0.4504960000000 1.0
C      1  0.5242090000000  0.5971450000000  0.4503580000000 1.0
C      1  0.5363440000000  0.5303870000000  0.5866540000000 1.0
C      1  0.4829010000000  0.4357130000000  0.5380580000000 1.0
C      1  0.5375480000000  0.5710730000000  0.5543100000000 1.0
C      1  0.3951140000000  0.4418880000000  0.4840740000000 1.0
C      1  0.5241760000000  0.5957470000000  0.5485730000000 1.0
C      1  0.4486580000000  0.4851180000000  0.5539700000000 1.0
C      1  0.4962310000000  0.5645980000000  0.4915960000000 1.0
C      1  0.4975710000000  0.4223170000000  0.4659140000000 1.0
C      1  0.4714050000000  0.5361040000000  0.4170490000000 1.0
C      1  0.5114070000000  0.5504020000000  0.4462310000000 1.0
C      1  0.5166930000000  0.5107720000000  0.6005550000000 1.0
C      1  0.4815740000000  0.6091510000000  0.4727440000000 1.0
C      1  0.5443910000000  0.5460270000000  0.4854820000000 1.0
C      1  0.4479980000000  0.4574300000000  0.4995540000000 1.0
C      1  0.4827960000000  0.4373400000000  0.4470550000000 1.0
C      1  0.4674780000000  0.5210870000000  0.5285930000000 1.0
C      1  0.4212880000000  0.4438050000000  0.5540160000000 1.0
C      1  0.5633580000000  0.4852710000000  0.4363200000000 1.0
C      1  0.4576230000000  0.4104340000000  0.4991210000000 1.0
C      1  0.5227670000000  0.4526520000000  0.5617220000000 1.0
C      1  0.4900940000000  0.4491360000000  0.4017920000000 1.0
C      1  0.5758990000000  0.5117500000000  0.4355950000000 1.0
C      1  0.4851980000000  0.4087500000000  0.4890990000000 1.0
C      1  0.5187370000000  0.4723170000000  0.4839710000000 1.0
C      1  0.5160410000000  0.5133480000000  0.3918070000000 1.0
C      1  0.5692170000000  0.4658880000000  0.5514900000000 1.0
C      1  0.4158760000000  0.4835970000000  0.4705460000000 1.0
C      1  0.5330460000000  0.4174990000000  0.4980120000000 1.0
C      1  0.4831680000000  0.5800040000000  0.4699770000000 1.0
C      1  0.5940570000000  0.5069620000000  0.5144530000000 1.0
C      1  0.5482980000000  0.4848510000000  0.4118960000000 1.0
C      1  0.6005250000000  0.5187650000000  0.4461760000000 1.0
C      1  0.5588700000000  0.4393510000000  0.5406250000000 1.0
C      1  0.5947090000000  0.5990010000000  0.4890920000000 1.0
C      1  0.5587500000000  0.5622290000000  0.5057250000000 1.0
C      1  0.5589610000000  0.5192270000000  0.5697020000000 1.0
C      1  0.5028240000000  0.5771600000000  0.4486880000000 1.0
C      1  0.5969520000000  0.4700440000000  0.5471780000000 1.0
C      1  0.4489850000000  0.5915470000000  0.5259910000000 1.0
C      1  0.5544720000000  0.5567310000000  0.4352510000000 1.0
C      1  0.5267720000000  0.5272370000000  0.4981080000000 1.0
C      1  0.5004530000000  0.4130760000000  0.5348440000000 1.0
C      1  0.4761960000000  0.5230720000000  0.5017800000000 1.0
C      1  0.5546740000000  0.4280670000000  0.5141300000000 1.0
C      1  0.4870100000000  0.5071360000000  0.6039320000000 1.0
C      1  0.4164140000000  0.5533950000000  0.4668100000000 1.0
C      1  0.5844270000000  0.4535670000000  0.4658480000000 1.0
C      1  0.4359120000000  0.4197150000000  0.5463640000000 1.0
C      1  0.4626070000000  0.5161350000000  0.4794270000000 1.0
C      1  0.4796580000000  0.4480820000000  0.5632520000000 1.0
C      1  0.6506390000000  0.4303630000000  0.5019700000000 1.0
C      1  0.5178990000000  0.5801400000000  0.5008240000000 1.0
C      1  0.5606220000000  0.4650780000000  0.4563940000000 1.0
C      1  0.5642720000000  0.5320660000000  0.5436370000000 1.0
C      1  0.4775780000000  0.4654450000000  0.4521660000000 1.0
C      1  0.4706150000000  0.5990350000000  0.5680760000000 1.0
C      1  0.4302440000000  0.6086620000000  0.5963020000000 1.0
C      1  0.4164470000000  0.5287620000000  0.5081220000000 1.0
C      1  0.5037810000000  0.6076540000000  0.5316390000000 1.0
C      1  0.5289850000000  0.5576650000000  0.5791930000000 1.0
C      1  0.4705900000000  0.4520940000000  0.5170050000000 1.0
C      1  0.4940670000000  0.4974240000000  0.3924470000000 1.0
C      1  0.3932850000000  0.4665830000000  0.4700860000000 1.0
C      1  0.5379860000000  0.5473590000000  0.4576100000000 1.0
C      1  0.4650290000000  0.4898170000000  0.6045780000000 1.0
C      1  0.4589380000000  0.4106570000000  0.4129580000000 1.0
C      1  0.4300720000000  0.5970620000000  0.5478250000000 1.0
C      1  0.4937260000000  0.4772620000000  0.4720280000000 1.0
C      1  0.4858930000000  0.5282540000000  0.5481110000000 1.0
C      1  0.4171910000000  0.4263150000000  0.4743210000000 1.0
C      1  0.4755910000000  0.4762590000000  0.5574370000000 1.0
C      1  0.6072500000000  0.4449570000000  0.4761570000000 1.0
C      1  0.5262000000000  0.4286630000000  0.4717560000000 1.0
C      1  0.4501480000000  0.4653710000000  0.5955160000000 1.0
C      1  0.5389050000000  0.4619540000000  0.3989850000000 1.0
C      1  0.4193460000000  0.4143030000000  0.4491020000000 1.0
C      1  0.4490460000000  0.5215090000000  0.4154620000000 1.0
C      1  0.4327590000000  0.4664270000000  0.5700040000000 1.0
C      1  0.5591180000000  0.5313040000000  0.4204660000000 1.0
C      1  0.5207450000000  0.4068230000000  0.5539240000000 1.0
C      1  0.5207550000000  0.4709910000000  0.5380980000000 1.0
C      1  0.5544510000000  0.5575360000000  0.5349420000000 1.0
C      1  0.3985450000000  0.4474690000000  0.5370090000000 1.0
C      1  0.5670620000000  0.5131180000000  0.5214040000000 1.0
C      1  0.4654020000000  0.4797180000000  0.4303670000000 1.0
C      1  0.6073290000000  0.4875500000000  0.5297820000000 1.0
C      1  0.5091740000000  0.5164530000000  0.5528900000000 1.0
C      1  0.5540460000000  0.4913580000000  0.5617330000000 1.0
C      1  0.5270680000000  0.4797290000000  0.5101490000000 1.0
C      1  0.5485120000000  0.5862940000000  0.4368570000000 1.0
C      1  0.4414510000000  0.4315430000000  0.4878160000000 1.0
C      1  0.5230750000000  0.3831070000000  0.5669090000000 1.0
C      1  0.5265740000000  0.4950550000000  0.5519610000000 1.0
C      1  0.4879290000000  0.5877760000000  0.5869170000000 1.0
C      1  0.6293260000000  0.4372300000000  0.4886220000000 1.0
C      1  0.4630890000000  0.3931900000000  0.3923440000000 1.0
C      1  0.4270560000000  0.5030720000000  0.5137400000000 1.0
C      1  0.3895120000000  0.4423730000000  0.5120160000000 1.0
C      1  0.4311890000000  0.4812650000000  0.4950590000000 1.0
C      1  0.4455340000000  0.5044070000000  0.5346490000000 1.0
C      1  0.5375370000000  0.4290780000000  0.5572660000000 1.0
C      1  0.5414130000000  0.5053310000000  0.5093960000000 1.0
C      1  0.4785400000000  0.4299920000000  0.4197840000000 1.0
C      1  0.6128020000000  0.5240720000000  0.4690840000000 1.0
C      1  0.4232410000000  0.5531940000000  0.4957500000000 1.0
C      1  0.4997820000000  0.5369960000000  0.4975800000000 1.0
C      1  0.5231160000000  0.4621790000000  0.5884950000000 1.0
C      1  0.5072640000000  0.4070250000000  0.5082460000000 1.0
C      1  0.4202010000000  0.5806320000000  0.4587870000000 1.0
C      1  0.4423890000000  0.6021260000000  0.5730130000000 1.0
C      1  0.5412590000000  0.5125330000000  0.4045790000000 1.0
C      1  0.5270540000000  0.4839570000000  0.6038100000000 1.0
C      1  0.6083050000000  0.5206950000000  0.4949880000000 1.0
C      1  0.4761250000000  0.6000310000000  0.5385820000000 1.0
C      1  0.5170500000000  0.4472700000000  0.3938740000000 1.0
C      1  0.4802930000000  0.4762030000000  0.4054220000000 1.0
C      1  0.4366550000000  0.5795400000000  0.5031230000000 1.0
C      1  0.4476610000000  0.4051940000000  0.5260930000000 1.0
C      1  0.4944810000000  0.5354640000000  0.4304650000000 1.0
END
