TITL C-3201375-1262-1610 -5.24389963017315e-07 125000 -635.490914924625 0 0 101 (C1) n - 1
REM
REM in /home/nfs/bkarasulu/CARBON/AIRSS/Generating-Clusters/LCBOP/Higher-Symm/SD-CG/FIRE-CG
REM
REM
REM
REM
REM
REM ./C.cell (b20cbc046b6831c77cfcea5457e17084)
REM AIRSS Version 0.9.1 bugfix July 2018 build 013d7b7c2542+ Fri, 06 Jul 2018 19:26:36 +0100
REM compiler GCC version 9.2.1 20190827 (Red Hat 9.2.1-1)
REM options -cpp -mtune=generic -march=x86-64 -g -O0 -fpre-include=/usr/include/finclude/math-vector-fortran.h
REM seed -1915357307 29504513 450302910 -1624926203 -1858000137 -1627332777 -705884321 -1244460208 -336254930 -1390419919 -699707232 -1324706640 982864305 640291129 -330228309 1562476411 -78719954 574255601 1435685953 1804234058 -1419278023 -1210361848 -657345862 -2070351221 1799859738 -294609114 -909438389 1856245865 327914354 -219559825 -380384885 -132150820 444962884
REM
CELL 1.54180   50.00000   50.00000   50.00000   90.00000   90.00000   90.00000
LATT -1
SFAC C  
C      1  0.5217590000000  0.4594820000000  0.4480580000000 1.0
C      1  0.5246020000000  0.5380810000000  0.4486850000000 1.0
C      1  0.4555430000000  0.5012770000000  0.4489790000000 1.0
C      1  0.4335600000000  0.5106440000000  0.4325480000000 1.0
C      1  0.5243470000000  0.4358280000000  0.4315640000000 1.0
C      1  0.5435600000000  0.5522860000000  0.4320330000000 1.0
C      1  0.4964430000000  0.5248190000000  0.5355430000000 1.0
C      1  0.4813780000000  0.4802360000000  0.5358950000000 1.0
C      1  0.5278860000000  0.4904120000000  0.5351640000000 1.0
C      1  0.5443320000000  0.5833860000000  0.5191600000000 1.0
C      1  0.4044840000000  0.4961220000000  0.5187820000000 1.0
C      1  0.5509970000000  0.4172460000000  0.5178440000000 1.0
C      1  0.4283230000000  0.5599090000000  0.5232040000000 1.0
C      1  0.4837060000000  0.4068070000000  0.5235050000000 1.0
C      1  0.5881000000000  0.5303970000000  0.5228180000000 1.0
C      1  0.5323170000000  0.4403840000000  0.5693470000000 1.0
C      1  0.5315050000000  0.5537550000000  0.5659410000000 1.0
C      1  0.4342150000000  0.5011830000000  0.5692590000000 1.0
C      1  0.5019930000000  0.5275340000000  0.4356270000000 1.0
C      1  0.4757280000000  0.4868340000000  0.4356840000000 1.0
C      1  0.5240650000000  0.4843190000000  0.4350010000000 1.0
C      1  0.4892720000000  0.4623370000000  0.4920350000000 1.0
C      1  0.5388300000000  0.5080250000000  0.4916580000000 1.0
C      1  0.4748670000000  0.5282080000000  0.4926270000000 1.0
C      1  0.5615300000000  0.4431680000000  0.5244730000000 1.0
C      1  0.5162120000000  0.5809000000000  0.5250440000000 1.0
C      1  0.4222280000000  0.4744210000000  0.5251100000000 1.0
C      1  0.5627410000000  0.5019220000000  0.4757080000000 1.0
C      1  0.4672500000000  0.5515980000000  0.4765790000000 1.0
C      1  0.4720180000000  0.4444510000000  0.4764510000000 1.0
C      1  0.4244260000000  0.5267110000000  0.5631620000000 1.0
C      1  0.5147720000000  0.4193680000000  0.5634130000000 1.0
C      1  0.5584460000000  0.5489510000000  0.5607620000000 1.0
C      1  0.4996680000000  0.5817590000000  0.5002270000000 1.0
C      1  0.4299160000000  0.4587160000000  0.5007950000000 1.0
C      1  0.5714270000000  0.4579030000000  0.5000370000000 1.0
C      1  0.4361070000000  0.4783220000000  0.5500590000000 1.0
C      1  0.5517920000000  0.4527590000000  0.5500710000000 1.0
C      1  0.5111270000000  0.5702600000000  0.5513960000000 1.0
C      1  0.5592220000000  0.4460510000000  0.4762390000000 1.0
C      1  0.5166140000000  0.5771150000000  0.4767780000000 1.0
C      1  0.4257210000000  0.4753520000000  0.4772320000000 1.0
C      1  0.4898540000000  0.5423220000000  0.5856750000000 1.0
C      1  0.4714600000000  0.4750570000000  0.5825790000000 1.0
C      1  0.5367290000000  0.4859240000000  0.5817310000000 1.0
C      1  0.5274860000000  0.5774620000000  0.4285330000000 1.0
C      1  0.4197090000000  0.4842740000000  0.4290950000000 1.0
C      1  0.5541580000000  0.4368970000000  0.4279780000000 1.0
C      1  0.4935310000000  0.4109990000000  0.5495180000000 1.0
C      1  0.5779080000000  0.5354690000000  0.5484890000000 1.0
C      1  0.4274680000000  0.5493300000000  0.5492480000000 1.0
C      1  0.4612430000000  0.5509370000000  0.4473830000000 1.0
C      1  0.4756060000000  0.4397150000000  0.4471710000000 1.0
C      1  0.5648510000000  0.5077200000000  0.4465000000000 1.0
C      1  0.4756210000000  0.4810570000000  0.5084620000000 1.0
C      1  0.5297000000000  0.4863570000000  0.5076210000000 1.0
C      1  0.4983300000000  0.5312090000000  0.5085140000000 1.0
C      1  0.5628210000000  0.4633910000000  0.4178860000000 1.0
C      1  0.5002780000000  0.5715020000000  0.4184260000000 1.0
C      1  0.4382060000000  0.4636320000000  0.4187520000000 1.0
C      1  0.4084540000000  0.4751780000000  0.4544280000000 1.0
C      1  0.5678360000000  0.4313810000000  0.4532110000000 1.0
C      1  0.5251160000000  0.5920070000000  0.4538100000000 1.0
C      1  0.5030740000000  0.3957920000000  0.5053410000000 1.0
C      1  0.5873050000000  0.5532950000000  0.5054290000000 1.0
C      1  0.4091410000000  0.5481660000000  0.5052930000000 1.0
C      1  0.4016170000000  0.5213010000000  0.5100670000000 1.0
C      1  0.5302320000000  0.4025020000000  0.5095510000000 1.0
C      1  0.5674970000000  0.5729500000000  0.5105390000000 1.0
C      1  0.4714200000000  0.5742300000000  0.4955670000000 1.0
C      1  0.4502650000000  0.4375890000000  0.4959420000000 1.0
C      1  0.5795850000000  0.4862300000000  0.4950800000000 1.0
C      1  0.4956130000000  0.3790200000000  0.4850980000000 1.0
C      1  0.6052950000000  0.5563200000000  0.4850830000000 1.0
C      1  0.3981470000000  0.5625370000000  0.4848180000000 1.0
C      1  0.4369370000000  0.5392130000000  0.4355510000000 1.0
C      1  0.4978530000000  0.4245400000000  0.4350230000000 1.0
C      1  0.5665320000000  0.5347670000000  0.4347160000000 1.0
C      1  0.5321090000000  0.4547260000000  0.4734870000000 1.0
C      1  0.5235720000000  0.5494180000000  0.4741490000000 1.0
C      1  0.4466080000000  0.4947550000000  0.4745800000000 1.0
C      1  0.5171420000000  0.4649920000000  0.4940330000000 1.0
C      1  0.5228900000000  0.5310950000000  0.4945610000000 1.0
C      1  0.4632440000000  0.5026740000000  0.4950210000000 1.0
C      1  0.4946990000000  0.4640020000000  0.5936600000000 1.0
C      1  0.5301120000000  0.5113110000000  0.5914660000000 1.0
C      1  0.4707920000000  0.5237060000000  0.5943170000000 1.0
C      1  0.4570090000000  0.4999230000000  0.5879410000000 1.0
C      1  0.5221910000000  0.4612660000000  0.5875790000000 1.0
C      1  0.5183020000000  0.5359350000000  0.5848990000000 1.0
C      1  0.4648980000000  0.4606590000000  0.4298890000000 1.0
C      1  0.5521290000000  0.4880250000000  0.4291220000000 1.0
C      1  0.4845580000000  0.5498760000000  0.4298830000000 1.0
C      1  0.5459520000000  0.4809950000000  0.5543500000000 1.0
C      1  0.4869650000000  0.5646490000000  0.5669170000000 1.0
C      1  0.4635810000000  0.4697090000000  0.5548260000000 1.0
C      1  0.4591040000000  0.4176760000000  0.5143070000000 1.0
C      1  0.5924470000000  0.5039230000000  0.5133810000000 1.0
C      1  0.4496430000000  0.5762150000000  0.5138040000000 1.0
C      1  0.5019360000000  0.4984350000000  0.5429470000000 1.0
C      1  0.5006010000000  0.4996130000000  0.4324150000000 1.0
END
