TITL C-3201374-830-697 -133353.063949408 125000 -514.573563311767 0 0 87 (C1) n - 1
REM
REM in /home/nfs/bkarasulu/CARBON/AIRSS/Generating-Clusters/LCBOP/Higher-Symm/SD-CG/FIRE-CG
REM
REM
REM
REM
REM
REM ./C.cell (b20cbc046b6831c77cfcea5457e17084)
REM AIRSS Version 0.9.1 bugfix July 2018 build 013d7b7c2542+ Fri, 06 Jul 2018 19:26:36 +0100
REM compiler GCC version 9.2.1 20190827 (Red Hat 9.2.1-1)
REM options -cpp -mtune=generic -march=x86-64 -g -O0 -fpre-include=/usr/include/finclude/math-vector-fortran.h
REM seed -1836871259 -1241975205 1625014532 -124249082 1144941122 564132503 -1254824551 -452615776 1279228665 1046208530 1246060277 -1959030824 -1257140379 -776484565 1389524489 -1152146812 1486890452 -1905186230 626966401 961571757 -1814427701 -1799029101 -2146778755 -189698366 2103501007 291821772 1632627079 -665356328 -1880579636 98798764 -1858527840 -847403672 1449259488
REM
CELL 1.54180   50.00000   50.00000   50.00000   90.00000   90.00000   90.00000
LATT -1
SFAC C  
C      1  0.5117160000000  0.4103100000000  0.4880930000000 1.0
C      1  0.4735300000000  0.5030190000000  0.4090480000000 1.0
C      1  0.5188790000000  0.5763560000000  0.5185510000000 1.0
C      1  0.4975580000000  0.4855770000000  0.5895920000000 1.0
C      1  0.5241140000000  0.5880040000000  0.4928430000000 1.0
C      1  0.4767310000000  0.4757800000000  0.4190120000000 1.0
C      1  0.5028730000000  0.4148120000000  0.5160240000000 1.0
C      1  0.4850000000000  0.5122700000000  0.5850300000000 1.0
C      1  0.5474060000000  0.4256910000000  0.4615350000000 1.0
C      1  0.5128730000000  0.5383940000000  0.4069540000000 1.0
C      1  0.5494830000000  0.5424810000000  0.5376730000000 1.0
C      1  0.5448140000000  0.4727210000000  0.5763360000000 1.0
C      1  0.4902610000000  0.6082770000000  0.4644880000000 1.0
C      1  0.4499490000000  0.4625160000000  0.4596980000000 1.0
C      1  0.4579450000000  0.4343630000000  0.5330640000000 1.0
C      1  0.4510410000000  0.5257010000000  0.5548610000000 1.0
C      1  0.4762000000000  0.4590270000000  0.5248830000000 1.0
C      1  0.4794950000000  0.4675670000000  0.4716780000000 1.0
C      1  0.4883970000000  0.5802880000000  0.4550660000000 1.0
C      1  0.4699340000000  0.5153920000000  0.5340920000000 1.0
C      1  0.5257370000000  0.5236450000000  0.5282980000000 1.0
C      1  0.5144500000000  0.5414480000000  0.4358540000000 1.0
C      1  0.5350870000000  0.4519370000000  0.4639870000000 1.0
C      1  0.5281550000000  0.4763310000000  0.5524080000000 1.0
C      1  0.4653120000000  0.6201820000000  0.4719660000000 1.0
C      1  0.4054460000000  0.4734200000000  0.5247140000000 1.0
C      1  0.4324750000000  0.4343860000000  0.5176650000000 1.0
C      1  0.4296270000000  0.4701880000000  0.4809230000000 1.0
C      1  0.5952680000000  0.4810840000000  0.5338710000000 1.0
C      1  0.5696370000000  0.4894820000000  0.5748750000000 1.0
C      1  0.5745220000000  0.5255780000000  0.5369640000000 1.0
C      1  0.5390410000000  0.5347970000000  0.3957890000000 1.0
C      1  0.5632340000000  0.5127170000000  0.5901780000000 1.0
C      1  0.5857670000000  0.4643470000000  0.5153290000000 1.0
C      1  0.5537000000000  0.5153310000000  0.4083840000000 1.0
C      1  0.5816730000000  0.5279680000000  0.5090230000000 1.0
C      1  0.4166200000000  0.4810680000000  0.5480930000000 1.0
C      1  0.4482590000000  0.6055790000000  0.4877260000000 1.0
C      1  0.4301140000000  0.4990720000000  0.4817410000000 1.0
C      1  0.4357280000000  0.4151980000000  0.4972680000000 1.0
C      1  0.4526240000000  0.5121280000000  0.4703990000000 1.0
C      1  0.4553320000000  0.5781310000000  0.4914940000000 1.0
C      1  0.4439960000000  0.4783060000000  0.5535750000000 1.0
C      1  0.4571260000000  0.4220590000000  0.4819520000000 1.0
C      1  0.5396290000000  0.5005730000000  0.4285280000000 1.0
C      1  0.5601650000000  0.4566590000000  0.5074410000000 1.0
C      1  0.5416650000000  0.5248710000000  0.5788260000000 1.0
C      1  0.5598740000000  0.5330320000000  0.4917770000000 1.0
C      1  0.4478810000000  0.5248630000000  0.4458690000000 1.0
C      1  0.4687150000000  0.5701360000000  0.5148990000000 1.0
C      1  0.4574540000000  0.4633830000000  0.5735620000000 1.0
C      1  0.4719980000000  0.4133720000000  0.4612040000000 1.0
C      1  0.5267300000000  0.4768810000000  0.4203910000000 1.0
C      1  0.5449430000000  0.4395510000000  0.5237910000000 1.0
C      1  0.5217440000000  0.5428470000000  0.5810900000000 1.0
C      1  0.5563690000000  0.5554130000000  0.4750400000000 1.0
C      1  0.5251410000000  0.5170650000000  0.4478030000000 1.0
C      1  0.5344090000000  0.5199340000000  0.4988000000000 1.0
C      1  0.5294720000000  0.5034920000000  0.5491610000000 1.0
C      1  0.5476040000000  0.4667830000000  0.4842370000000 1.0
C      1  0.4773620000000  0.4977330000000  0.4744370000000 1.0
C      1  0.4766020000000  0.4519010000000  0.4957380000000 1.0
C      1  0.4635890000000  0.4866430000000  0.5325980000000 1.0
C      1  0.4659770000000  0.5672130000000  0.4671430000000 1.0
C      1  0.4533830000000  0.4639500000000  0.4313610000000 1.0
C      1  0.5117880000000  0.6114760000000  0.4828960000000 1.0
C      1  0.4571540000000  0.5185410000000  0.5809350000000 1.0
C      1  0.4766960000000  0.4115390000000  0.5283230000000 1.0
C      1  0.4930010000000  0.5201680000000  0.3978590000000 1.0
C      1  0.5385640000000  0.4061800000000  0.4787690000000 1.0
C      1  0.5247490000000  0.4784400000000  0.5975140000000 1.0
C      1  0.5416370000000  0.5694110000000  0.5344690000000 1.0
C      1  0.5022340000000  0.4652850000000  0.4284530000000 1.0
C      1  0.5329270000000  0.5705720000000  0.4715120000000 1.0
C      1  0.4982250000000  0.5337530000000  0.5696950000000 1.0
C      1  0.5183270000000  0.4342340000000  0.5310310000000 1.0
C      1  0.4519690000000  0.5173830000000  0.4204800000000 1.0
C      1  0.4981980000000  0.4218730000000  0.4640610000000 1.0
C      1  0.4857670000000  0.4640860000000  0.5737500000000 1.0
C      1  0.4940350000000  0.5617430000000  0.5242270000000 1.0
C      1  0.5125490000000  0.5649970000000  0.4515770000000 1.0
C      1  0.5026950000000  0.4576120000000  0.5453620000000 1.0
C      1  0.5043940000000  0.4522800000000  0.4563150000000 1.0
C      1  0.4962780000000  0.5335510000000  0.5363700000000 1.0
C      1  0.5817450000000  0.4997950000000  0.5500160000000 1.0
C      1  0.4201630000000  0.4580900000000  0.5060490000000 1.0
C      1  0.5215630000000  0.5116550000000  0.4752420000000 1.0
END
