TITL C-3201376-6384-2035 -1.27321711051123e-06 125000 -818.176521018974 0 0 132 (C1) n - 1
REM
REM in /home/nfs/bkarasulu/CARBON/AIRSS/Generating-Clusters/LCBOP/Higher-Symm/SD-CG/FIRE-CG
REM
REM
REM
REM
REM
REM ./C.cell (b20cbc046b6831c77cfcea5457e17084)
REM AIRSS Version 0.9.1 bugfix July 2018 build 013d7b7c2542+ Fri, 06 Jul 2018 19:26:36 +0100
REM compiler GCC version 9.2.1 20190827 (Red Hat 9.2.1-1)
REM options -cpp -mtune=generic -march=x86-64 -g -O0 -fpre-include=/usr/include/finclude/math-vector-fortran.h
REM seed -581226088 -1391247594 1581915477 1174979008 -1425114403 417454663 -418877077 1826868293 699029982 1977689646 839624479 650024496 -1476099633 1430223811 1140796358 1741365322 -1709064454 1780679257 1458098488 1555442272 -1048265990 1114925506 2100619397 -1783689960 -2095049989 -704032780 265882386 -1726895044 -1839805346 -1703825740 2022440345 177297774 -1085218735
REM
CELL 1.54180   50.00000   50.00000   50.00000   90.00000   90.00000   90.00000
LATT -1
SFAC C  
C      1  0.5309680000000  0.5619000000000  0.4276480000000 1.0
C      1  0.4319490000000  0.5273160000000  0.5606270000000 1.0
C      1  0.5637720000000  0.4297450000000  0.5281490000000 1.0
C      1  0.4685990000000  0.5594700000000  0.5660250000000 1.0
C      1  0.5294090000000  0.4371620000000  0.5722920000000 1.0
C      1  0.4694780000000  0.4428020000000  0.4374290000000 1.0
C      1  0.5675280000000  0.5290540000000  0.4404150000000 1.0
C      1  0.4299500000000  0.4728250000000  0.4390390000000 1.0
C      1  0.5662120000000  0.4696590000000  0.5581740000000 1.0
C      1  0.4366130000000  0.4274780000000  0.4726910000000 1.0
C      1  0.5601390000000  0.5660430000000  0.4725360000000 1.0
C      1  0.4391490000000  0.5707140000000  0.5283140000000 1.0
C      1  0.5729670000000  0.5362300000000  0.5466560000000 1.0
C      1  0.5500680000000  0.5792280000000  0.5330000000000 1.0
C      1  0.5234890000000  0.5452790000000  0.5603740000000 1.0
C      1  0.4344240000000  0.5293500000000  0.4531270000000 1.0
C      1  0.5810580000000  0.4655240000000  0.4482140000000 1.0
C      1  0.4338140000000  0.4708960000000  0.5493540000000 1.0
C      1  0.4552240000000  0.5760420000000  0.4719810000000 1.0
C      1  0.5486000000000  0.4346640000000  0.4722810000000 1.0
C      1  0.4528070000000  0.4245430000000  0.5308120000000 1.0
C      1  0.4745360000000  0.5509090000000  0.4307100000000 1.0
C      1  0.5374400000000  0.4520860000000  0.4256810000000 1.0
C      1  0.4652760000000  0.4458460000000  0.5798290000000 1.0
C      1  0.5585640000000  0.5237900000000  0.4127730000000 1.0
C      1  0.4156720000000  0.5552090000000  0.5227000000000 1.0
C      1  0.5251380000000  0.4120030000000  0.5578290000000 1.0
C      1  0.4424900000000  0.5223770000000  0.5875870000000 1.0
C      1  0.5544110000000  0.4777930000000  0.5838890000000 1.0
C      1  0.4446820000000  0.4787290000000  0.4141660000000 1.0
C      1  0.5876460000000  0.5569790000000  0.4770430000000 1.0
C      1  0.4127310000000  0.4441740000000  0.4775360000000 1.0
C      1  0.5898030000000  0.4429060000000  0.5235310000000 1.0
C      1  0.4769720000000  0.4156880000000  0.4472360000000 1.0
C      1  0.5258430000000  0.5860310000000  0.4432630000000 1.0
C      1  0.4742640000000  0.5867900000000  0.5556990000000 1.0
C      1  0.4570760000000  0.4440770000000  0.4844580000000 1.0
C      1  0.4692490000000  0.4597790000000  0.4630160000000 1.0
C      1  0.4498970000000  0.4811590000000  0.4578390000000 1.0
C      1  0.5471520000000  0.4509550000000  0.5184190000000 1.0
C      1  0.4621700000000  0.5561570000000  0.5188010000000 1.0
C      1  0.5464560000000  0.5422590000000  0.4794140000000 1.0
C      1  0.5196300000000  0.4556610000000  0.5529960000000 1.0
C      1  0.4743250000000  0.5408640000000  0.5414800000000 1.0
C      1  0.5202650000000  0.5406960000000  0.4438290000000 1.0
C      1  0.5418370000000  0.4696410000000  0.5402250000000 1.0
C      1  0.4545920000000  0.5187210000000  0.5453890000000 1.0
C      1  0.5415900000000  0.5250560000000  0.4561100000000 1.0
C      1  0.4492330000000  0.3969710000000  0.5167620000000 1.0
C      1  0.5175620000000  0.4572520000000  0.4061010000000 1.0
C      1  0.4069710000000  0.5152100000000  0.4543570000000 1.0
C      1  0.5459730000000  0.4072830000000  0.4861030000000 1.0
C      1  0.4504690000000  0.6027650000000  0.4864670000000 1.0
C      1  0.5469690000000  0.6003320000000  0.5141960000000 1.0
C      1  0.4857020000000  0.4505260000000  0.5997650000000 1.0
C      1  0.5117850000000  0.5432530000000  0.5885810000000 1.0
C      1  0.4893700000000  0.5493170000000  0.4031440000000 1.0
C      1  0.5936880000000  0.5171040000000  0.5425050000000 1.0
C      1  0.4066890000000  0.4854600000000  0.5470630000000 1.0
C      1  0.6008620000000  0.4854280000000  0.4529500000000 1.0
C      1  0.4974520000000  0.5929840000000  0.4446540000000 1.0
C      1  0.4445560000000  0.4933050000000  0.5927270000000 1.0
C      1  0.5938260000000  0.4445590000000  0.4942900000000 1.0
C      1  0.5029100000000  0.5906220000000  0.5526200000000 1.0
C      1  0.4953850000000  0.4088340000000  0.5573250000000 1.0
C      1  0.5066200000000  0.4160250000000  0.4473730000000 1.0
C      1  0.5598720000000  0.4945020000000  0.4108400000000 1.0
C      1  0.4477800000000  0.5078740000000  0.4100540000000 1.0
C      1  0.5512600000000  0.5067840000000  0.5827570000000 1.0
C      1  0.4113500000000  0.4464970000000  0.5073210000000 1.0
C      1  0.5900690000000  0.5594650000000  0.5061230000000 1.0
C      1  0.4128600000000  0.5537910000000  0.4937570000000 1.0
C      1  0.5436280000000  0.4861640000000  0.4857580000000 1.0
C      1  0.4951120000000  0.5488040000000  0.4867790000000 1.0
C      1  0.4855970000000  0.4849830000000  0.5418810000000 1.0
C      1  0.4493580000000  0.4905500000000  0.5097920000000 1.0
C      1  0.5430050000000  0.5045970000000  0.5078860000000 1.0
C      1  0.4512020000000  0.5110870000000  0.4935010000000 1.0
C      1  0.5110280000000  0.5404550000000  0.5088820000000 1.0
C      1  0.4936080000000  0.4479060000000  0.5139670000000 1.0
C      1  0.5083200000000  0.4556310000000  0.4915360000000 1.0
C      1  0.5043530000000  0.4922290000000  0.4596400000000 1.0
C      1  0.4840540000000  0.5115180000000  0.4571480000000 1.0
C      1  0.5063940000000  0.5042550000000  0.5398260000000 1.0
C      1  0.4565210000000  0.4898110000000  0.5377100000000 1.0
C      1  0.5376900000000  0.4565260000000  0.4913700000000 1.0
C      1  0.4930090000000  0.5380680000000  0.4520640000000 1.0
C      1  0.5319890000000  0.4980590000000  0.4626810000000 1.0
C      1  0.4551040000000  0.5091520000000  0.4652640000000 1.0
C      1  0.5321970000000  0.4952460000000  0.5316290000000 1.0
C      1  0.4686590000000  0.4379820000000  0.5088530000000 1.0
C      1  0.5367740000000  0.5314770000000  0.5024510000000 1.0
C      1  0.4722170000000  0.5614230000000  0.4933090000000 1.0
C      1  0.5028570000000  0.5338740000000  0.5380250000000 1.0
C      1  0.4962180000000  0.4593770000000  0.5391750000000 1.0
C      1  0.4957740000000  0.4681120000000  0.4700970000000 1.0
C      1  0.5105810000000  0.4584420000000  0.6078400000000 1.0
C      1  0.6067000000000  0.5109710000000  0.4596230000000 1.0
C      1  0.4533400000000  0.6114060000000  0.5125090000000 1.0
C      1  0.4917680000000  0.4615750000000  0.3997370000000 1.0
C      1  0.5132830000000  0.5428640000000  0.3909270000000 1.0
C      1  0.4890230000000  0.5392150000000  0.6025930000000 1.0
C      1  0.3958750000000  0.5094540000000  0.5398920000000 1.0
C      1  0.6027070000000  0.4919110000000  0.5384360000000 1.0
C      1  0.3949440000000  0.4913950000000  0.4607210000000 1.0
C      1  0.5415880000000  0.6060120000000  0.4883260000000 1.0
C      1  0.4548490000000  0.3892990000000  0.4904810000000 1.0
C      1  0.5402140000000  0.3954190000000  0.5100440000000 1.0
C      1  0.4671790000000  0.4591570000000  0.4133500000000 1.0
C      1  0.4075020000000  0.4656240000000  0.4571520000000 1.0
C      1  0.4543280000000  0.4044040000000  0.4652710000000 1.0
C      1  0.5358470000000  0.4562830000000  0.5941080000000 1.0
C      1  0.4638690000000  0.5430610000000  0.5901950000000 1.0
C      1  0.5390720000000  0.5453670000000  0.4040670000000 1.0
C      1  0.5905200000000  0.4665790000000  0.5422860000000 1.0
C      1  0.4100340000000  0.5341680000000  0.5425970000000 1.0
C      1  0.5908480000000  0.5343240000000  0.4574920000000 1.0
C      1  0.5450630000000  0.4077590000000  0.5356510000000 1.0
C      1  0.4526680000000  0.5956970000000  0.5367260000000 1.0
C      1  0.5440960000000  0.5888710000000  0.4660140000000 1.0
C      1  0.4310240000000  0.5554840000000  0.4704250000000 1.0
C      1  0.4695410000000  0.4243180000000  0.5581880000000 1.0
C      1  0.5606610000000  0.4698700000000  0.4270740000000 1.0
C      1  0.5722650000000  0.5598250000000  0.5296240000000 1.0
C      1  0.4287610000000  0.4447990000000  0.5316400000000 1.0
C      1  0.5777590000000  0.4453560000000  0.4693310000000 1.0
C      1  0.5311950000000  0.4327120000000  0.4466730000000 1.0
C      1  0.4717390000000  0.5784120000000  0.4451070000000 1.0
C      1  0.5270940000000  0.5743340000000  0.5504120000000 1.0
C      1  0.4452270000000  0.4675670000000  0.5776900000000 1.0
C      1  0.5504530000000  0.5294870000000  0.5639700000000 1.0
C      1  0.4485770000000  0.5328880000000  0.4261860000000 1.0
END
