TITL C-3201377-4638-712 0.239687668819433 125000 -650.764455418921 0 0 108 (C1) n - 1
REM
REM in /home/nfs/bkarasulu/CARBON/AIRSS/Generating-Clusters/LCBOP/Higher-Symm/SD-CG/FIRE-CG
REM
REM
REM
REM
REM
REM ./C.cell (b20cbc046b6831c77cfcea5457e17084)
REM AIRSS Version 0.9.1 bugfix July 2018 build 013d7b7c2542+ Fri, 06 Jul 2018 19:26:36 +0100
REM compiler GCC version 9.2.1 20190827 (Red Hat 9.2.1-1)
REM options -cpp -mtune=generic -march=x86-64 -g -O0 -fpre-include=/usr/include/finclude/math-vector-fortran.h
REM seed 1720851546 1613689693 978450284 -75442681 -936174965 -740527470 1861299698 122715919 -1247023071 -1460742796 123267297 -2108875614 -467184124 665020260 -1180424617 -1901454882 2037269026 -563529643 -1191448490 1662674125 -235937180 1068174113 996788462 -174326054 -204087045 -935173834 1304358600 -1136393604 212708588 666228325 -300806885 -1029871513 -446527126
REM
CELL 1.54180   50.00000   50.00000   50.00000   90.00000   90.00000   90.00000
LATT -1
SFAC C  
C      1  0.4682890000000  0.5716910000000  0.5159450000000 1.0
C      1  0.4688980000000  0.5706030000000  0.4870790000000 1.0
C      1  0.4202840000000  0.4790190000000  0.5677460000000 1.0
C      1  0.4104960000000  0.4787780000000  0.4228530000000 1.0
C      1  0.4968420000000  0.4201760000000  0.5209750000000 1.0
C      1  0.4874260000000  0.4228620000000  0.4680260000000 1.0
C      1  0.5159730000000  0.5864220000000  0.4715360000000 1.0
C      1  0.5176800000000  0.5834470000000  0.5261570000000 1.0
C      1  0.5836430000000  0.5778360000000  0.4738190000000 1.0
C      1  0.5716260000000  0.5299840000000  0.5515220000000 1.0
C      1  0.5384340000000  0.4592910000000  0.5159530000000 1.0
C      1  0.5191810000000  0.4862130000000  0.4529720000000 1.0
C      1  0.5503350000000  0.4569860000000  0.4307150000000 1.0
C      1  0.5832050000000  0.4583870000000  0.5751010000000 1.0
C      1  0.4462780000000  0.4874890000000  0.5748060000000 1.0
C      1  0.4349970000000  0.4915880000000  0.4170540000000 1.0
C      1  0.5003580000000  0.5008630000000  0.4700480000000 1.0
C      1  0.5168790000000  0.4713990000000  0.5060180000000 1.0
C      1  0.4709670000000  0.4764720000000  0.5637550000000 1.0
C      1  0.4613790000000  0.4806400000000  0.4235450000000 1.0
C      1  0.5109850000000  0.5733120000000  0.4451720000000 1.0
C      1  0.5160160000000  0.5621310000000  0.5475160000000 1.0
C      1  0.5140530000000  0.4559440000000  0.3972840000000 1.0
C      1  0.5360210000000  0.4507500000000  0.5787020000000 1.0
C      1  0.5359100000000  0.5120330000000  0.5322720000000 1.0
C      1  0.5582960000000  0.5589640000000  0.4380850000000 1.0
C      1  0.5803700000000  0.5564810000000  0.4555290000000 1.0
C      1  0.5645880000000  0.5099440000000  0.5312400000000 1.0
C      1  0.4544440000000  0.4710310000000  0.5182850000000 1.0
C      1  0.4529760000000  0.4739920000000  0.4696160000000 1.0
C      1  0.5639010000000  0.5212690000000  0.5780380000000 1.0
C      1  0.5438240000000  0.5182950000000  0.4081120000000 1.0
C      1  0.5239900000000  0.4482470000000  0.4225930000000 1.0
C      1  0.5592500000000  0.4503660000000  0.5628730000000 1.0
C      1  0.4998310000000  0.4788000000000  0.3935160000000 1.0
C      1  0.5139570000000  0.4649760000000  0.5828820000000 1.0
C      1  0.5915620000000  0.4801700000000  0.5883410000000 1.0
C      1  0.5474250000000  0.4838420000000  0.4421100000000 1.0
C      1  0.4679290000000  0.4586220000000  0.5404390000000 1.0
C      1  0.4613390000000  0.4604580000000  0.4458420000000 1.0
C      1  0.4886750000000  0.5490430000000  0.4788550000000 1.0
C      1  0.4838750000000  0.5471840000000  0.5225760000000 1.0
C      1  0.4846810000000  0.4957190000000  0.4112260000000 1.0
C      1  0.4965730000000  0.4860760000000  0.5753530000000 1.0
C      1  0.5715360000000  0.5804270000000  0.4976840000000 1.0
C      1  0.5684230000000  0.5555600000000  0.5392040000000 1.0
C      1  0.4258110000000  0.4715650000000  0.5140540000000 1.0
C      1  0.4259660000000  0.4821620000000  0.4705980000000 1.0
C      1  0.4344600000000  0.5188990000000  0.4099660000000 1.0
C      1  0.4486410000000  0.5109300000000  0.5903350000000 1.0
C      1  0.4421710000000  0.5235560000000  0.5245920000000 1.0
C      1  0.4524360000000  0.5215250000000  0.4768790000000 1.0
C      1  0.3670720000000  0.4770710000000  0.5121610000000 1.0
C      1  0.3659340000000  0.4749410000000  0.4854630000000 1.0
C      1  0.4845890000000  0.5708220000000  0.4323750000000 1.0
C      1  0.4955210000000  0.5625560000000  0.5683200000000 1.0
C      1  0.4567270000000  0.5870760000000  0.4680690000000 1.0
C      1  0.4629350000000  0.5867910000000  0.5391550000000 1.0
C      1  0.4805120000000  0.5232910000000  0.4695590000000 1.0
C      1  0.4672640000000  0.5275340000000  0.5333960000000 1.0
C      1  0.4644310000000  0.5879980000000  0.4422500000000 1.0
C      1  0.4746660000000  0.5815010000000  0.5632900000000 1.0
C      1  0.3733480000000  0.4734700000000  0.4597510000000 1.0
C      1  0.3774630000000  0.4784380000000  0.5368490000000 1.0
C      1  0.4494960000000  0.5409730000000  0.4117200000000 1.0
C      1  0.4649860000000  0.5319850000000  0.5930920000000 1.0
C      1  0.3961610000000  0.4785400000000  0.5560780000000 1.0
C      1  0.3886500000000  0.4741750000000  0.4377410000000 1.0
C      1  0.5894650000000  0.5309560000000  0.4651630000000 1.0
C      1  0.5804220000000  0.5054780000000  0.5080740000000 1.0
C      1  0.5083590000000  0.4602150000000  0.4440000000000 1.0
C      1  0.5550600000000  0.4509670000000  0.5351190000000 1.0
C      1  0.5220910000000  0.5337900000000  0.4166830000000 1.0
C      1  0.5360270000000  0.5177470000000  0.5846690000000 1.0
C      1  0.5829130000000  0.5053840000000  0.5915330000000 1.0
C      1  0.5582050000000  0.5034190000000  0.4252270000000 1.0
C      1  0.4761190000000  0.5465010000000  0.4187550000000 1.0
C      1  0.4905790000000  0.5373310000000  0.5824330000000 1.0
C      1  0.4945800000000  0.5244030000000  0.4152180000000 1.0
C      1  0.5075970000000  0.5134950000000  0.5808990000000 1.0
C      1  0.4496450000000  0.4170190000000  0.5210760000000 1.0
C      1  0.4403370000000  0.4233350000000  0.4723720000000 1.0
C      1  0.5238600000000  0.5347970000000  0.5415000000000 1.0
C      1  0.5306090000000  0.5565380000000  0.4327800000000 1.0
C      1  0.6158660000000  0.5207610000000  0.4663270000000 1.0
C      1  0.6074020000000  0.4968280000000  0.5067850000000 1.0
C      1  0.4630810000000  0.4324310000000  0.4564320000000 1.0
C      1  0.4725400000000  0.4305080000000  0.5323000000000 1.0
C      1  0.6240670000000  0.5044740000000  0.4866020000000 1.0
C      1  0.5712640000000  0.5179030000000  0.4835190000000 1.0
C      1  0.5450090000000  0.5272560000000  0.4834620000000 1.0
C      1  0.5344240000000  0.5472660000000  0.5004210000000 1.0
C      1  0.5484830000000  0.3776350000000  0.5660620000000 1.0
C      1  0.5838760000000  0.3537630000000  0.5967470000000 1.0
C      1  0.4954380000000  0.4832030000000  0.4925470000000 1.0
C      1  0.4686850000000  0.4749040000000  0.4939470000000 1.0
C      1  0.5154270000000  0.4067930000000  0.5368030000000 1.0
C      1  0.5054030000000  0.5463730000000  0.5025050000000 1.0
C      1  0.4149920000000  0.4458640000000  0.5081220000000 1.0
C      1  0.4320750000000  0.4246460000000  0.4999360000000 1.0
C      1  0.4982720000000  0.4192850000000  0.4924940000000 1.0
C      1  0.5169960000000  0.5970430000000  0.4994420000000 1.0
C      1  0.5171920000000  0.6248490000000  0.5009480000000 1.0
C      1  0.4337630000000  0.5171830000000  0.4986300000000 1.0
C      1  0.5662900000000  0.3655210000000  0.5815110000000 1.0
C      1  0.4188720000000  0.4931360000000  0.4958450000000 1.0
C      1  0.5563520000000  0.5628540000000  0.5139260000000 1.0
C      1  0.5312550000000  0.3909900000000  0.5509970000000 1.0
END
