TITL C-3201372-1405-784 2.28605359425513e-07 125000 -854.340377590426 0 0 142 (C1) n - 1
REM
REM in /home/nfs/bkarasulu/CARBON/AIRSS/Generating-Clusters/LCBOP/Higher-Symm/SD-CG/FIRE-CG
REM
REM
REM
REM
REM
REM ./C.cell (b20cbc046b6831c77cfcea5457e17084)
REM AIRSS Version 0.9.1 bugfix July 2018 build 013d7b7c2542+ Fri, 06 Jul 2018 19:26:36 +0100
REM compiler GCC version 9.2.1 20190827 (Red Hat 9.2.1-1)
REM options -cpp -mtune=generic -march=x86-64 -g -O0 -fpre-include=/usr/include/finclude/math-vector-fortran.h
REM seed -1125763789 1258161423 -904587884 -1085048463 -454540957 952950189 318659522 959199998 2113555083 1734176073 1785090629 248928089 -1995774903 640556177 -1872409983 -1551078650 -1436462505 -1660809769 -1013555505 266592700 607637256 1046982184 -2090126803 -590046786 304783930 -1649206158 1945762835 -169987417 1539437802 911083053 2075625858 -1570553149 -152142383
REM
CELL 1.54180   50.00000   50.00000   50.00000   90.00000   90.00000   90.00000
LATT -1
SFAC C  
C      1  0.3956790000000  0.5139810000000  0.5131470000000 1.0
C      1  0.4089310000000  0.4904240000000  0.4492540000000 1.0
C      1  0.4544260000000  0.5221870000000  0.4081620000000 1.0
C      1  0.5161450000000  0.4961470000000  0.4015900000000 1.0
C      1  0.5761680000000  0.5151440000000  0.4271440000000 1.0
C      1  0.6021130000000  0.4909100000000  0.4873220000000 1.0
C      1  0.5884420000000  0.5218040000000  0.5484350000000 1.0
C      1  0.5420810000000  0.4967410000000  0.5886050000000 1.0
C      1  0.4794820000000  0.5168960000000  0.6015670000000 1.0
C      1  0.4250810000000  0.4898960000000  0.5700030000000 1.0
C      1  0.5470250000000  0.5511940000000  0.5449510000000 1.0
C      1  0.5089270000000  0.4681190000000  0.5654340000000 1.0
C      1  0.4688550000000  0.5382390000000  0.5585440000000 1.0
C      1  0.4395370000000  0.4666890000000  0.5288790000000 1.0
C      1  0.4335110000000  0.5350930000000  0.4898480000000 1.0
C      1  0.4528960000000  0.4681980000000  0.4503750000000 1.0
C      1  0.4882610000000  0.5458660000000  0.4365280000000 1.0
C      1  0.5301950000000  0.4691720000000  0.4408170000000 1.0
C      1  0.5596260000000  0.5355920000000  0.4687980000000 1.0
C      1  0.5652800000000  0.4687020000000  0.5114150000000 1.0
C      1  0.4585890000000  0.6152530000000  0.4742450000000 1.0
C      1  0.4663000000000  0.3856840000000  0.4578490000000 1.0
C      1  0.5083160000000  0.6218800000000  0.4763620000000 1.0
C      1  0.5124680000000  0.3715500000000  0.4773850000000 1.0
C      1  0.5535940000000  0.6033970000000  0.4937580000000 1.0
C      1  0.5485200000000  0.3812460000000  0.5101070000000 1.0
C      1  0.5272320000000  0.6270760000000  0.5228810000000 1.0
C      1  0.5056980000000  0.3710350000000  0.5292340000000 1.0
C      1  0.4793250000000  0.6269220000000  0.5187070000000 1.0
C      1  0.4694670000000  0.3621680000000  0.4978100000000 1.0
C      1  0.4332200000000  0.4588200000000  0.5007890000000 1.0
C      1  0.4456780000000  0.5439680000000  0.4652250000000 1.0
C      1  0.4769140000000  0.4595720000000  0.4351750000000 1.0
C      1  0.5178350000000  0.5468230000000  0.4398760000000 1.0
C      1  0.5522370000000  0.4601060000000  0.4585220000000 1.0
C      1  0.5652370000000  0.5438390000000  0.4958930000000 1.0
C      1  0.5551250000000  0.4596820000000  0.5377630000000 1.0
C      1  0.5192700000000  0.5522590000000  0.5587600000000 1.0
C      1  0.4808120000000  0.4586240000000  0.5636330000000 1.0
C      1  0.4488440000000  0.5452420000000  0.5385060000000 1.0
C      1  0.4350030000000  0.5626690000000  0.4470140000000 1.0
C      1  0.4763950000000  0.4399240000000  0.4149070000000 1.0
C      1  0.5325870000000  0.5620750000000  0.4214890000000 1.0
C      1  0.5680160000000  0.4385080000000  0.4496170000000 1.0
C      1  0.5866970000000  0.5602730000000  0.5043520000000 1.0
C      1  0.5686400000000  0.4401320000000  0.5529530000000 1.0
C      1  0.5154130000000  0.5711900000000  0.5793480000000 1.0
C      1  0.4722400000000  0.4376380000000  0.5802950000000 1.0
C      1  0.4306860000000  0.5662970000000  0.5421230000000 1.0
C      1  0.4144190000000  0.4383420000000  0.4966000000000 1.0
C      1  0.5374120000000  0.3882950000000  0.4833370000000 1.0
C      1  0.5418810000000  0.5996040000000  0.5221420000000 1.0
C      1  0.5301320000000  0.3911310000000  0.5324230000000 1.0
C      1  0.4856150000000  0.6091700000000  0.5419610000000 1.0
C      1  0.4839170000000  0.3873830000000  0.5411120000000 1.0
C      1  0.4573880000000  0.6102430000000  0.5039250000000 1.0
C      1  0.4563560000000  0.3871720000000  0.4862620000000 1.0
C      1  0.4819280000000  0.6011040000000  0.4616170000000 1.0
C      1  0.4950950000000  0.3943230000000  0.4558980000000 1.0
C      1  0.5315410000000  0.6013070000000  0.4732990000000 1.0
C      1  0.5802040000000  0.5227310000000  0.4537400000000 1.0
C      1  0.5887920000000  0.4848620000000  0.5111620000000 1.0
C      1  0.5659350000000  0.5332500000000  0.5608920000000 1.0
C      1  0.5167440000000  0.4850450000000  0.5870130000000 1.0
C      1  0.4607010000000  0.5248940000000  0.5824170000000 1.0
C      1  0.4200050000000  0.4810260000000  0.5439800000000 1.0
C      1  0.4080290000000  0.5222600000000  0.4894560000000 1.0
C      1  0.4333010000000  0.4841220000000  0.4370170000000 1.0
C      1  0.4804630000000  0.5321110000000  0.4115800000000 1.0
C      1  0.5360740000000  0.4850570000000  0.4178050000000 1.0
C      1  0.4489400000000  0.5801530000000  0.4294800000000 1.0
C      1  0.4909560000000  0.4167770000000  0.4074650000000 1.0
C      1  0.5448820000000  0.5871810000000  0.4217800000000 1.0
C      1  0.5727080000000  0.4108600000000  0.4470990000000 1.0
C      1  0.5862520000000  0.5774540000000  0.5270150000000 1.0
C      1  0.5652800000000  0.4153870000000  0.5661630000000 1.0
C      1  0.5042380000000  0.5953520000000  0.5884690000000 1.0
C      1  0.4673510000000  0.4105180000000  0.5861860000000 1.0
C      1  0.4181900000000  0.5906710000000  0.5355640000000 1.0
C      1  0.4073230000000  0.4113430000000  0.4933760000000 1.0
C      1  0.4315960000000  0.6079250000000  0.5177350000000 1.0
C      1  0.4280160000000  0.3925950000000  0.4901730000000 1.0
C      1  0.4755030000000  0.5847430000000  0.4370370000000 1.0
C      1  0.5020760000000  0.4010390000000  0.4282600000000 1.0
C      1  0.5419030000000  0.6007040000000  0.4460230000000 1.0
C      1  0.5570040000000  0.3930640000000  0.4622460000000 1.0
C      1  0.5593830000000  0.5798490000000  0.5376900000000 1.0
C      1  0.5451360000000  0.3979770000000  0.5566940000000 1.0
C      1  0.4907210000000  0.6107720000000  0.5691320000000 1.0
C      1  0.4735520000000  0.3912790000000  0.5665290000000 1.0
C      1  0.3991220000000  0.4942140000000  0.5307010000000 1.0
C      1  0.3998790000000  0.5089460000000  0.4661560000000 1.0
C      1  0.4405680000000  0.5005990000000  0.4154930000000 1.0
C      1  0.5003230000000  0.5173210000000  0.3981690000000 1.0
C      1  0.5615220000000  0.4964950000000  0.4149390000000 1.0
C      1  0.6002040000000  0.5088300000000  0.4676810000000 1.0
C      1  0.5951390000000  0.5009120000000  0.5332990000000 1.0
C      1  0.5559730000000  0.5186800000000  0.5827320000000 1.0
C      1  0.4972940000000  0.4971010000000  0.6032450000000 1.0
C      1  0.4367100000000  0.5103900000000  0.5824210000000 1.0
C      1  0.5920800000000  0.4014880000000  0.4302580000000 1.0
C      1  0.6079810000000  0.5899640000000  0.5375310000000 1.0
C      1  0.5809610000000  0.4085320000000  0.5874440000000 1.0
C      1  0.5063310000000  0.6033530000000  0.6144480000000 1.0
C      1  0.4568880000000  0.4030710000000  0.6102960000000 1.0
C      1  0.3938930000000  0.5973540000000  0.5460760000000 1.0
C      1  0.3811430000000  0.4035710000000  0.4933590000000 1.0
C      1  0.4373800000000  0.5912760000000  0.4074930000000 1.0
C      1  0.4942380000000  0.4099380000000  0.3812390000000 1.0
C      1  0.5584510000000  0.5973900000000  0.4005230000000 1.0
C      1  0.5151180000000  0.4177130000000  0.5206720000000 1.0
C      1  0.4915270000000  0.5844840000000  0.5277590000000 1.0
C      1  0.4850670000000  0.4099130000000  0.5230800000000 1.0
C      1  0.4724090000000  0.5825970000000  0.5053040000000 1.0
C      1  0.4742020000000  0.4104020000000  0.4964660000000 1.0
C      1  0.4874500000000  0.5783310000000  0.4810850000000 1.0
C      1  0.4969140000000  0.4192540000000  0.4752370000000 1.0
C      1  0.5158510000000  0.5773620000000  0.4864490000000 1.0
C      1  0.5225800000000  0.4134460000000  0.4909110000000 1.0
C      1  0.5176990000000  0.5811600000000  0.5157980000000 1.0
C      1  0.5316510000000  0.5335450000000  0.4613990000000 1.0
C      1  0.5494390000000  0.4632930000000  0.4873790000000 1.0
C      1  0.5459170000000  0.5372810000000  0.5165360000000 1.0
C      1  0.5268570000000  0.4614760000000  0.5435510000000 1.0
C      1  0.4964540000000  0.5368450000000  0.5494510000000 1.0
C      1  0.4667850000000  0.4629660000000  0.5386090000000 1.0
C      1  0.4511040000000  0.5327100000000  0.5126750000000 1.0
C      1  0.4523880000000  0.4645190000000  0.4795570000000 1.0
C      1  0.4728690000000  0.5360090000000  0.4597730000000 1.0
C      1  0.5030170000000  0.4620530000000  0.4476650000000 1.0
C      1  0.4866700000000  0.5218140000000  0.4798000000000 1.0
C      1  0.5000650000000  0.4499790000000  0.4742110000000 1.0
C      1  0.5153650000000  0.5215450000000  0.4811470000000 1.0
C      1  0.5232880000000  0.4552680000000  0.4935160000000 1.0
C      1  0.5230140000000  0.5229220000000  0.5091480000000 1.0
C      1  0.5127030000000  0.4489830000000  0.5210240000000 1.0
C      1  0.4991310000000  0.5229840000000  0.5249560000000 1.0
C      1  0.4848910000000  0.4600570000000  0.5174780000000 1.0
C      1  0.4764750000000  0.5215490000000  0.5068800000000 1.0
C      1  0.4782330000000  0.4620850000000  0.4901430000000 1.0
C      1  0.4983400000000  0.3624920000000  0.5010840000000 1.0
C      1  0.5044690000000  0.6316250000000  0.5036660000000 1.0
END
