TITL C-3201376-6384-1378 365.319267200703 125000 -937.714614931361 0 0 149 (C1) n - 1
REM
REM in /home/nfs/bkarasulu/CARBON/AIRSS/Generating-Clusters/LCBOP/Higher-Symm/SD-CG/FIRE-CG
REM
REM
REM
REM
REM
REM ./C.cell (b20cbc046b6831c77cfcea5457e17084)
REM AIRSS Version 0.9.1 bugfix July 2018 build 013d7b7c2542+ Fri, 06 Jul 2018 19:26:36 +0100
REM compiler GCC version 9.2.1 20190827 (Red Hat 9.2.1-1)
REM options -cpp -mtune=generic -march=x86-64 -g -O0 -fpre-include=/usr/include/finclude/math-vector-fortran.h
REM seed -113585473 -1472266016 -1283620735 -408362048 -238758646 1124580356 -115582052 1072441248 1947914634 959854832 -1350963668 1939831703 -1764433825 253532746 -1541972601 1422215496 2001502597 2029215846 -217775374 341153458 -531430261 1320876509 573914539 -1702048529 -915316919 -1485046182 -303399268 -1813494701 -324656507 -263063744 -155526247 2017132121 -1871001793
REM
CELL 1.54180   50.00000   50.00000   50.00000   90.00000   90.00000   90.00000
LATT -1
SFAC C  
C      1  0.5207480000000  0.5968860000000  0.5715670000000 1.0
C      1  0.5248080000000  0.4097470000000  0.4323760000000 1.0
C      1  0.4691030000000  0.5914880000000  0.5637570000000 1.0
C      1  0.4718460000000  0.4113430000000  0.4361420000000 1.0
C      1  0.4771460000000  0.5999820000000  0.5156930000000 1.0
C      1  0.4776650000000  0.4015640000000  0.4836790000000 1.0
C      1  0.5215250000000  0.6030920000000  0.5232230000000 1.0
C      1  0.5229980000000  0.4007730000000  0.4792970000000 1.0
C      1  0.5082040000000  0.5039370000000  0.5419890000000 1.0
C      1  0.5146300000000  0.4900200000000  0.4497270000000 1.0
C      1  0.4812700000000  0.5124760000000  0.5473810000000 1.0
C      1  0.4857300000000  0.4899400000000  0.4505760000000 1.0
C      1  0.4483840000000  0.5269020000000  0.4784890000000 1.0
C      1  0.4467100000000  0.4765720000000  0.5196080000000 1.0
C      1  0.5498660000000  0.5237290000000  0.4895720000000 1.0
C      1  0.5583930000000  0.4627770000000  0.5118750000000 1.0
C      1  0.5328070000000  0.4468510000000  0.4677050000000 1.0
C      1  0.5358090000000  0.5643660000000  0.5417560000000 1.0
C      1  0.4675600000000  0.4479800000000  0.4700610000000 1.0
C      1  0.4660130000000  0.5549680000000  0.5303760000000 1.0
C      1  0.4702620000000  0.3877800000000  0.5321820000000 1.0
C      1  0.4703020000000  0.6137560000000  0.4677540000000 1.0
C      1  0.5279980000000  0.3836980000000  0.5243960000000 1.0
C      1  0.5276810000000  0.6127640000000  0.4761790000000 1.0
C      1  0.5372750000000  0.4893410000000  0.4318440000000 1.0
C      1  0.5317510000000  0.5113870000000  0.5579940000000 1.0
C      1  0.4621840000000  0.4891240000000  0.4334930000000 1.0
C      1  0.4611410000000  0.5128700000000  0.5681280000000 1.0
C      1  0.5155480000000  0.4294470000000  0.4836730000000 1.0
C      1  0.5151670000000  0.5732490000000  0.5233810000000 1.0
C      1  0.4863400000000  0.4312780000000  0.4889800000000 1.0
C      1  0.4872550000000  0.5694710000000  0.5118820000000 1.0
C      1  0.4400490000000  0.4302720000000  0.4748920000000 1.0
C      1  0.4392570000000  0.5732270000000  0.5250500000000 1.0
C      1  0.5624890000000  0.4276410000000  0.4729290000000 1.0
C      1  0.5615080000000  0.5745960000000  0.5321120000000 1.0
C      1  0.4589600000000  0.5022780000000  0.4856780000000 1.0
C      1  0.4554510000000  0.5020280000000  0.5134130000000 1.0
C      1  0.5438410000000  0.4967700000000  0.4879640000000 1.0
C      1  0.5422190000000  0.4847690000000  0.5140150000000 1.0
C      1  0.5395130000000  0.6074220000000  0.5016610000000 1.0
C      1  0.5404290000000  0.3916350000000  0.4996190000000 1.0
C      1  0.4594120000000  0.6067960000000  0.4943970000000 1.0
C      1  0.4595670000000  0.3950210000000  0.5052160000000 1.0
C      1  0.5996130000000  0.4820300000000  0.4672130000000 1.0
C      1  0.5987840000000  0.5194160000000  0.5325090000000 1.0
C      1  0.3993920000000  0.4813520000000  0.4679870000000 1.0
C      1  0.3998510000000  0.5201260000000  0.5334980000000 1.0
C      1  0.5159590000000  0.4210010000000  0.5948150000000 1.0
C      1  0.5141050000000  0.5814400000000  0.4053980000000 1.0
C      1  0.4901450000000  0.4189990000000  0.5831850000000 1.0
C      1  0.4886200000000  0.5822990000000  0.4179030000000 1.0
C      1  0.4728910000000  0.5603020000000  0.4083930000000 1.0
C      1  0.4743470000000  0.4414020000000  0.5923850000000 1.0
C      1  0.5272760000000  0.5590780000000  0.3977190000000 1.0
C      1  0.5283480000000  0.4442010000000  0.6012760000000 1.0
C      1  0.4171170000000  0.4350900000000  0.4598360000000 1.0
C      1  0.4163040000000  0.5677010000000  0.5399410000000 1.0
C      1  0.5847140000000  0.4346410000000  0.4580280000000 1.0
C      1  0.5857760000000  0.5669960000000  0.5436540000000 1.0
C      1  0.4415800000000  0.5662380000000  0.4538540000000 1.0
C      1  0.4431710000000  0.4361150000000  0.5460160000000 1.0
C      1  0.5564650000000  0.5666410000000  0.4573790000000 1.0
C      1  0.5602900000000  0.4301320000000  0.5443370000000 1.0
C      1  0.4704670000000  0.5681010000000  0.4599040000000 1.0
C      1  0.4720700000000  0.4333260000000  0.5417250000000 1.0
C      1  0.5281470000000  0.5690050000000  0.4569720000000 1.0
C      1  0.5316290000000  0.4270040000000  0.5412680000000 1.0
C      1  0.4377070000000  0.5881320000000  0.4997380000000 1.0
C      1  0.4385220000000  0.4145860000000  0.4999780000000 1.0
C      1  0.5605170000000  0.5875450000000  0.5054610000000 1.0
C      1  0.5631230000000  0.4095430000000  0.4968080000000 1.0
C      1  0.6026050000000  0.4667190000000  0.5170170000000 1.0
C      1  0.5956180000000  0.5325610000000  0.4852400000000 1.0
C      1  0.4010820000000  0.4687920000000  0.5175820000000 1.0
C      1  0.4020090000000  0.5324070000000  0.4836990000000 1.0
C      1  0.4265690000000  0.4581830000000  0.5118340000000 1.0
C      1  0.4273350000000  0.5438220000000  0.4884880000000 1.0
C      1  0.5828610000000  0.4480230000000  0.5098730000000 1.0
C      1  0.5702270000000  0.5427930000000  0.4928920000000 1.0
C      1  0.5137790000000  0.4876010000000  0.5196930000000 1.0
C      1  0.5257940000000  0.4768520000000  0.4737110000000 1.0
C      1  0.4666640000000  0.5248780000000  0.5263880000000 1.0
C      1  0.4755320000000  0.4788980000000  0.4769140000000 1.0
C      1  0.5141390000000  0.4554270000000  0.4135520000000 1.0
C      1  0.5139490000000  0.5469780000000  0.5842540000000 1.0
C      1  0.4852540000000  0.4557060000000  0.4147150000000 1.0
C      1  0.4849740000000  0.5469720000000  0.5847980000000 1.0
C      1  0.4295520000000  0.5708290000000  0.4795930000000 1.0
C      1  0.4306510000000  0.4314910000000  0.5205990000000 1.0
C      1  0.5659810000000  0.5695380000000  0.4845090000000 1.0
C      1  0.5749100000000  0.4222520000000  0.5196770000000 1.0
C      1  0.4357780000000  0.5007250000000  0.5687050000000 1.0
C      1  0.4364990000000  0.5006610000000  0.4334860000000 1.0
C      1  0.5572780000000  0.4987460000000  0.5588840000000 1.0
C      1  0.5621860000000  0.5021630000000  0.4330460000000 1.0
C      1  0.4872000000000  0.5585470000000  0.4824070000000 1.0
C      1  0.4879130000000  0.4403620000000  0.5186950000000 1.0
C      1  0.5122900000000  0.5500510000000  0.4713780000000 1.0
C      1  0.5159990000000  0.4409810000000  0.5222660000000 1.0
C      1  0.4738490000000  0.4822160000000  0.4079610000000 1.0
C      1  0.4741570000000  0.5201210000000  0.5924660000000 1.0
C      1  0.5254330000000  0.4820540000000  0.4066290000000 1.0
C      1  0.5239300000000  0.5198680000000  0.5844520000000 1.0
C      1  0.4270450000000  0.4558530000000  0.5612440000000 1.0
C      1  0.4259990000000  0.5456510000000  0.4392140000000 1.0
C      1  0.5722610000000  0.4539470000000  0.5580950000000 1.0
C      1  0.5710680000000  0.5466910000000  0.4419010000000 1.0
C      1  0.5566530000000  0.5294350000000  0.4227230000000 1.0
C      1  0.5545270000000  0.4727960000000  0.5727530000000 1.0
C      1  0.4410010000000  0.5273900000000  0.4217120000000 1.0
C      1  0.4415440000000  0.4738300000000  0.5793560000000 1.0
C      1  0.4046580000000  0.5284110000000  0.4545110000000 1.0
C      1  0.4047080000000  0.4726660000000  0.5467160000000 1.0
C      1  0.5917810000000  0.5294660000000  0.4564720000000 1.0
C      1  0.5936180000000  0.4725200000000  0.5446300000000 1.0
C      1  0.4114980000000  0.5010110000000  0.5522100000000 1.0
C      1  0.4118660000000  0.5001400000000  0.4495460000000 1.0
C      1  0.5838160000000  0.5001600000000  0.5472660000000 1.0
C      1  0.5862710000000  0.5014000000000  0.4499400000000 1.0
C      1  0.3989200000000  0.4546260000000  0.4592240000000 1.0
C      1  0.3995740000000  0.5469800000000  0.5419250000000 1.0
C      1  0.6010040000000  0.4557800000000  0.4571730000000 1.0
C      1  0.6012860000000  0.5452590000000  0.5430000000000 1.0
C      1  0.6055040000000  0.5140880000000  0.5046110000000 1.0
C      1  0.6067680000000  0.4867480000000  0.4958850000000 1.0
C      1  0.3939110000000  0.5145630000000  0.5048380000000 1.0
C      1  0.3931220000000  0.4870350000000  0.4966240000000 1.0
C      1  0.4843640000000  0.3948700000000  0.4559510000000 1.0
C      1  0.4815800000000  0.6080190000000  0.5439030000000 1.0
C      1  0.5133350000000  0.3936280000000  0.4531620000000 1.0
C      1  0.5101230000000  0.6114910000000  0.5487190000000 1.0
C      1  0.4731910000000  0.4398710000000  0.4365770000000 1.0
C      1  0.4717790000000  0.5631410000000  0.5639930000000 1.0
C      1  0.5268720000000  0.4381870000000  0.4335720000000 1.0
C      1  0.5270990000000  0.5683440000000  0.5695590000000 1.0
C      1  0.5332480000000  0.4706050000000  0.5922970000000 1.0
C      1  0.5333980000000  0.5321940000000  0.4046600000000 1.0
C      1  0.4672050000000  0.4692040000000  0.5929100000000 1.0
C      1  0.4660880000000  0.5325810000000  0.4074970000000 1.0
C      1  0.5169890000000  0.4018540000000  0.5438710000000 1.0
C      1  0.5152330000000  0.5950610000000  0.4574960000000 1.0
C      1  0.4854970000000  0.4075250000000  0.5528680000000 1.0
C      1  0.4849800000000  0.5931710000000  0.4485400000000 1.0
C      1  0.5144200000000  0.5089900000000  0.3982720000000 1.0
C      1  0.5150830000000  0.4938390000000  0.5972280000000 1.0
C      1  0.4846570000000  0.5093350000000  0.3994710000000 1.0
C      1  0.4856970000000  0.4931230000000  0.6000400000000 1.0
C      1  0.5012440000000  0.4792040000000  0.4939880000000 1.0
END
