TITL C-3201377-4638-524 0.805892244849437 125000 -289.590119509085 0 0 49 (C1) n - 1
REM
REM in /home/nfs/bkarasulu/CARBON/AIRSS/Generating-Clusters/LCBOP/Higher-Symm/SD-CG/FIRE-CG
REM
REM
REM
REM
REM
REM ./C.cell (b20cbc046b6831c77cfcea5457e17084)
REM AIRSS Version 0.9.1 bugfix July 2018 build 013d7b7c2542+ Fri, 06 Jul 2018 19:26:36 +0100
REM compiler GCC version 9.2.1 20190827 (Red Hat 9.2.1-1)
REM options -cpp -mtune=generic -march=x86-64 -g -O0 -fpre-include=/usr/include/finclude/math-vector-fortran.h
REM seed 71497191 1794199845 1879595694 1028842796 -1261844244 1912327608 1512497100 -220816521 1513096903 447441704 -592456817 -1181227889 -265367376 -724126525 891644410 388529552 248140 144511013 777684630 -493744075 338553926 -137678576 -1924609415 1146750197 1316190433 79848919 -2092395427 -533611208 2069429390 -32384826 -1145749458 1096040996 513434895
REM
CELL 1.54180   50.00000   50.00000   50.00000   90.00000   90.00000   90.00000
LATT -1
SFAC C  
C      1  0.4090010000000  0.4861580000000  0.4311200000000 1.0
C      1  0.4029040000000  0.5217830000000  0.5715780000000 1.0
C      1  0.6310250000000  0.4816500000000  0.5329400000000 1.0
C      1  0.6312000000000  0.5326290000000  0.4791140000000 1.0
C      1  0.3954290000000  0.5413240000000  0.5516230000000 1.0
C      1  0.4013450000000  0.4662980000000  0.4506790000000 1.0
C      1  0.3765300000000  0.5410710000000  0.5299200000000 1.0
C      1  0.3810520000000  0.4651420000000  0.4710490000000 1.0
C      1  0.6792260000000  0.5021090000000  0.5198290000000 1.0
C      1  0.6794730000000  0.5133360000000  0.4936570000000 1.0
C      1  0.4782040000000  0.4829580000000  0.5306860000000 1.0
C      1  0.4785930000000  0.5277920000000  0.4769870000000 1.0
C      1  0.5000440000000  0.4996310000000  0.5369460000000 1.0
C      1  0.5008160000000  0.5118280000000  0.4705370000000 1.0
C      1  0.4931310000000  0.5252980000000  0.5462430000000 1.0
C      1  0.4950050000000  0.4864920000000  0.4599390000000 1.0
C      1  0.3896400000000  0.5390580000000  0.5056290000000 1.0
C      1  0.3923470000000  0.4676480000000  0.4961920000000 1.0
C      1  0.6563160000000  0.5258900000000  0.4842130000000 1.0
C      1  0.6561130000000  0.4889930000000  0.5285940000000 1.0
C      1  0.4183270000000  0.5376100000000  0.5095700000000 1.0
C      1  0.4210890000000  0.4709460000000  0.4942200000000 1.0
C      1  0.5264100000000  0.4912140000000  0.5345320000000 1.0
C      1  0.5269170000000  0.5207580000000  0.4740190000000 1.0
C      1  0.7017320000000  0.5114940000000  0.4778590000000 1.0
C      1  0.7009600000000  0.5044850000000  0.5362730000000 1.0
C      1  0.4356660000000  0.4910780000000  0.5076840000000 1.0
C      1  0.4350970000000  0.5183720000000  0.4973910000000 1.0
C      1  0.5784220000000  0.5326770000000  0.4766160000000 1.0
C      1  0.5782120000000  0.4803740000000  0.5337720000000 1.0
C      1  0.4710770000000  0.5390150000000  0.5526790000000 1.0
C      1  0.4764230000000  0.4676910000000  0.4505310000000 1.0
C      1  0.4223190000000  0.5459490000000  0.5375910000000 1.0
C      1  0.4274710000000  0.4632790000000  0.4665010000000 1.0
C      1  0.6048470000000  0.5346270000000  0.4771140000000 1.0
C      1  0.6046780000000  0.4790290000000  0.5341270000000 1.0
C      1  0.5520670000000  0.4846930000000  0.5336270000000 1.0
C      1  0.5523860000000  0.5277950000000  0.4758650000000 1.0
C      1  0.4506880000000  0.5256570000000  0.4746190000000 1.0
C      1  0.4501200000000  0.4844810000000  0.5314350000000 1.0
C      1  0.4435250000000  0.5359970000000  0.5544260000000 1.0
C      1  0.4491190000000  0.4741700000000  0.4507540000000 1.0
C      1  0.4403520000000  0.5213890000000  0.4484750000000 1.0
C      1  0.4377660000000  0.4884150000000  0.5567810000000 1.0
C      1  0.4304040000000  0.5131600000000  0.5681680000000 1.0
C      1  0.4357050000000  0.4963840000000  0.4363210000000 1.0
C      1  0.4850160000000  0.4429100000000  0.4410320000000 1.0
C      1  0.5001040000000  0.3958100000000  0.4232320000000 1.0
C      1  0.4926400000000  0.4191770000000  0.4320570000000 1.0
END
