TITL C-3201378-2706-223 -34362.0157008963 125000 -751.446067720418 0 0 126 (C1) n - 1
REM
REM in /home/nfs/bkarasulu/CARBON/AIRSS/Generating-Clusters/LCBOP/Higher-Symm/SD-CG/FIRE-CG
REM
REM
REM
REM
REM
REM ./C.cell (b20cbc046b6831c77cfcea5457e17084)
REM AIRSS Version 0.9.1 bugfix July 2018 build 013d7b7c2542+ Fri, 06 Jul 2018 19:26:36 +0100
REM compiler GCC version 9.2.1 20190827 (Red Hat 9.2.1-1)
REM options -cpp -mtune=generic -march=x86-64 -g -O0 -fpre-include=/usr/include/finclude/math-vector-fortran.h
REM seed -1546224063 -1702846225 -749441097 1819900494 1303506852 521878862 -1992885918 -2014714344 1544296610 593092614 -1111594494 -98194464 -956820049 -885445540 -634835183 -923960005 641497853 1840415183 303440799 -667510086 1025539211 -2091694970 -1715570802 1232344522 -224190946 385437800 451158888 -1997447064 2077747188 1729794844 -1684281150 -1319317303 -428585985
REM
CELL 1.54180   50.00000   50.00000   50.00000   90.00000   90.00000   90.00000
LATT -1
SFAC C  
C      1  0.4585520000000  0.6279340000000  0.4071820000000 1.0
C      1  0.4547230000000  0.3687380000000  0.5750950000000 1.0
C      1  0.5371550000000  0.6140700000000  0.3926070000000 1.0
C      1  0.5364160000000  0.3794290000000  0.5821740000000 1.0
C      1  0.5334610000000  0.5307120000000  0.5382300000000 1.0
C      1  0.5308250000000  0.4709880000000  0.4541040000000 1.0
C      1  0.4731040000000  0.5227810000000  0.5464640000000 1.0
C      1  0.4738720000000  0.4694500000000  0.4544190000000 1.0
C      1  0.4733320000000  0.3936500000000  0.4952830000000 1.0
C      1  0.4695300000000  0.6076390000000  0.5161480000000 1.0
C      1  0.5321000000000  0.3949610000000  0.4942770000000 1.0
C      1  0.5279500000000  0.6099010000000  0.5101870000000 1.0
C      1  0.4443690000000  0.5459670000000  0.4168320000000 1.0
C      1  0.4467920000000  0.4542010000000  0.5842810000000 1.0
C      1  0.5449370000000  0.5417200000000  0.4103190000000 1.0
C      1  0.5369560000000  0.4573350000000  0.5824190000000 1.0
C      1  0.4941550000000  0.5144550000000  0.5658980000000 1.0
C      1  0.4879760000000  0.4816050000000  0.4325670000000 1.0
C      1  0.5191540000000  0.5135380000000  0.5542270000000 1.0
C      1  0.5161200000000  0.4813450000000  0.4323490000000 1.0
C      1  0.5515160000000  0.4819270000000  0.5856600000000 1.0
C      1  0.5617340000000  0.5185610000000  0.4134890000000 1.0
C      1  0.4448660000000  0.4822880000000  0.5877220000000 1.0
C      1  0.4376810000000  0.5183660000000  0.4133630000000 1.0
C      1  0.4781650000000  0.5327870000000  0.5182060000000 1.0
C      1  0.4769520000000  0.4682210000000  0.4825260000000 1.0
C      1  0.5278190000000  0.5364700000000  0.5118100000000 1.0
C      1  0.5251570000000  0.4691630000000  0.4811890000000 1.0
C      1  0.4179540000000  0.5415990000000  0.5148800000000 1.0
C      1  0.4178120000000  0.4580570000000  0.4906290000000 1.0
C      1  0.5891120000000  0.5421650000000  0.5175980000000 1.0
C      1  0.5868090000000  0.4615270000000  0.4893060000000 1.0
C      1  0.5145780000000  0.5606320000000  0.5055140000000 1.0
C      1  0.5160390000000  0.4440410000000  0.4915250000000 1.0
C      1  0.4866430000000  0.5590090000000  0.5105430000000 1.0
C      1  0.4878020000000  0.4437190000000  0.4928060000000 1.0
C      1  0.4763340000000  0.4178260000000  0.5688370000000 1.0
C      1  0.4799610000000  0.5800850000000  0.4204090000000 1.0
C      1  0.5045620000000  0.4215390000000  0.5706580000000 1.0
C      1  0.5074740000000  0.5747310000000  0.4146000000000 1.0
C      1  0.5168190000000  0.4465850000000  0.5654440000000 1.0
C      1  0.5211210000000  0.5512920000000  0.4229840000000 1.0
C      1  0.4594270000000  0.4398180000000  0.5633300000000 1.0
C      1  0.4628760000000  0.5610020000000  0.4326320000000 1.0
C      1  0.5278610000000  0.5842240000000  0.4983710000000 1.0
C      1  0.5320730000000  0.4226510000000  0.4999680000000 1.0
C      1  0.4697130000000  0.5810870000000  0.5064330000000 1.0
C      1  0.4732090000000  0.4212800000000  0.5010010000000 1.0
C      1  0.4792820000000  0.5650870000000  0.5683930000000 1.0
C      1  0.4750060000000  0.4276500000000  0.4356340000000 1.0
C      1  0.5307780000000  0.5666450000000  0.5665250000000 1.0
C      1  0.5264440000000  0.4276970000000  0.4343230000000 1.0
C      1  0.4558950000000  0.5097420000000  0.4536400000000 1.0
C      1  0.4576830000000  0.4978140000000  0.5455990000000 1.0
C      1  0.5590550000000  0.5313680000000  0.4586220000000 1.0
C      1  0.5547010000000  0.4778920000000  0.5388050000000 1.0
C      1  0.6333570000000  0.4293110000000  0.5330310000000 1.0
C      1  0.6372200000000  0.5708420000000  0.4728170000000 1.0
C      1  0.3800970000000  0.4250740000000  0.5415930000000 1.0
C      1  0.3857480000000  0.5741830000000  0.4597930000000 1.0
C      1  0.3904720000000  0.4448060000000  0.5280920000000 1.0
C      1  0.3943140000000  0.5548570000000  0.4750360000000 1.0
C      1  0.6190200000000  0.4485720000000  0.5228970000000 1.0
C      1  0.6216870000000  0.5529600000000  0.4836900000000 1.0
C      1  0.5146820000000  0.5383250000000  0.4474660000000 1.0
C      1  0.5121050000000  0.4609940000000  0.5413460000000 1.0
C      1  0.4669730000000  0.5534800000000  0.4599420000000 1.0
C      1  0.4594530000000  0.4519170000000  0.5377190000000 1.0
C      1  0.4659840000000  0.4953360000000  0.6015590000000 1.0
C      1  0.4551910000000  0.5030150000000  0.3971750000000 1.0
C      1  0.5399780000000  0.4992130000000  0.6047320000000 1.0
C      1  0.5522720000000  0.4959310000000  0.3997910000000 1.0
C      1  0.4562460000000  0.5465030000000  0.5567970000000 1.0
C      1  0.4549590000000  0.4486510000000  0.4470070000000 1.0
C      1  0.5514800000000  0.5483820000000  0.5525110000000 1.0
C      1  0.5498330000000  0.4518740000000  0.4469740000000 1.0
C      1  0.4252210000000  0.5363840000000  0.5420820000000 1.0
C      1  0.4256170000000  0.4629750000000  0.4632960000000 1.0
C      1  0.5782340000000  0.5361910000000  0.5438090000000 1.0
C      1  0.5783780000000  0.4677270000000  0.4624380000000 1.0
C      1  0.4715520000000  0.5157580000000  0.4967600000000 1.0
C      1  0.4693760000000  0.4874800000000  0.5012420000000 1.0
C      1  0.5287600000000  0.5164880000000  0.4922450000000 1.0
C      1  0.5277320000000  0.4891100000000  0.5004710000000 1.0
C      1  0.4831400000000  0.6274940000000  0.5012750000000 1.0
C      1  0.4898230000000  0.3771290000000  0.5112790000000 1.0
C      1  0.5101420000000  0.6290090000000  0.4992670000000 1.0
C      1  0.5169230000000  0.3779430000000  0.5110450000000 1.0
C      1  0.5995040000000  0.4922480000000  0.5298940000000 1.0
C      1  0.5994300000000  0.5104730000000  0.4780270000000 1.0
C      1  0.4046040000000  0.4909390000000  0.5296590000000 1.0
C      1  0.4059890000000  0.5080960000000  0.4768120000000 1.0
C      1  0.5188300000000  0.5919940000000  0.5566320000000 1.0
C      1  0.5162900000000  0.4035560000000  0.4476830000000 1.0
C      1  0.4887500000000  0.5914020000000  0.5588030000000 1.0
C      1  0.4861500000000  0.4032640000000  0.4482710000000 1.0
C      1  0.5298930000000  0.4772960000000  0.5265050000000 1.0
C      1  0.5324300000000  0.5275250000000  0.4664030000000 1.0
C      1  0.4620350000000  0.4778160000000  0.5269170000000 1.0
C      1  0.4662260000000  0.5276920000000  0.4716310000000 1.0
C      1  0.4062940000000  0.5340070000000  0.4896510000000 1.0
C      1  0.4046780000000  0.4655700000000  0.5154100000000 1.0
C      1  0.6029060000000  0.5345300000000  0.4935610000000 1.0
C      1  0.6012460000000  0.4682780000000  0.5135280000000 1.0
C      1  0.5299040000000  0.4833770000000  0.4077380000000 1.0
C      1  0.5141690000000  0.5059960000000  0.6088520000000 1.0
C      1  0.4750750000000  0.4884360000000  0.4081870000000 1.0
C      1  0.4905740000000  0.5064880000000  0.5932760000000 1.0
C      1  0.4651070000000  0.3924770000000  0.5723180000000 1.0
C      1  0.4692020000000  0.6051300000000  0.4139470000000 1.0
C      1  0.5208690000000  0.3997550000000  0.5772470000000 1.0
C      1  0.5223170000000  0.5944760000000  0.4012860000000 1.0
C      1  0.5722440000000  0.5145210000000  0.4397590000000 1.0
C      1  0.5654780000000  0.4902960000000  0.5621910000000 1.0
C      1  0.4328390000000  0.5047900000000  0.4380470000000 1.0
C      1  0.4363680000000  0.4959830000000  0.5645460000000 1.0
C      1  0.4157920000000  0.5090480000000  0.5497860000000 1.0
C      1  0.4162670000000  0.4903270000000  0.4559660000000 1.0
C      1  0.5850210000000  0.5080030000000  0.5504760000000 1.0
C      1  0.5864040000000  0.4955350000000  0.4561390000000 1.0
C      1  0.5315000000000  0.6092280000000  0.5382930000000 1.0
C      1  0.5317230000000  0.3894660000000  0.4664990000000 1.0
C      1  0.4720370000000  0.6087420000000  0.5443190000000 1.0
C      1  0.4720670000000  0.3883260000000  0.4675170000000 1.0
C      1  0.5005230000000  0.4372860000000  0.4217180000000 1.0
C      1  0.5058610000000  0.5547430000000  0.5792930000000 1.0
END
