TITL C-3201377-4638-1234 -7.69766691924492e-08 125000 -13.4084139594675 0 0 7 (C3v) n - 1
REM
REM in /home/nfs/bkarasulu/CARBON/AIRSS/Generating-Clusters/LCBOP/Higher-Symm/SD-CG/FIRE-CG
REM
REM
REM
REM
REM
REM ./C.cell (b20cbc046b6831c77cfcea5457e17084)
REM AIRSS Version 0.9.1 bugfix July 2018 build 013d7b7c2542+ Fri, 06 Jul 2018 19:26:36 +0100
REM compiler GCC version 9.2.1 20190827 (Red Hat 9.2.1-1)
REM options -cpp -mtune=generic -march=x86-64 -g -O0 -fpre-include=/usr/include/finclude/math-vector-fortran.h
REM seed -622258523 1483623411 2086741719 -53824238 -738964864 -120731317 -1486436708 -1425870 -1537187775 -1435397672 971729965 -1601560752 -1106095725 -311573110 -1546751223 -228551810 206625520 -452472556 469262542 200386620 -1721992667 1094986841 1933892397 1063177511 2120732612 1038540841 -560609791 852615388 -1215935635 -1089432728 655965603 109726289 152588275
REM
CELL 1.54180   50.00000   50.00000   50.00000   90.00000   90.00000   90.00000
LATT -1
SFAC C  
C      1  0.4991340000000  0.5341810000000  0.4997650000000 1.0
C      1  0.4991340000000  0.4662760000000  0.4997650000000 1.0
C      1  0.5334280000000  0.5002290000000  0.5001510000000 1.0
C      1  0.4995450000000  0.5002290000000  0.5340590000000 1.0
C      1  0.4657090000000  0.5002290000000  0.4992110000000 1.0
C      1  0.4985550000000  0.5002290000000  0.4663410000000 1.0
C      1  0.5007180000000  0.5002290000000  0.5013480000000 1.0
END
