TITL C-3201372-1405-988 -25794.1072095548 125000 -575.671533063761 0 0 93 (C1) n - 1
REM
REM in /home/nfs/bkarasulu/CARBON/AIRSS/Generating-Clusters/LCBOP/Higher-Symm/SD-CG/FIRE-CG
REM
REM
REM
REM
REM
REM ./C.cell (b20cbc046b6831c77cfcea5457e17084)
REM AIRSS Version 0.9.1 bugfix July 2018 build 013d7b7c2542+ Fri, 06 Jul 2018 19:26:36 +0100
REM compiler GCC version 9.2.1 20190827 (Red Hat 9.2.1-1)
REM options -cpp -mtune=generic -march=x86-64 -g -O0 -fpre-include=/usr/include/finclude/math-vector-fortran.h
REM seed 985906589 1094125678 1231573965 -22636416 -551480089 25662920 -1738467363 1600251897 -1096531868 -585138473 1174546812 74290204 1104578753 553136500 1188429910 -1995751067 -1402153492 -481367308 -481855816 1723221889 -1533961981 -2089442638 -1671053162 -1571646110 752268064 130670264 16454503 -1006578109 -512876070 -1950283782 602752497 -1175153361 1939956644
REM
CELL 1.54180   50.00000   50.00000   50.00000   90.00000   90.00000   90.00000
LATT -1
SFAC C  
C      1  0.5633510000000  0.5630650000000  0.4718210000000 1.0
C      1  0.4392960000000  0.4479140000000  0.4642010000000 1.0
C      1  0.4384520000000  0.5632290000000  0.4761250000000 1.0
C      1  0.5631980000000  0.4424720000000  0.4736680000000 1.0
C      1  0.4255360000000  0.4823210000000  0.5323680000000 1.0
C      1  0.5739950000000  0.5132520000000  0.5441520000000 1.0
C      1  0.5740800000000  0.4846830000000  0.5360170000000 1.0
C      1  0.4251980000000  0.5176660000000  0.5354420000000 1.0
C      1  0.4184840000000  0.4892250000000  0.4757890000000 1.0
C      1  0.5805110000000  0.5153060000000  0.4743020000000 1.0
C      1  0.5799470000000  0.4873060000000  0.4770390000000 1.0
C      1  0.4199220000000  0.5173390000000  0.4777220000000 1.0
C      1  0.5312010000000  0.4687240000000  0.4215350000000 1.0
C      1  0.4636840000000  0.5326280000000  0.4179040000000 1.0
C      1  0.4639260000000  0.4721440000000  0.4196750000000 1.0
C      1  0.5326880000000  0.5292200000000  0.4204480000000 1.0
C      1  0.4856640000000  0.5320310000000  0.4706060000000 1.0
C      1  0.5104800000000  0.4574800000000  0.4741700000000 1.0
C      1  0.5104320000000  0.5408590000000  0.4809150000000 1.0
C      1  0.4831530000000  0.4598970000000  0.4733110000000 1.0
C      1  0.5200810000000  0.5841920000000  0.4962630000000 1.0
C      1  0.4907200000000  0.4170310000000  0.4977830000000 1.0
C      1  0.4841540000000  0.5804850000000  0.4966660000000 1.0
C      1  0.5205340000000  0.4195580000000  0.4996230000000 1.0
C      1  0.4713610000000  0.5321160000000  0.5863400000000 1.0
C      1  0.5327820000000  0.4662970000000  0.5886800000000 1.0
C      1  0.5289400000000  0.5341530000000  0.5810850000000 1.0
C      1  0.4652100000000  0.4623240000000  0.5855920000000 1.0
C      1  0.4437300000000  0.4885920000000  0.4328830000000 1.0
C      1  0.5536780000000  0.5146920000000  0.4339520000000 1.0
C      1  0.5530020000000  0.4835960000000  0.4350250000000 1.0
C      1  0.4438660000000  0.5186940000000  0.4340220000000 1.0
C      1  0.4622720000000  0.4537620000000  0.5593790000000 1.0
C      1  0.5348160000000  0.5416940000000  0.5550550000000 1.0
C      1  0.5372760000000  0.4574370000000  0.5628540000000 1.0
C      1  0.4669960000000  0.5425990000000  0.5609370000000 1.0
C      1  0.5705540000000  0.4481040000000  0.5013730000000 1.0
C      1  0.4305080000000  0.5563060000000  0.5023340000000 1.0
C      1  0.4337340000000  0.4475460000000  0.4938150000000 1.0
C      1  0.5723040000000  0.5561630000000  0.4984110000000 1.0
C      1  0.5612990000000  0.5642250000000  0.5239140000000 1.0
C      1  0.4444090000000  0.4368710000000  0.5186550000000 1.0
C      1  0.4435830000000  0.5639960000000  0.5266500000000 1.0
C      1  0.5592880000000  0.4385980000000  0.5259340000000 1.0
C      1  0.5162850000000  0.4538350000000  0.5396670000000 1.0
C      1  0.4873040000000  0.5483060000000  0.5370180000000 1.0
C      1  0.4848570000000  0.4515040000000  0.5377670000000 1.0
C      1  0.5168620000000  0.5512200000000  0.5324770000000 1.0
C      1  0.4300030000000  0.5261560000000  0.5049360000000 1.0
C      1  0.5695930000000  0.4784200000000  0.5052160000000 1.0
C      1  0.5703950000000  0.5275740000000  0.4977860000000 1.0
C      1  0.4302600000000  0.4775120000000  0.5011460000000 1.0
C      1  0.5369350000000  0.5759550000000  0.4717670000000 1.0
C      1  0.4774790000000  0.4145910000000  0.4716580000000 1.0
C      1  0.4658090000000  0.5736960000000  0.4732410000000 1.0
C      1  0.5397220000000  0.4253760000000  0.4712430000000 1.0
C      1  0.5140210000000  0.5475870000000  0.4314150000000 1.0
C      1  0.4802300000000  0.4495080000000  0.4290540000000 1.0
C      1  0.4849060000000  0.5488840000000  0.4281110000000 1.0
C      1  0.5108390000000  0.4490680000000  0.4295790000000 1.0
C      1  0.5628640000000  0.4590800000000  0.5478970000000 1.0
C      1  0.4402030000000  0.5418090000000  0.5479920000000 1.0
C      1  0.4378190000000  0.4564810000000  0.5424830000000 1.0
C      1  0.5620900000000  0.5406910000000  0.5442730000000 1.0
C      1  0.4598100000000  0.5177580000000  0.5053830000000 1.0
C      1  0.5395980000000  0.4883710000000  0.5035520000000 1.0
C      1  0.5443780000000  0.5177860000000  0.5047450000000 1.0
C      1  0.4590600000000  0.4880840000000  0.5003130000000 1.0
C      1  0.4313110000000  0.5335820000000  0.4569310000000 1.0
C      1  0.5679050000000  0.4686620000000  0.4570040000000 1.0
C      1  0.5687210000000  0.5311920000000  0.4534710000000 1.0
C      1  0.4290340000000  0.4739530000000  0.4534650000000 1.0
C      1  0.4698460000000  0.5103910000000  0.6013060000000 1.0
C      1  0.5303960000000  0.4886450000000  0.6030250000000 1.0
C      1  0.5289770000000  0.5150690000000  0.5996130000000 1.0
C      1  0.4674300000000  0.4837760000000  0.6011820000000 1.0
C      1  0.5329650000000  0.5759610000000  0.5217910000000 1.0
C      1  0.4736990000000  0.4292590000000  0.5188160000000 1.0
C      1  0.4725660000000  0.5710310000000  0.5220900000000 1.0
C      1  0.5308840000000  0.4318620000000  0.5230430000000 1.0
C      1  0.5257880000000  0.4806280000000  0.4786560000000 1.0
C      1  0.4876130000000  0.5056620000000  0.4635440000000 1.0
C      1  0.4727090000000  0.4851980000000  0.4751800000000 1.0
C      1  0.5149550000000  0.4990250000000  0.4603220000000 1.0
C      1  0.5207070000000  0.4827010000000  0.5264370000000 1.0
C      1  0.4825730000000  0.5222930000000  0.5221740000000 1.0
C      1  0.4772310000000  0.4773830000000  0.5221720000000 1.0
C      1  0.5218320000000  0.5341940000000  0.5057290000000 1.0
C      1  0.4765480000000  0.5544900000000  0.4553350000000 1.0
C      1  0.5205310000000  0.4381260000000  0.4550720000000 1.0
C      1  0.5213490000000  0.5563130000000  0.4582270000000 1.0
C      1  0.4684450000000  0.4397290000000  0.4568120000000 1.0
C      1  0.4967230000000  0.4981300000000  0.5277930000000 1.0
END
