TITL C-3201378-2706-1804 2.32972028127642 125000 -67.4368347580647 0 0 15 (Cs) n - 1
REM
REM in /home/nfs/bkarasulu/CARBON/AIRSS/Generating-Clusters/LCBOP/Higher-Symm/SD-CG/FIRE-CG
REM
REM
REM
REM
REM
REM ./C.cell (b20cbc046b6831c77cfcea5457e17084)
REM AIRSS Version 0.9.1 bugfix July 2018 build 013d7b7c2542+ Fri, 06 Jul 2018 19:26:36 +0100
REM compiler GCC version 9.2.1 20190827 (Red Hat 9.2.1-1)
REM options -cpp -mtune=generic -march=x86-64 -g -O0 -fpre-include=/usr/include/finclude/math-vector-fortran.h
REM seed 1810285329 215671127 -1539034241 995607830 876501224 -165760789 -554697615 -1729653533 2100452475 -733227255 -1068698938 -1406243931 1924474763 1369971045 -1272824529 1518877173 -1259603345 1779237808 84706609 1789425571 1050605034 29984811 402482170 69878431 -1224500825 435711405 -538164520 -1401979702 1689642389 -920204543 1835482662 1788649654 742559391
REM
CELL 1.54180   50.00000   50.00000   50.00000   90.00000   90.00000   90.00000
LATT -1
SFAC C  
C      1  0.4391250000000  0.5076030000000  0.5074690000000 1.0
C      1  0.4760710000000  0.5329980000000  0.4961750000000 1.0
C      1  0.4661860000000  0.4937300000000  0.4701410000000 1.0
C      1  0.4663490000000  0.4679800000000  0.5101130000000 1.0
C      1  0.4762290000000  0.5079570000000  0.5350480000000 1.0
C      1  0.4802950000000  0.5130310000000  0.5595730000000 1.0
C      1  0.4144150000000  0.5123990000000  0.5106590000000 1.0
C      1  0.4800140000000  0.5574430000000  0.4906330000000 1.0
C      1  0.4614960000000  0.4894130000000  0.4449080000000 1.0
C      1  0.4617880000000  0.4432030000000  0.5166420000000 1.0
C      1  0.4723040000000  0.4988780000000  0.5017130000000 1.0
C      1  0.5564350000000  0.4862790000000  0.4932540000000 1.0
C      1  0.5820970000000  0.4824620000000  0.4906900000000 1.0
C      1  0.5303470000000  0.4901650000000  0.4958630000000 1.0
C      1  0.5043220000000  0.4941040000000  0.4985070000000 1.0
END
