TITL C-3201373-1215-1047 -1.01315294593427e-07 125000 -187.916661366574 0 0 32 (C2h) n - 1
REM
REM in /home/nfs/bkarasulu/CARBON/AIRSS/Generating-Clusters/LCBOP/Higher-Symm/SD-CG/FIRE-CG
REM
REM
REM
REM
REM
REM ./C.cell (b20cbc046b6831c77cfcea5457e17084)
REM AIRSS Version 0.9.1 bugfix July 2018 build 013d7b7c2542+ Fri, 06 Jul 2018 19:26:36 +0100
REM compiler GCC version 9.2.1 20190827 (Red Hat 9.2.1-1)
REM options -cpp -mtune=generic -march=x86-64 -g -O0 -fpre-include=/usr/include/finclude/math-vector-fortran.h
REM seed 897954251 2020587975 -2115428549 -843287253 -1318268862 -1668771413 -340490770 -958879369 -556469897 -1355997444 -1507567706 -1709503921 -1439878821 2090583205 -934557614 1256857121 14449988 -1351442632 1491266974 -1295198777 -785846044 900345880 -99579734 -1047977524 621664041 1034997530 626103517 1992534654 1161739232 -936235675 2029504629 1824212127 -127768130
REM
CELL 1.54180   50.00000   50.00000   50.00000   90.00000   90.00000   90.00000
LATT -1
SFAC C  
C      1  0.4670690000000  0.4696370000000  0.5140600000000 1.0
C      1  0.5329310000000  0.5303630000000  0.5140600000000 1.0
C      1  0.4670690000000  0.4696370000000  0.4859400000000 1.0
C      1  0.5329310000000  0.5303630000000  0.4859400000000 1.0
C      1  0.5099390000000  0.5099020000000  0.4488120000000 1.0
C      1  0.4900600000000  0.4900970000000  0.4488120000000 1.0
C      1  0.5099400000000  0.5099030000000  0.5511880000000 1.0
C      1  0.4900610000000  0.4900980000000  0.5511880000000 1.0
C      1  0.5084930000000  0.5316860000000  0.4687390000000 1.0
C      1  0.4915070000000  0.4683130000000  0.4687400000000 1.0
C      1  0.5084930000000  0.5316870000000  0.5312600000000 1.0
C      1  0.4915070000000  0.4683140000000  0.5312610000000 1.0
C      1  0.4878990000000  0.5503550000000  0.4737690000000 1.0
C      1  0.5121010000000  0.4496440000000  0.4737690000000 1.0
C      1  0.4878990000000  0.5503560000000  0.5262310000000 1.0
C      1  0.5121010000000  0.4496450000000  0.5262310000000 1.0
C      1  0.4960510000000  0.5750960000000  0.5137800000000 1.0
C      1  0.5039490000000  0.4249050000000  0.5137800000000 1.0
C      1  0.4960510000000  0.5750950000000  0.4862200000000 1.0
C      1  0.5039490000000  0.4249040000000  0.4862200000000 1.0
C      1  0.5385250000000  0.5050760000000  0.4469930000000 1.0
C      1  0.4614740000000  0.4949240000000  0.4469940000000 1.0
C      1  0.5385260000000  0.5050760000000  0.5530060000000 1.0
C      1  0.4614750000000  0.4949240000000  0.5530070000000 1.0
C      1  0.5358730000000  0.4600190000000  0.5137430000000 1.0
C      1  0.4641270000000  0.5399810000000  0.5137430000000 1.0
C      1  0.5358730000000  0.4600190000000  0.4862570000000 1.0
C      1  0.4641270000000  0.5399810000000  0.4862570000000 1.0
C      1  0.5517160000000  0.5165470000000  0.4685470000000 1.0
C      1  0.4482840000000  0.4834530000000  0.4685480000000 1.0
C      1  0.5517160000000  0.5165470000000  0.5314520000000 1.0
C      1  0.4482840000000  0.4834530000000  0.5314530000000 1.0
END
