TITL C-3201373-1215-1989 -1.07018202892023e-07 125000 -199.827602717682 0 0 35 (C1) n - 1
REM
REM in /home/nfs/bkarasulu/CARBON/AIRSS/Generating-Clusters/LCBOP/Higher-Symm/SD-CG/FIRE-CG
REM
REM
REM
REM
REM
REM ./C.cell (b20cbc046b6831c77cfcea5457e17084)
REM AIRSS Version 0.9.1 bugfix July 2018 build 013d7b7c2542+ Fri, 06 Jul 2018 19:26:36 +0100
REM compiler GCC version 9.2.1 20190827 (Red Hat 9.2.1-1)
REM options -cpp -mtune=generic -march=x86-64 -g -O0 -fpre-include=/usr/include/finclude/math-vector-fortran.h
REM seed 892420758 132492684 -996414872 -2022345492 -1540261581 1366853314 1359452903 570723679 221875912 639848417 -1386102963 -1448457204 260205343 2069769852 -1176681884 -159679375 -127747507 -1490099009 -747497249 1964148721 633025935 -309823548 -993638623 -218363827 -1393598192 -1325917305 -641613496 -1752822825 648673687 1339285042 -1253792331 -1569599189 -485184875
REM
CELL 1.54180   50.00000   50.00000   50.00000   90.00000   90.00000   90.00000
LATT -1
SFAC C  
C      1  0.5165090000000  0.5143460000000  0.4512560000000 1.0
C      1  0.5497930000000  0.5083970000000  0.4977680000000 1.0
C      1  0.5104860000000  0.5087610000000  0.5497320000000 1.0
C      1  0.4579680000000  0.5138330000000  0.5287190000000 1.0
C      1  0.4611920000000  0.5108090000000  0.4702280000000 1.0
C      1  0.4772800000000  0.4955150000000  0.5163550000000 1.0
C      1  0.4800820000000  0.4896550000000  0.4849190000000 1.0
C      1  0.5099090000000  0.4953220000000  0.4726260000000 1.0
C      1  0.5319690000000  0.4870670000000  0.4898050000000 1.0
C      1  0.5000010000000  0.4874460000000  0.5329720000000 1.0
C      1  0.5459410000000  0.5323230000000  0.4814870000000 1.0
C      1  0.5289370000000  0.5263020000000  0.5363180000000 1.0
C      1  0.4726200000000  0.5349370000000  0.5422010000000 1.0
C      1  0.4530370000000  0.5327520000000  0.4877370000000 1.0
C      1  0.4962670000000  0.5345420000000  0.4504730000000 1.0
C      1  0.4801250000000  0.4575750000000  0.4850400000000 1.0
C      1  0.5084470000000  0.4476430000000  0.4771700000000 1.0
C      1  0.5272290000000  0.4589530000000  0.5001920000000 1.0
C      1  0.5085060000000  0.4592070000000  0.5256890000000 1.0
C      1  0.4809160000000  0.4478560000000  0.5145650000000 1.0
C      1  0.4389100000000  0.5238310000000  0.5105150000000 1.0
C      1  0.4710570000000  0.5222060000000  0.4461100000000 1.0
C      1  0.5426080000000  0.5253000000000  0.4540550000000 1.0
C      1  0.5519410000000  0.5143230000000  0.5252080000000 1.0
C      1  0.4897610000000  0.5240910000000  0.5621800000000 1.0
C      1  0.5159740000000  0.5468450000000  0.5197600000000 1.0
C      1  0.4865400000000  0.5506740000000  0.5217170000000 1.0
C      1  0.4755660000000  0.5508710000000  0.4937460000000 1.0
C      1  0.4984450000000  0.5511420000000  0.4747960000000 1.0
C      1  0.5238100000000  0.5490030000000  0.4913640000000 1.0
C      1  0.4627640000000  0.4330880000000  0.5279550000000 1.0
C      1  0.4578930000000  0.4460780000000  0.4687380000000 1.0
C      1  0.5158100000000  0.4327220000000  0.4559490000000 1.0
C      1  0.5522920000000  0.4430410000000  0.5039290000000 1.0
C      1  0.5194130000000  0.4435440000000  0.5487250000000 1.0
END
