TITL C-3201372-1405-1364 55.1589402028518 125000 -1189.33291392171 0 0 193 (C1) n - 1
REM
REM in /home/nfs/bkarasulu/CARBON/AIRSS/Generating-Clusters/LCBOP/Higher-Symm/SD-CG/FIRE-CG
REM
REM
REM
REM
REM
REM ./C.cell (b20cbc046b6831c77cfcea5457e17084)
REM AIRSS Version 0.9.1 bugfix July 2018 build 013d7b7c2542+ Fri, 06 Jul 2018 19:26:36 +0100
REM compiler GCC version 9.2.1 20190827 (Red Hat 9.2.1-1)
REM options -cpp -mtune=generic -march=x86-64 -g -O0 -fpre-include=/usr/include/finclude/math-vector-fortran.h
REM seed 724937417 -254837161 1770175646 801866551 1310994545 -842908666 -1382589298 -1481014315 46907954 -2065257530 1456189943 1502068464 -646997528 -1451866650 -1119236600 -655221424 -2001773632 1627226152 -44857431 -1514738589 -1010487019 1330965211 -1524664661 487210306 -1979349877 -1171331953 -456485390 -565856306 603498279 1532319697 -845759898 232104145 -500874508
REM
CELL 1.54180   50.00000   50.00000   50.00000   90.00000   90.00000   90.00000
LATT -1
SFAC C  
C      1  0.5828300000000  0.5883100000000  0.4932630000000 1.0
C      1  0.4859670000000  0.5794600000000  0.5187420000000 1.0
C      1  0.4438200000000  0.5498570000000  0.4743340000000 1.0
C      1  0.4335720000000  0.4027230000000  0.5836480000000 1.0
C      1  0.5257860000000  0.4426720000000  0.5379140000000 1.0
C      1  0.4876410000000  0.4883890000000  0.5463030000000 1.0
C      1  0.4663730000000  0.5949510000000  0.5312380000000 1.0
C      1  0.5439230000000  0.4415830000000  0.5151590000000 1.0
C      1  0.4506740000000  0.3921730000000  0.4669720000000 1.0
C      1  0.4203770000000  0.4405140000000  0.5020450000000 1.0
C      1  0.5605360000000  0.5182310000000  0.4607680000000 1.0
C      1  0.6032780000000  0.4317520000000  0.4805050000000 1.0
C      1  0.5209870000000  0.4809410000000  0.4954260000000 1.0
C      1  0.4813520000000  0.4525760000000  0.4515790000000 1.0
C      1  0.6003060000000  0.4854260000000  0.5301910000000 1.0
C      1  0.5298980000000  0.4681440000000  0.4287250000000 1.0
C      1  0.5617390000000  0.4656630000000  0.5468510000000 1.0
C      1  0.5138700000000  0.5386820000000  0.4738510000000 1.0
C      1  0.5206550000000  0.4225970000000  0.5881770000000 1.0
C      1  0.5531890000000  0.5542470000000  0.4909340000000 1.0
C      1  0.4963260000000  0.3782560000000  0.4800560000000 1.0
C      1  0.5633460000000  0.4530090000000  0.3959820000000 1.0
C      1  0.4592990000000  0.4696610000000  0.6131330000000 1.0
C      1  0.4533410000000  0.4903670000000  0.6292560000000 1.0
C      1  0.4437790000000  0.4205900000000  0.4606740000000 1.0
C      1  0.5411850000000  0.4998310000000  0.5010700000000 1.0
C      1  0.4578880000000  0.3953860000000  0.5755380000000 1.0
C      1  0.5752660000000  0.4770270000000  0.4804010000000 1.0
C      1  0.5314840000000  0.5165330000000  0.5447190000000 1.0
C      1  0.5100530000000  0.4354770000000  0.4819820000000 1.0
C      1  0.5209240000000  0.4215540000000  0.4090500000000 1.0
C      1  0.5112550000000  0.4137860000000  0.4356430000000 1.0
C      1  0.4059080000000  0.5632700000000  0.4488200000000 1.0
C      1  0.4815800000000  0.5608710000000  0.6208150000000 1.0
C      1  0.5587600000000  0.5059490000000  0.3959840000000 1.0
C      1  0.4994990000000  0.5573950000000  0.5320720000000 1.0
C      1  0.4192690000000  0.4903400000000  0.4240480000000 1.0
C      1  0.5643090000000  0.4029030000000  0.4825200000000 1.0
C      1  0.4766530000000  0.5325750000000  0.6260410000000 1.0
C      1  0.4889660000000  0.5326360000000  0.5255500000000 1.0
C      1  0.5114620000000  0.4658120000000  0.4042970000000 1.0
C      1  0.5169660000000  0.5819510000000  0.4099600000000 1.0
C      1  0.4355640000000  0.5210980000000  0.5981650000000 1.0
C      1  0.5427310000000  0.5380370000000  0.4696170000000 1.0
C      1  0.5321500000000  0.4530090000000  0.4911330000000 1.0
C      1  0.5491700000000  0.4523010000000  0.4447400000000 1.0
C      1  0.6021370000000  0.4879670000000  0.4760550000000 1.0
C      1  0.5727780000000  0.4797890000000  0.4039470000000 1.0
C      1  0.5712540000000  0.4671080000000  0.5899880000000 1.0
C      1  0.5671850000000  0.5279750000000  0.4147140000000 1.0
C      1  0.5829600000000  0.4195690000000  0.4975080000000 1.0
C      1  0.4771740000000  0.5004300000000  0.4367860000000 1.0
C      1  0.5094570000000  0.5669980000000  0.6141060000000 1.0
C      1  0.4411200000000  0.5344720000000  0.4500560000000 1.0
C      1  0.4472800000000  0.4905160000000  0.4954720000000 1.0
C      1  0.4776970000000  0.3861160000000  0.4586540000000 1.0
C      1  0.5261040000000  0.6063510000000  0.5440840000000 1.0
C      1  0.4323820000000  0.4645290000000  0.4347640000000 1.0
C      1  0.4387480000000  0.5072350000000  0.4112710000000 1.0
C      1  0.5693980000000  0.4378570000000  0.5794890000000 1.0
C      1  0.4124830000000  0.4190080000000  0.5846670000000 1.0
C      1  0.4358980000000  0.5758510000000  0.5577820000000 1.0
C      1  0.5446090000000  0.5674570000000  0.5571710000000 1.0
C      1  0.5073460000000  0.5055940000000  0.5830140000000 1.0
C      1  0.5840690000000  0.5533830000000  0.5295920000000 1.0
C      1  0.6084310000000  0.5128400000000  0.4924360000000 1.0
C      1  0.5100540000000  0.4925340000000  0.6292470000000 1.0
C      1  0.5500190000000  0.4184530000000  0.5893210000000 1.0
C      1  0.4232390000000  0.5936200000000  0.5091250000000 1.0
C      1  0.4029520000000  0.5094510000000  0.4407310000000 1.0
C      1  0.5045240000000  0.5098520000000  0.4335740000000 1.0
C      1  0.4296770000000  0.5314400000000  0.5215490000000 1.0
C      1  0.5234500000000  0.6282730000000  0.4708870000000 1.0
C      1  0.3832580000000  0.5447510000000  0.5295520000000 1.0
C      1  0.5575890000000  0.5545540000000  0.4219810000000 1.0
C      1  0.4272840000000  0.5830620000000  0.4414870000000 1.0
C      1  0.5205850000000  0.5325630000000  0.3732600000000 1.0
C      1  0.4637430000000  0.4916330000000  0.3673980000000 1.0
C      1  0.4676550000000  0.5794220000000  0.4018640000000 1.0
C      1  0.5331940000000  0.5077180000000  0.3830180000000 1.0
C      1  0.4754390000000  0.5303940000000  0.5016720000000 1.0
C      1  0.4124550000000  0.4569460000000  0.4576280000000 1.0
C      1  0.5890250000000  0.4866360000000  0.4294660000000 1.0
C      1  0.5515460000000  0.5055500000000  0.5261400000000 1.0
C      1  0.4795230000000  0.3973650000000  0.5577480000000 1.0
C      1  0.4962980000000  0.3849050000000  0.5094090000000 1.0
C      1  0.5762560000000  0.5128840000000  0.4377050000000 1.0
C      1  0.6079590000000  0.5111860000000  0.5216860000000 1.0
C      1  0.4829300000000  0.4307800000000  0.4934200000000 1.0
C      1  0.5784200000000  0.5883020000000  0.4633610000000 1.0
C      1  0.5506610000000  0.5411140000000  0.6290400000000 1.0
C      1  0.4856450000000  0.5039210000000  0.3780970000000 1.0
C      1  0.5065170000000  0.4366870000000  0.4532490000000 1.0
C      1  0.3950420000000  0.5290330000000  0.4854180000000 1.0
C      1  0.5026590000000  0.5097870000000  0.5355080000000 1.0
C      1  0.5586090000000  0.4269480000000  0.4348200000000 1.0
C      1  0.4533800000000  0.5171690000000  0.6200830000000 1.0
C      1  0.5298410000000  0.5902270000000  0.5679590000000 1.0
C      1  0.5335660000000  0.4966510000000  0.5696380000000 1.0
C      1  0.4077980000000  0.4924390000000  0.5698540000000 1.0
C      1  0.5224460000000  0.3962680000000  0.5180830000000 1.0
C      1  0.3968690000000  0.5593960000000  0.4769590000000 1.0
C      1  0.3993850000000  0.5785690000000  0.5004740000000 1.0
C      1  0.5040020000000  0.5206040000000  0.6292600000000 1.0
C      1  0.3997640000000  0.4421180000000  0.5807640000000 1.0
C      1  0.5360570000000  0.6016420000000  0.5137810000000 1.0
C      1  0.5056150000000  0.4095140000000  0.5652880000000 1.0
C      1  0.4380730000000  0.5911690000000  0.5341090000000 1.0
C      1  0.3982670000000  0.4680200000000  0.5746270000000 1.0
C      1  0.4456120000000  0.4319990000000  0.4281060000000 1.0
C      1  0.6180440000000  0.4654890000000  0.5349730000000 1.0
C      1  0.5333710000000  0.5746910000000  0.4978540000000 1.0
C      1  0.4670120000000  0.4694100000000  0.5861830000000 1.0
C      1  0.4880550000000  0.6277780000000  0.5023450000000 1.0
C      1  0.5944360000000  0.5293660000000  0.5413400000000 1.0
C      1  0.5497240000000  0.4288510000000  0.4069570000000 1.0
C      1  0.4731050000000  0.4724950000000  0.5289100000000 1.0
C      1  0.5186170000000  0.5852980000000  0.5939320000000 1.0
C      1  0.4523610000000  0.4544320000000  0.5673200000000 1.0
C      1  0.4911850000000  0.5332710000000  0.3760500000000 1.0
C      1  0.4877020000000  0.5805360000000  0.4892700000000 1.0
C      1  0.4676980000000  0.4741990000000  0.4409420000000 1.0
C      1  0.4015470000000  0.5290160000000  0.5142290000000 1.0
C      1  0.4940670000000  0.5196850000000  0.4823540000000 1.0
C      1  0.5098880000000  0.4891740000000  0.3870570000000 1.0
C      1  0.4853670000000  0.5484060000000  0.4273510000000 1.0
C      1  0.4761560000000  0.5467490000000  0.5734100000000 1.0
C      1  0.5675720000000  0.5748030000000  0.5402870000000 1.0
C      1  0.5602850000000  0.5002700000000  0.4816710000000 1.0
C      1  0.4907730000000  0.5930400000000  0.4149200000000 1.0
C      1  0.4957940000000  0.4914110000000  0.4889350000000 1.0
C      1  0.5233240000000  0.5426660000000  0.6243490000000 1.0
C      1  0.5165980000000  0.6223610000000  0.4977220000000 1.0
C      1  0.5721730000000  0.4868790000000  0.5336090000000 1.0
C      1  0.4407670000000  0.3789210000000  0.4901680000000 1.0
C      1  0.4528150000000  0.4552840000000  0.5394050000000 1.0
C      1  0.4616540000000  0.6237170000000  0.4949860000000 1.0
C      1  0.5593430000000  0.3949990000000  0.6003440000000 1.0
C      1  0.4257670000000  0.5137120000000  0.5720640000000 1.0
C      1  0.4132080000000  0.5365900000000  0.4398410000000 1.0
C      1  0.4752140000000  0.5567060000000  0.3836470000000 1.0
C      1  0.5026670000000  0.5351000000000  0.5768580000000 1.0
C      1  0.3980890000000  0.4759350000000  0.4750350000000 1.0
C      1  0.6107760000000  0.4469030000000  0.4585610000000 1.0
C      1  0.5101660000000  0.5363960000000  0.4240190000000 1.0
C      1  0.5118850000000  0.4437890000000  0.6057450000000 1.0
C      1  0.5737860000000  0.4397700000000  0.5500540000000 1.0
C      1  0.4361480000000  0.5294810000000  0.5503080000000 1.0
C      1  0.6012690000000  0.5394000000000  0.4844650000000 1.0
C      1  0.5106790000000  0.5656130000000  0.4840170000000 1.0
C      1  0.4860790000000  0.4874300000000  0.5750200000000 1.0
C      1  0.4494030000000  0.3774270000000  0.5161000000000 1.0
C      1  0.5827580000000  0.5163130000000  0.5667280000000 1.0
C      1  0.4780500000000  0.5613520000000  0.4484560000000 1.0
C      1  0.5075500000000  0.6238830000000  0.4496050000000 1.0
C      1  0.4859250000000  0.4003480000000  0.4345210000000 1.0
C      1  0.3817200000000  0.5709630000000  0.5219240000000 1.0
C      1  0.4068360000000  0.4670400000000  0.5019960000000 1.0
C      1  0.5247050000000  0.3754670000000  0.4754790000000 1.0
C      1  0.3947730000000  0.5039340000000  0.4680800000000 1.0
C      1  0.4419510000000  0.5830110000000  0.4159360000000 1.0
C      1  0.5412070000000  0.3906170000000  0.4945150000000 1.0
C      1  0.5294580000000  0.5572610000000  0.4176270000000 1.0
C      1  0.5247010000000  0.5450210000000  0.5552450000000 1.0
C      1  0.4661890000000  0.4381250000000  0.4712580000000 1.0
C      1  0.4247600000000  0.4871710000000  0.5099190000000 1.0
C      1  0.4981910000000  0.4396890000000  0.4014610000000 1.0
C      1  0.4428650000000  0.4360830000000  0.5205120000000 1.0
C      1  0.5708430000000  0.4301490000000  0.5216720000000 1.0
C      1  0.5553760000000  0.4576920000000  0.4718050000000 1.0
C      1  0.4449940000000  0.5857190000000  0.4663530000000 1.0
C      1  0.5821440000000  0.5572780000000  0.4989910000000 1.0
C      1  0.4727290000000  0.3937360000000  0.5268790000000 1.0
C      1  0.4695340000000  0.4240900000000  0.4158730000000 1.0
C      1  0.4506280000000  0.5518070000000  0.5614100000000 1.0
C      1  0.4398750000000  0.6049490000000  0.4885980000000 1.0
C      1  0.4561430000000  0.5184780000000  0.4314270000000 1.0
C      1  0.4726520000000  0.4814110000000  0.5020520000000 1.0
C      1  0.5339690000000  0.4660550000000  0.5534340000000 1.0
C      1  0.5249710000000  0.4930300000000  0.4404770000000 1.0
C      1  0.4878630000000  0.6053650000000  0.4415200000000 1.0
C      1  0.4668360000000  0.4208220000000  0.5144450000000 1.0
C      1  0.5641450000000  0.4958010000000  0.5805900000000 1.0
C      1  0.4743420000000  0.5870680000000  0.4623590000000 1.0
C      1  0.4485740000000  0.5384610000000  0.4995590000000 1.0
C      1  0.6072740000000  0.4748240000000  0.4499590000000 1.0
C      1  0.5125270000000  0.4668310000000  0.6203600000000 1.0
C      1  0.5193730000000  0.4149810000000  0.5407110000000 1.0
C      1  0.5645510000000  0.4071360000000  0.4539850000000 1.0
C      1  0.4205890000000  0.4336430000000  0.4732770000000 1.0
C      1  0.5708110000000  0.5738120000000  0.4406100000000 1.0
C      1  0.5763720000000  0.5402570000000  0.6331920000000 1.0
C      1  0.5673780000000  0.5977710000000  0.5188010000000 1.0
END
