TITL C-3201379-3821-1887 1.1389142658935e-06 125000 -237.066269691099 0 0 43 (C3) n - 1
REM
REM in /home/nfs/bkarasulu/CARBON/AIRSS/Generating-Clusters/LCBOP/Higher-Symm/SD-CG/FIRE-CG
REM
REM
REM
REM
REM
REM ./C.cell (b20cbc046b6831c77cfcea5457e17084)
REM AIRSS Version 0.9.1 bugfix July 2018 build 013d7b7c2542+ Fri, 06 Jul 2018 19:26:36 +0100
REM compiler GCC version 9.2.1 20190827 (Red Hat 9.2.1-1)
REM options -cpp -mtune=generic -march=x86-64 -g -O0 -fpre-include=/usr/include/finclude/math-vector-fortran.h
REM seed 1380000446 -401299348 2068607813 -1073585088 -1723121259 834000337 1351164280 -747740379 -290701105 1390075633 -568207469 -2049200757 1835146954 1574780497 -1722814672 299311681 -1651897326 866705844 1310473629 -1201923878 -892720868 -838725623 -1804099800 2060823040 2140443354 -115209545 1140946709 1897252676 2105911065 -1588657514 -1644322139 -1471617268 864250497
REM
CELL 1.54180   50.00000   50.00000   50.00000   90.00000   90.00000   90.00000
LATT -1
SFAC C  
C      1  0.4750420000000  0.4311090000000  0.4471490000000 1.0
C      1  0.4491920000000  0.5544690000000  0.4471460000000 1.0
C      1  0.5689500000000  0.5151760000000  0.4471460000000 1.0
C      1  0.5354850000000  0.4704320000000  0.5426630000000 1.0
C      1  0.4530240000000  0.4824670000000  0.5426630000000 1.0
C      1  0.5046770000000  0.5478630000000  0.5426610000000 1.0
C      1  0.5050070000000  0.4311120000000  0.4851450000000 1.0
C      1  0.4342120000000  0.5285190000000  0.4851430000000 1.0
C      1  0.5539670000000  0.5411260000000  0.4851420000000 1.0
C      1  0.4773540000000  0.5534850000000  0.5389620000000 1.0
C      1  0.5540160000000  0.4912840000000  0.5389640000000 1.0
C      1  0.4618170000000  0.4559930000000  0.5389650000000 1.0
C      1  0.4083870000000  0.5211340000000  0.4800200000000 1.0
C      1  0.5604830000000  0.5671830000000  0.4800180000000 1.0
C      1  0.5243150000000  0.4124400000000  0.4800220000000 1.0
C      1  0.4963180000000  0.4721100000000  0.4602650000000 1.0
C      1  0.4740620000000  0.5155440000000  0.4602640000000 1.0
C      1  0.5228050000000  0.5131010000000  0.4602640000000 1.0
C      1  0.4978760000000  0.4375700000000  0.5113970000000 1.0
C      1  0.4433700000000  0.5314670000000  0.5113940000000 1.0
C      1  0.5519400000000  0.5317220000000  0.5113940000000 1.0
C      1  0.5164840000000  0.5222090000000  0.5436500000000 1.0
C      1  0.5073650000000  0.4730340000000  0.5436520000000 1.0
C      1  0.4693370000000  0.5055190000000  0.5436510000000 1.0
C      1  0.4919600000000  0.4447140000000  0.4638180000000 1.0
C      1  0.4525150000000  0.5330170000000  0.4638160000000 1.0
C      1  0.5487100000000  0.5230250000000  0.4638150000000 1.0
C      1  0.4894830000000  0.4539470000000  0.5323420000000 1.0
C      1  0.4617490000000  0.5305480000000  0.5323400000000 1.0
C      1  0.5419540000000  0.5162660000000  0.5323400000000 1.0
C      1  0.4300320000000  0.4128530000000  0.5440050000000 1.0
C      1  0.4558850000000  0.6025820000000  0.5440000000000 1.0
C      1  0.6072690000000  0.4853270000000  0.5440020000000 1.0
C      1  0.4665500000000  0.5789060000000  0.5417950000000 1.0
C      1  0.5814330000000  0.4879290000000  0.5417970000000 1.0
C      1  0.4452030000000  0.4339270000000  0.5417990000000 1.0
C      1  0.4977280000000  0.5002510000000  0.4205740000000 1.0
C      1  0.4977290000000  0.5002540000000  0.5536920000000 1.0
C      1  0.4977280000000  0.5002500000000  0.3940940000000 1.0
C      1  0.4977290000000  0.5002550000000  0.5835570000000 1.0
C      1  0.4977280000000  0.5002490000000  0.3680250000000 1.0
C      1  0.4977280000000  0.5002510000000  0.4504500000000 1.0
C      1  0.4977290000000  0.5002560000000  0.6095980000000 1.0
END
