TITL C-3201378-2706-897 2727.81273480652 125000 -662.444673873773 0 0 105 (C1) n - 1
REM
REM in /home/nfs/bkarasulu/CARBON/AIRSS/Generating-Clusters/LCBOP/Higher-Symm/SD-CG/FIRE-CG
REM
REM
REM
REM
REM
REM ./C.cell (b20cbc046b6831c77cfcea5457e17084)
REM AIRSS Version 0.9.1 bugfix July 2018 build 013d7b7c2542+ Fri, 06 Jul 2018 19:26:36 +0100
REM compiler GCC version 9.2.1 20190827 (Red Hat 9.2.1-1)
REM options -cpp -mtune=generic -march=x86-64 -g -O0 -fpre-include=/usr/include/finclude/math-vector-fortran.h
REM seed 1729219807 2070153995 2076878523 1689202703 -225365037 -2109001483 636163238 -1715472720 1444467397 -1643216701 827942168 -396421076 1692256689 -1666538115 2137963456 327908930 920086010 -1107962666 669257510 433412247 455176923 -1195589972 1598613249 14849640 1398851720 -1039896721 340726766 -2068787190 1962703733 -1274017126 -1535737899 1563145908 1127670326
REM
CELL 1.54180   50.00000   50.00000   50.00000   90.00000   90.00000   90.00000
LATT -1
SFAC C  
C      1  0.5785780000000  0.4904720000000  0.4947270000000 1.0
C      1  0.5479150000000  0.4315650000000  0.4971360000000 1.0
C      1  0.4663490000000  0.4121180000000  0.4807480000000 1.0
C      1  0.4094390000000  0.4730800000000  0.4806070000000 1.0
C      1  0.4228030000000  0.5544520000000  0.4819260000000 1.0
C      1  0.4999060000000  0.5904880000000  0.4820670000000 1.0
C      1  0.5567960000000  0.5537190000000  0.4946630000000 1.0
C      1  0.4868710000000  0.4216370000000  0.4533480000000 1.0
C      1  0.4268180000000  0.4636940000000  0.4503940000000 1.0
C      1  0.4241210000000  0.5363040000000  0.4508670000000 1.0
C      1  0.4808380000000  0.5813720000000  0.4523070000000 1.0
C      1  0.5463230000000  0.5693160000000  0.4291900000000 1.0
C      1  0.5808910000000  0.5100200000000  0.4361040000000 1.0
C      1  0.5554950000000  0.4435690000000  0.4375530000000 1.0
C      1  0.4628740000000  0.4911850000000  0.5795780000000 1.0
C      1  0.4709760000000  0.5225540000000  0.5786930000000 1.0
C      1  0.4995780000000  0.5364470000000  0.5773150000000 1.0
C      1  0.5265960000000  0.5213950000000  0.5780820000000 1.0
C      1  0.5325140000000  0.4914090000000  0.5793460000000 1.0
C      1  0.5132590000000  0.4673650000000  0.5803380000000 1.0
C      1  0.4821320000000  0.4659820000000  0.5800280000000 1.0
C      1  0.4814440000000  0.5282660000000  0.4890510000000 1.0
C      1  0.5123300000000  0.5289970000000  0.4855350000000 1.0
C      1  0.5296840000000  0.5046770000000  0.4856990000000 1.0
C      1  0.5235730000000  0.4764360000000  0.4875320000000 1.0
C      1  0.4984020000000  0.4621010000000  0.4912350000000 1.0
C      1  0.4705370000000  0.4730570000000  0.4916780000000 1.0
C      1  0.4627160000000  0.5031650000000  0.4910800000000 1.0
C      1  0.5568840000000  0.5887110000000  0.5297080000000 1.0
C      1  0.6030890000000  0.5143450000000  0.5307130000000 1.0
C      1  0.5804740000000  0.4297600000000  0.5356070000000 1.0
C      1  0.4974910000000  0.4142810000000  0.5173360000000 1.0
C      1  0.4296170000000  0.4473480000000  0.5162710000000 1.0
C      1  0.4175930000000  0.5221310000000  0.5171740000000 1.0
C      1  0.4713740000000  0.5749860000000  0.5148490000000 1.0
C      1  0.4538010000000  0.5782970000000  0.5360830000000 1.0
C      1  0.5334180000000  0.5944130000000  0.5417290000000 1.0
C      1  0.5918560000000  0.5338100000000  0.5456620000000 1.0
C      1  0.5875580000000  0.4522010000000  0.5487160000000 1.0
C      1  0.5140410000000  0.4072990000000  0.5385550000000 1.0
C      1  0.4332160000000  0.4297990000000  0.5374650000000 1.0
C      1  0.4053750000000  0.5085680000000  0.5380310000000 1.0
C      1  0.4736190000000  0.5186930000000  0.5332800000000 1.0
C      1  0.4995000000000  0.5310460000000  0.5314190000000 1.0
C      1  0.5250710000000  0.5184350000000  0.5321590000000 1.0
C      1  0.5307360000000  0.4907740000000  0.5331550000000 1.0
C      1  0.5127420000000  0.4690260000000  0.5346460000000 1.0
C      1  0.4844040000000  0.4683230000000  0.5342560000000 1.0
C      1  0.4668240000000  0.4908050000000  0.5339740000000 1.0
C      1  0.4449980000000  0.4428660000000  0.4512760000000 1.0
C      1  0.4197640000000  0.5091810000000  0.4521260000000 1.0
C      1  0.4563700000000  0.5692100000000  0.4530210000000 1.0
C      1  0.5252260000000  0.5788240000000  0.4441490000000 1.0
C      1  0.5712650000000  0.5335880000000  0.4481990000000 1.0
C      1  0.5693130000000  0.4656620000000  0.4484370000000 1.0
C      1  0.5150230000000  0.4244670000000  0.4547310000000 1.0
C      1  0.5094940000000  0.5803300000000  0.5367830000000 1.0
C      1  0.5657370000000  0.5438480000000  0.5427820000000 1.0
C      1  0.5764480000000  0.4775950000000  0.5440100000000 1.0
C      1  0.5335350000000  0.4264500000000  0.5449600000000 1.0
C      1  0.4605750000000  0.4247410000000  0.5416990000000 1.0
C      1  0.4176200000000  0.4835740000000  0.5415820000000 1.0
C      1  0.4393050000000  0.5547250000000  0.5409420000000 1.0
C      1  0.5547430000000  0.4262230000000  0.5249260000000 1.0
C      1  0.4706770000000  0.4106330000000  0.5174800000000 1.0
C      1  0.4120540000000  0.4678010000000  0.5171460000000 1.0
C      1  0.4219460000000  0.5488220000000  0.5180190000000 1.0
C      1  0.4958880000000  0.5877270000000  0.5112680000000 1.0
C      1  0.5630020000000  0.5626150000000  0.5210010000000 1.0
C      1  0.5884210000000  0.4919570000000  0.5217270000000 1.0
C      1  0.5510540000000  0.4860070000000  0.5544810000000 1.0
C      1  0.5225720000000  0.4507130000000  0.5559000000000 1.0
C      1  0.4748470000000  0.4483710000000  0.5544980000000 1.0
C      1  0.4449960000000  0.4862200000000  0.5539720000000 1.0
C      1  0.4566870000000  0.5334750000000  0.5530790000000 1.0
C      1  0.5017070000000  0.5541330000000  0.5506760000000 1.0
C      1  0.5421080000000  0.5312510000000  0.5530070000000 1.0
C      1  0.5291140000000  0.5545360000000  0.4861370000000 1.0
C      1  0.5588770000000  0.5100210000000  0.4873020000000 1.0
C      1  0.5478910000000  0.4590900000000  0.4895930000000 1.0
C      1  0.5040820000000  0.4334160000000  0.4976890000000 1.0
C      1  0.4495530000000  0.4519130000000  0.4967200000000 1.0
C      1  0.4334450000000  0.5088930000000  0.4972380000000 1.0
C      1  0.4675750000000  0.5541530000000  0.4957650000000 1.0
C      1  0.4839900000000  0.4710880000000  0.4332860000000 1.0
C      1  0.4650470000000  0.4951150000000  0.4329240000000 1.0
C      1  0.4717780000000  0.5248410000000  0.4320780000000 1.0
C      1  0.4988160000000  0.5373840000000  0.4303850000000 1.0
C      1  0.5254970000000  0.5235850000000  0.4288500000000 1.0
C      1  0.5323930000000  0.4946100000000  0.4298730000000 1.0
C      1  0.5137890000000  0.4710010000000  0.4319360000000 1.0
C      1  0.5717650000000  0.4683840000000  0.4771430000000 1.0
C      1  0.5255300000000  0.4222580000000  0.4814680000000 1.0
C      1  0.4474290000000  0.4315640000000  0.4771830000000 1.0
C      1  0.4143600000000  0.4997480000000  0.4782540000000 1.0
C      1  0.4473370000000  0.5654120000000  0.4792850000000 1.0
C      1  0.5236040000000  0.5790990000000  0.4729920000000 1.0
C      1  0.5686090000000  0.5346470000000  0.4767260000000 1.0
C      1  0.5618400000000  0.4892300000000  0.4342570000000 1.0
C      1  0.5269750000000  0.4444030000000  0.4376780000000 1.0
C      1  0.4719110000000  0.4443410000000  0.4401520000000 1.0
C      1  0.4362380000000  0.4891300000000  0.4389660000000 1.0
C      1  0.4496970000000  0.5444580000000  0.4388490000000 1.0
C      1  0.4998670000000  0.5671300000000  0.4360990000000 1.0
C      1  0.5491770000000  0.5416500000000  0.4316840000000 1.0
END
