TITL C-3201378-2706-877 0.000139945200797037 125000 -203.937876979969 0 0 36 (D4h) n - 1
REM
REM in /home/nfs/bkarasulu/CARBON/AIRSS/Generating-Clusters/LCBOP/Higher-Symm/SD-CG/FIRE-CG
REM
REM
REM
REM
REM
REM ./C.cell (b20cbc046b6831c77cfcea5457e17084)
REM AIRSS Version 0.9.1 bugfix July 2018 build 013d7b7c2542+ Fri, 06 Jul 2018 19:26:36 +0100
REM compiler GCC version 9.2.1 20190827 (Red Hat 9.2.1-1)
REM options -cpp -mtune=generic -march=x86-64 -g -O0 -fpre-include=/usr/include/finclude/math-vector-fortran.h
REM seed -525074923 857694671 1529200975 -1352946329 2120746917 -1651035717 -4569299 -22549819 -2048296712 947056994 1860606100 -1406897431 -805216147 -322101198 -135790635 86545461 1082810380 1872699089 1607885658 1626874129 -903004273 252862615 -1187302707 1679301880 -1027486877 1947297948 71203295 762005906 226925269 -2013721471 -13074892 1639725629 -1096271725
REM
CELL 1.54180   50.00000   50.00000   50.00000   90.00000   90.00000   90.00000
LATT -1
SFAC C  
C      1  0.4993150000000  0.3588350000000  0.4783280000000 1.0
C      1  0.4993060000000  0.5215780000000  0.3594720000000 1.0
C      1  0.5006850000000  0.6411650000000  0.5216720000000 1.0
C      1  0.5006940000000  0.4784220000000  0.6405280000000 1.0
C      1  0.5004360000000  0.4864650000000  0.5881480000000 1.0
C      1  0.4998090000000  0.4112140000000  0.4863680000000 1.0
C      1  0.4995640000000  0.5135350000000  0.4118520000000 1.0
C      1  0.5001910000000  0.5887860000000  0.5136320000000 1.0
C      1  0.4990710000000  0.3330680000000  0.4743730000000 1.0
C      1  0.4991780000000  0.5255340000000  0.3337040000000 1.0
C      1  0.5009290000000  0.6669320000000  0.5256270000000 1.0
C      1  0.5008220000000  0.4744660000000  0.6662960000000 1.0
C      1  0.4994350000000  0.5175550000000  0.3856710000000 1.0
C      1  0.5004380000000  0.6149670000000  0.5176500000000 1.0
C      1  0.5005650000000  0.4824450000000  0.6143290000000 1.0
C      1  0.4995620000000  0.3850330000000  0.4823500000000 1.0
C      1  0.5356020000000  0.5043190000000  0.4783890000000 1.0
C      1  0.5352070000000  0.5218100000000  0.5031750000000 1.0
C      1  0.5358160000000  0.4976890000000  0.5215670000000 1.0
C      1  0.5364740000000  0.4771150000000  0.4963060000000 1.0
C      1  0.4641840000000  0.5023110000000  0.4784330000000 1.0
C      1  0.4635260000000  0.5228850000000  0.5036940000000 1.0
C      1  0.4643980000000  0.4956810000000  0.5216110000000 1.0
C      1  0.4647930000000  0.4781900000000  0.4968250000000 1.0
C      1  0.5000720000000  0.4387230000000  0.4905910000000 1.0
C      1  0.4997000000000  0.5093110000000  0.4393620000000 1.0
C      1  0.4999280000000  0.5612770000000  0.5094090000000 1.0
C      1  0.5003000000000  0.4906890000000  0.5606380000000 1.0
C      1  0.4763250000000  0.4925340000000  0.5461620000000 1.0
C      1  0.4763160000000  0.4534620000000  0.4929710000000 1.0
C      1  0.4758700000000  0.5066920000000  0.4539550000000 1.0
C      1  0.4758970000000  0.5469470000000  0.5073280000000 1.0
C      1  0.5236750000000  0.5074660000000  0.4538380000000 1.0
C      1  0.5236840000000  0.5465380000000  0.5070290000000 1.0
C      1  0.5241300000000  0.4933080000000  0.5460450000000 1.0
C      1  0.5241030000000  0.4530530000000  0.4926720000000 1.0
END
