TITL C-3201372-1405-2221 2.44269011456436 125000 -892.685757451585 0 0 145 (C1) n - 1
REM
REM in /home/nfs/bkarasulu/CARBON/AIRSS/Generating-Clusters/LCBOP/Higher-Symm/SD-CG/FIRE-CG
REM
REM
REM
REM
REM
REM ./C.cell (b20cbc046b6831c77cfcea5457e17084)
REM AIRSS Version 0.9.1 bugfix July 2018 build 013d7b7c2542+ Fri, 06 Jul 2018 19:26:36 +0100
REM compiler GCC version 9.2.1 20190827 (Red Hat 9.2.1-1)
REM options -cpp -mtune=generic -march=x86-64 -g -O0 -fpre-include=/usr/include/finclude/math-vector-fortran.h
REM seed 834827136 1413704764 -810816276 -1295549077 -2023709340 1839755150 -526013073 642823261 1587968756 1663561495 -1317805518 945840036 -1095538184 347724030 -1187992295 -469120092 -714152382 -388586631 289543711 -1406194435 1015138165 -769921975 1901344191 -775590052 -887872112 551578715 -990314307 2005286410 155134097 -1398154177 -1337975967 609213507 1340715671
REM
CELL 1.54180   50.00000   50.00000   50.00000   90.00000   90.00000   90.00000
LATT -1
SFAC C  
C      1  0.4731590000000  0.4649880000000  0.4149740000000 1.0
C      1  0.5397710000000  0.5324250000000  0.5835400000000 1.0
C      1  0.5896030000000  0.4829390000000  0.5522150000000 1.0
C      1  0.4001300000000  0.5293500000000  0.4565070000000 1.0
C      1  0.4939120000000  0.4674590000000  0.5500610000000 1.0
C      1  0.4898730000000  0.5339370000000  0.4768610000000 1.0
C      1  0.5600930000000  0.5318930000000  0.5635950000000 1.0
C      1  0.4737660000000  0.4652750000000  0.4434320000000 1.0
C      1  0.4297260000000  0.5855370000000  0.5425400000000 1.0
C      1  0.5523980000000  0.4011520000000  0.4738020000000 1.0
C      1  0.5339470000000  0.4616630000000  0.5969830000000 1.0
C      1  0.4728920000000  0.5410070000000  0.4008980000000 1.0
C      1  0.4892550000000  0.5241580000000  0.4505440000000 1.0
C      1  0.5105390000000  0.4927260000000  0.5515260000000 1.0
C      1  0.3983420000000  0.4594320000000  0.5011140000000 1.0
C      1  0.6116880000000  0.5416740000000  0.4894000000000 1.0
C      1  0.4944850000000  0.4467880000000  0.4044320000000 1.0
C      1  0.5140800000000  0.5475710000000  0.5782330000000 1.0
C      1  0.4285880000000  0.4323140000000  0.5563770000000 1.0
C      1  0.5994070000000  0.5586880000000  0.4256490000000 1.0
C      1  0.4205830000000  0.5054180000000  0.5690700000000 1.0
C      1  0.5821530000000  0.4933400000000  0.4488780000000 1.0
C      1  0.5322780000000  0.5412710000000  0.4453150000000 1.0
C      1  0.4672400000000  0.4786990000000  0.5615730000000 1.0
C      1  0.4622370000000  0.4724660000000  0.5156360000000 1.0
C      1  0.5382850000000  0.5063510000000  0.4835680000000 1.0
C      1  0.4121760000000  0.5288600000000  0.5209550000000 1.0
C      1  0.5890630000000  0.4700420000000  0.4666060000000 1.0
C      1  0.4696480000000  0.4890600000000  0.5884350000000 1.0
C      1  0.5627680000000  0.4718990000000  0.3965430000000 1.0
C      1  0.4145330000000  0.4814300000000  0.4389340000000 1.0
C      1  0.5962780000000  0.5281130000000  0.5368420000000 1.0
C      1  0.4850470000000  0.5306390000000  0.5285390000000 1.0
C      1  0.5113620000000  0.4619380000000  0.4744310000000 1.0
C      1  0.5332390000000  0.5884370000000  0.5523010000000 1.0
C      1  0.4791380000000  0.4061750000000  0.4306870000000 1.0
C      1  0.5281550000000  0.4243530000000  0.5108690000000 1.0
C      1  0.4550650000000  0.5771840000000  0.5003500000000 1.0
C      1  0.4387580000000  0.5249410000000  0.5820290000000 1.0
C      1  0.5344920000000  0.4567180000000  0.4339030000000 1.0
C      1  0.5199760000000  0.5677250000000  0.4504870000000 1.0
C      1  0.4444410000000  0.4147350000000  0.5433740000000 1.0
C      1  0.4307630000000  0.5854200000000  0.5141930000000 1.0
C      1  0.5525200000000  0.4113970000000  0.5002810000000 1.0
C      1  0.4829440000000  0.3805020000000  0.4420580000000 1.0
C      1  0.5273160000000  0.6151960000000  0.5461970000000 1.0
C      1  0.4785100000000  0.4035660000000  0.5066980000000 1.0
C      1  0.5054430000000  0.5880290000000  0.4946430000000 1.0
C      1  0.5197080000000  0.6266920000000  0.5231120000000 1.0
C      1  0.4812130000000  0.3708040000000  0.4671130000000 1.0
C      1  0.4781560000000  0.3789970000000  0.4925420000000 1.0
C      1  0.5117380000000  0.6150020000000  0.5002370000000 1.0
C      1  0.5068390000000  0.4761930000000  0.5008920000000 1.0
C      1  0.4970650000000  0.5242070000000  0.5019200000000 1.0
C      1  0.5840960000000  0.5129140000000  0.5586730000000 1.0
C      1  0.4172350000000  0.5065810000000  0.4513280000000 1.0
C      1  0.4044200000000  0.5456150000000  0.5418890000000 1.0
C      1  0.5680380000000  0.4459120000000  0.4620120000000 1.0
C      1  0.5415880000000  0.5082590000000  0.5985070000000 1.0
C      1  0.4740070000000  0.4912680000000  0.4016110000000 1.0
C      1  0.6027710000000  0.5551810000000  0.5435250000000 1.0
C      1  0.4214980000000  0.4560450000000  0.4326210000000 1.0
C      1  0.4996930000000  0.4454620000000  0.5697280000000 1.0
C      1  0.4982460000000  0.5758920000000  0.4323810000000 1.0
C      1  0.5780320000000  0.5214280000000  0.4610720000000 1.0
C      1  0.4214500000000  0.4848400000000  0.5452360000000 1.0
C      1  0.4892880000000  0.4666550000000  0.5206570000000 1.0
C      1  0.5553730000000  0.5426800000000  0.5141540000000 1.0
C      1  0.5874900000000  0.5794990000000  0.5367720000000 1.0
C      1  0.4282790000000  0.4299790000000  0.4430030000000 1.0
C      1  0.5386120000000  0.4471620000000  0.5269190000000 1.0
C      1  0.4477990000000  0.5604810000000  0.4778740000000 1.0
C      1  0.5129070000000  0.4206940000000  0.5661530000000 1.0
C      1  0.4772150000000  0.5935080000000  0.4397500000000 1.0
C      1  0.5907220000000  0.5416930000000  0.4433780000000 1.0
C      1  0.4177380000000  0.4568990000000  0.5553410000000 1.0
C      1  0.4004950000000  0.4848700000000  0.5145840000000 1.0
C      1  0.5931350000000  0.5170770000000  0.4891400000000 1.0
C      1  0.4117010000000  0.5546290000000  0.4464240000000 1.0
C      1  0.5707080000000  0.4639210000000  0.5659550000000 1.0
C      1  0.4441720000000  0.5326720000000  0.4832580000000 1.0
C      1  0.5550330000000  0.4683470000000  0.5122140000000 1.0
C      1  0.5534380000000  0.4419460000000  0.5528950000000 1.0
C      1  0.4350470000000  0.5699340000000  0.4539720000000 1.0
C      1  0.4948100000000  0.4368510000000  0.4762970000000 1.0
C      1  0.4913720000000  0.5610020000000  0.5333130000000 1.0
C      1  0.4568030000000  0.4215450000000  0.4433050000000 1.0
C      1  0.5594400000000  0.5778490000000  0.5457020000000 1.0
C      1  0.5140000000000  0.4665600000000  0.3938380000000 1.0
C      1  0.4905750000000  0.5298980000000  0.5770740000000 1.0
C      1  0.5132120000000  0.5236050000000  0.4343640000000 1.0
C      1  0.4887350000000  0.4773180000000  0.6062900000000 1.0
C      1  0.5303580000000  0.4268130000000  0.4345230000000 1.0
C      1  0.4313550000000  0.5521500000000  0.5800340000000 1.0
C      1  0.4950380000000  0.4790090000000  0.4556840000000 1.0
C      1  0.4964280000000  0.5167220000000  0.5519900000000 1.0
C      1  0.6012040000000  0.4862150000000  0.4917150000000 1.0
C      1  0.3947120000000  0.5120320000000  0.5051770000000 1.0
C      1  0.4507640000000  0.4891510000000  0.5373650000000 1.0
C      1  0.5490600000000  0.5301130000000  0.4681570000000 1.0
C      1  0.5548070000000  0.4195710000000  0.4521600000000 1.0
C      1  0.4195180000000  0.5638860000000  0.5574900000000 1.0
C      1  0.5009430000000  0.4207420000000  0.4994560000000 1.0
C      1  0.4830710000000  0.5772180000000  0.5100340000000 1.0
C      1  0.5024550000000  0.4228510000000  0.4210080000000 1.0
C      1  0.5117430000000  0.5681180000000  0.5558040000000 1.0
C      1  0.5018610000000  0.4935750000000  0.6255280000000 1.0
C      1  0.5160730000000  0.5126720000000  0.4085980000000 1.0
C      1  0.6088710000000  0.5683640000000  0.4936850000000 1.0
C      1  0.4112500000000  0.4351180000000  0.4905830000000 1.0
C      1  0.4720780000000  0.4405080000000  0.4582710000000 1.0
C      1  0.5541320000000  0.5498620000000  0.5415070000000 1.0
C      1  0.5488810000000  0.4823550000000  0.5800560000000 1.0
C      1  0.4638770000000  0.5159900000000  0.4120310000000 1.0
C      1  0.5505820000000  0.4809160000000  0.4847070000000 1.0
C      1  0.4383180000000  0.5277050000000  0.5104630000000 1.0
C      1  0.4638410000000  0.5170560000000  0.4406060000000 1.0
C      1  0.5380710000000  0.4930470000000  0.5521940000000 1.0
C      1  0.5546610000000  0.4942260000000  0.5290090000000 1.0
C      1  0.4433300000000  0.5151420000000  0.4599940000000 1.0
C      1  0.5443630000000  0.5526190000000  0.4897070000000 1.0
C      1  0.4381110000000  0.4326790000000  0.5003330000000 1.0
C      1  0.5813900000000  0.4525310000000  0.5133730000000 1.0
C      1  0.3883770000000  0.5594280000000  0.4922870000000 1.0
C      1  0.5402560000000  0.4199990000000  0.5656860000000 1.0
C      1  0.4503850000000  0.5896960000000  0.4410670000000 1.0
C      1  0.4533430000000  0.4144920000000  0.5165060000000 1.0
C      1  0.5242450000000  0.5722010000000  0.4794610000000 1.0
C      1  0.5387180000000  0.4659820000000  0.4076620000000 1.0
C      1  0.4662130000000  0.5177740000000  0.5881270000000 1.0
C      1  0.4903240000000  0.5602300000000  0.4094010000000 1.0
C      1  0.5058720000000  0.4572490000000  0.5951120000000 1.0
C      1  0.4054590000000  0.5789670000000  0.5011050000000 1.0
C      1  0.5771380000000  0.4245890000000  0.5088820000000 1.0
C      1  0.5995410000000  0.4738500000000  0.5191300000000 1.0
C      1  0.3881920000000  0.5314290000000  0.4830160000000 1.0
C      1  0.5022180000000  0.4929130000000  0.3937180000000 1.0
C      1  0.5261600000000  0.5050140000000  0.6219140000000 1.0
C      1  0.5967950000000  0.5861910000000  0.5104700000000 1.0
C      1  0.4101410000000  0.4233130000000  0.4645420000000 1.0
C      1  0.5408190000000  0.4625600000000  0.4636320000000 1.0
C      1  0.4574370000000  0.5175330000000  0.5279340000000 1.0
C      1  0.5757180000000  0.5205750000000  0.5143050000000 1.0
C      1  0.4495800000000  0.4579290000000  0.4966760000000 1.0
C      1  0.5149980000000  0.5033850000000  0.4994420000000 1.0
END
