TITL C-3201375-1262-1516 207990.770840231 125000 -802.173338866021 0 0 134 (C1) n - 1
REM
REM in /home/nfs/bkarasulu/CARBON/AIRSS/Generating-Clusters/LCBOP/Higher-Symm/SD-CG/FIRE-CG
REM
REM
REM
REM
REM
REM ./C.cell (b20cbc046b6831c77cfcea5457e17084)
REM AIRSS Version 0.9.1 bugfix July 2018 build 013d7b7c2542+ Fri, 06 Jul 2018 19:26:36 +0100
REM compiler GCC version 9.2.1 20190827 (Red Hat 9.2.1-1)
REM options -cpp -mtune=generic -march=x86-64 -g -O0 -fpre-include=/usr/include/finclude/math-vector-fortran.h
REM seed -1320918681 -1893136978 1009351222 -1151022538 926887816 -944255727 -1452358396 -1158186207 -1674121984 -2005673690 -1115634140 -1620326650 -1510677791 486299460 -95321508 1117772933 -1456769575 -969360397 -843966613 1865081993 -1265283898 1770145680 712445638 -2113079741 -1103049800 1046186538 -1896202720 -1939403526 372831033 -84535385 1789106188 -827285379 -757108390
REM
CELL 1.54180   50.00000   50.00000   50.00000   90.00000   90.00000   90.00000
LATT -1
SFAC C  
C      1  0.4884310000000  0.6094400000000  0.5403160000000 1.0
C      1  0.5014150000000  0.3906320000000  0.5243010000000 1.0
C      1  0.4752360000000  0.6244180000000  0.5228560000000 1.0
C      1  0.5198330000000  0.3797600000000  0.5086250000000 1.0
C      1  0.4035620000000  0.4842090000000  0.5785260000000 1.0
C      1  0.5913360000000  0.5194420000000  0.5824530000000 1.0
C      1  0.4028520000000  0.4813180000000  0.4204340000000 1.0
C      1  0.5952680000000  0.5113560000000  0.4203830000000 1.0
C      1  0.6154220000000  0.4729800000000  0.5568420000000 1.0
C      1  0.4419330000000  0.5267570000000  0.5702140000000 1.0
C      1  0.5962770000000  0.4711740000000  0.4479910000000 1.0
C      1  0.4398190000000  0.5262630000000  0.4280620000000 1.0
C      1  0.5412350000000  0.5541400000000  0.5130460000000 1.0
C      1  0.4542330000000  0.4519930000000  0.5169820000000 1.0
C      1  0.5368490000000  0.5582470000000  0.4829670000000 1.0
C      1  0.4553170000000  0.4532430000000  0.4857440000000 1.0
C      1  0.6203390000000  0.4411130000000  0.5980700000000 1.0
C      1  0.4571320000000  0.5639610000000  0.5983380000000 1.0
C      1  0.6071410000000  0.4321010000000  0.4146560000000 1.0
C      1  0.4517920000000  0.5702010000000  0.4077080000000 1.0
C      1  0.4502440000000  0.5282700000000  0.5430300000000 1.0
C      1  0.5401300000000  0.4739820000000  0.5562310000000 1.0
C      1  0.4504800000000  0.5217070000000  0.4557280000000 1.0
C      1  0.5446670000000  0.4624620000000  0.4450180000000 1.0
C      1  0.4347550000000  0.5520560000000  0.4180130000000 1.0
C      1  0.6032500000000  0.4517680000000  0.4313140000000 1.0
C      1  0.4378470000000  0.5498580000000  0.5857880000000 1.0
C      1  0.6204350000000  0.4573630000000  0.5776800000000 1.0
C      1  0.5525170000000  0.5059050000000  0.5027140000000 1.0
C      1  0.4415960000000  0.5047870000000  0.5249970000000 1.0
C      1  0.5626680000000  0.4993010000000  0.4776120000000 1.0
C      1  0.4309860000000  0.5055060000000  0.4706940000000 1.0
C      1  0.5947120000000  0.4686360000000  0.4933570000000 1.0
C      1  0.4019180000000  0.5392940000000  0.4840530000000 1.0
C      1  0.5863900000000  0.4695380000000  0.5195100000000 1.0
C      1  0.4091680000000  0.5402490000000  0.5117950000000 1.0
C      1  0.4833420000000  0.4863820000000  0.5348510000000 1.0
C      1  0.5159650000000  0.5177120000000  0.5309630000000 1.0
C      1  0.4737050000000  0.5036510000000  0.4591800000000 1.0
C      1  0.5179650000000  0.5156670000000  0.4603910000000 1.0
C      1  0.5909500000000  0.4884160000000  0.4722860000000 1.0
C      1  0.4036970000000  0.5141170000000  0.4722650000000 1.0
C      1  0.6013450000000  0.4862710000000  0.5363000000000 1.0
C      1  0.4113410000000  0.5143910000000  0.5232950000000 1.0
C      1  0.4104620000000  0.4397810000000  0.4728860000000 1.0
C      1  0.5848630000000  0.5574980000000  0.4713380000000 1.0
C      1  0.4089340000000  0.4388950000000  0.5288280000000 1.0
C      1  0.5859170000000  0.5638080000000  0.5302300000000 1.0
C      1  0.4937200000000  0.5169730000000  0.5739350000000 1.0
C      1  0.4940900000000  0.4548950000000  0.5980340000000 1.0
C      1  0.4904640000000  0.5238290000000  0.4169570000000 1.0
C      1  0.4986560000000  0.4764690000000  0.4234680000000 1.0
C      1  0.4988170000000  0.4357210000000  0.5782780000000 1.0
C      1  0.4983160000000  0.5455270000000  0.5761670000000 1.0
C      1  0.5005590000000  0.4486290000000  0.4276390000000 1.0
C      1  0.4970290000000  0.5512600000000  0.4182720000000 1.0
C      1  0.3870530000000  0.4891540000000  0.5577520000000 1.0
C      1  0.6081600000000  0.5252410000000  0.5620170000000 1.0
C      1  0.3857440000000  0.4817330000000  0.4414040000000 1.0
C      1  0.6115220000000  0.5184740000000  0.4411670000000 1.0
C      1  0.4580050000000  0.5476220000000  0.4698610000000 1.0
C      1  0.5374900000000  0.4518890000000  0.4722460000000 1.0
C      1  0.4578340000000  0.5502400000000  0.5252740000000 1.0
C      1  0.5366750000000  0.4588600000000  0.5320300000000 1.0
C      1  0.4847280000000  0.5511640000000  0.4820030000000 1.0
C      1  0.5111260000000  0.4503110000000  0.4869770000000 1.0
C      1  0.4849230000000  0.5523760000000  0.5118410000000 1.0
C      1  0.5116440000000  0.4526020000000  0.5168230000000 1.0
C      1  0.5159390000000  0.5617140000000  0.4391720000000 1.0
C      1  0.4827890000000  0.4345710000000  0.4469380000000 1.0
C      1  0.5125710000000  0.5619690000000  0.5546280000000 1.0
C      1  0.4813150000000  0.4333720000000  0.5541130000000 1.0
C      1  0.4433490000000  0.4556370000000  0.4212700000000 1.0
C      1  0.5545850000000  0.5355350000000  0.4172050000000 1.0
C      1  0.4409170000000  0.4532360000000  0.5786030000000 1.0
C      1  0.5513380000000  0.5433370000000  0.5778580000000 1.0
C      1  0.5596340000000  0.4484650000000  0.4902520000000 1.0
C      1  0.4359480000000  0.5600680000000  0.4821740000000 1.0
C      1  0.5608910000000  0.4551290000000  0.5175790000000 1.0
C      1  0.4338780000000  0.5575180000000  0.5103490000000 1.0
C      1  0.4893590000000  0.4056290000000  0.4487460000000 1.0
C      1  0.5122770000000  0.5911870000000  0.4427320000000 1.0
C      1  0.4914200000000  0.3796820000000  0.4478800000000 1.0
C      1  0.5095240000000  0.6165440000000  0.4479820000000 1.0
C      1  0.4837410000000  0.4557610000000  0.5311720000000 1.0
C      1  0.5124370000000  0.5475030000000  0.5268230000000 1.0
C      1  0.4846840000000  0.4477920000000  0.4748900000000 1.0
C      1  0.5117700000000  0.5469160000000  0.4672120000000 1.0
C      1  0.5571990000000  0.5696680000000  0.5351810000000 1.0
C      1  0.4372580000000  0.4316390000000  0.5339820000000 1.0
C      1  0.5581870000000  0.5601950000000  0.4625020000000 1.0
C      1  0.4383360000000  0.4347500000000  0.4667180000000 1.0
C      1  0.5908750000000  0.5361230000000  0.5163220000000 1.0
C      1  0.4058580000000  0.4672820000000  0.5173240000000 1.0
C      1  0.5995010000000  0.5373480000000  0.4862240000000 1.0
C      1  0.4055790000000  0.4670860000000  0.4857660000000 1.0
C      1  0.4486680000000  0.5023760000000  0.5839100000000 1.0
C      1  0.5503080000000  0.4937370000000  0.5718050000000 1.0
C      1  0.4455150000000  0.5047490000000  0.4099980000000 1.0
C      1  0.5514550000000  0.4893310000000  0.4335940000000 1.0
C      1  0.4786940000000  0.5693790000000  0.4065200000000 1.0
C      1  0.5163990000000  0.4333910000000  0.4110020000000 1.0
C      1  0.4836910000000  0.5603730000000  0.5954490000000 1.0
C      1  0.5199170000000  0.4183250000000  0.5813110000000 1.0
C      1  0.4880000000000  0.4075510000000  0.5396670000000 1.0
C      1  0.5008800000000  0.5890920000000  0.5518790000000 1.0
C      1  0.5399400000000  0.3731810000000  0.4933810000000 1.0
C      1  0.4623650000000  0.6352840000000  0.5029530000000 1.0
C      1  0.4723430000000  0.5073600000000  0.3997090000000 1.0
C      1  0.4873080000000  0.4832550000000  0.3975640000000 1.0
C      1  0.4764230000000  0.5014830000000  0.5909320000000 1.0
C      1  0.4868610000000  0.4796050000000  0.6046350000000 1.0
C      1  0.4306210000000  0.4801190000000  0.4141760000000 1.0
C      1  0.5668320000000  0.5092810000000  0.4175830000000 1.0
C      1  0.4311760000000  0.4795900000000  0.5830490000000 1.0
C      1  0.5631460000000  0.5178490000000  0.5802770000000 1.0
C      1  0.4810440000000  0.4998250000000  0.4869930000000 1.0
C      1  0.5089920000000  0.5025180000000  0.4864350000000 1.0
C      1  0.4696330000000  0.5005660000000  0.5125920000000 1.0
C      1  0.5255120000000  0.5032840000000  0.5084830000000 1.0
C      1  0.4510080000000  0.4343920000000  0.5598710000000 1.0
C      1  0.5425710000000  0.5631230000000  0.5597300000000 1.0
C      1  0.4526850000000  0.4378770000000  0.4412940000000 1.0
C      1  0.5463120000000  0.5555070000000  0.4357210000000 1.0
C      1  0.5615650000000  0.5294540000000  0.5125520000000 1.0
C      1  0.4352870000000  0.4758400000000  0.5227670000000 1.0
C      1  0.5452420000000  0.5054720000000  0.4565290000000 1.0
C      1  0.4362530000000  0.4794890000000  0.4805750000000 1.0
C      1  0.6065390000000  0.5145600000000  0.4693390000000 1.0
C      1  0.3898350000000  0.4882990000000  0.4688680000000 1.0
C      1  0.6033110000000  0.5154720000000  0.5355180000000 1.0
C      1  0.3932870000000  0.4918950000000  0.5302310000000 1.0
C      1  0.4997050000000  0.5043350000000  0.5493060000000 1.0
C      1  0.4972940000000  0.5041350000000  0.4402530000000 1.0
END
