TITL C-3201377-4638-197 232049.687086428 125000 -1044.84432123351 0 0 168 (C1) n - 1
REM
REM in /home/nfs/bkarasulu/CARBON/AIRSS/Generating-Clusters/LCBOP/Higher-Symm/SD-CG/FIRE-CG
REM
REM
REM
REM
REM
REM ./C.cell (b20cbc046b6831c77cfcea5457e17084)
REM AIRSS Version 0.9.1 bugfix July 2018 build 013d7b7c2542+ Fri, 06 Jul 2018 19:26:36 +0100
REM compiler GCC version 9.2.1 20190827 (Red Hat 9.2.1-1)
REM options -cpp -mtune=generic -march=x86-64 -g -O0 -fpre-include=/usr/include/finclude/math-vector-fortran.h
REM seed 1583935187 -79979360 -75948861 210502121 -501475023 1231871054 -1491332607 -1102430858 85591393 88894433 224582406 1153562319 -29944214 312614728 1931707386 -505993100 -44997318 -963825029 -1220624082 87723077 1329920668 1745660892 -325137914 -562200509 1294695473 -845025833 -1425059717 1432504323 685087441 1522180691 -987528901 -1033972415 -1624026274
REM
CELL 1.54180   50.00000   50.00000   50.00000   90.00000   90.00000   90.00000
LATT -1
SFAC C  
C      1  0.4563580000000  0.4620160000000  0.3968590000000 1.0
C      1  0.5433930000000  0.5360910000000  0.3997290000000 1.0
C      1  0.4490270000000  0.4777540000000  0.5974990000000 1.0
C      1  0.5497050000000  0.5242080000000  0.6046830000000 1.0
C      1  0.5292090000000  0.4710840000000  0.3974820000000 1.0
C      1  0.4713990000000  0.5268750000000  0.3959570000000 1.0
C      1  0.5153680000000  0.4668010000000  0.6187650000000 1.0
C      1  0.4799970000000  0.5348190000000  0.6189440000000 1.0
C      1  0.4126460000000  0.5609560000000  0.5177150000000 1.0
C      1  0.5836730000000  0.4264530000000  0.5149430000000 1.0
C      1  0.4119020000000  0.5547440000000  0.4896280000000 1.0
C      1  0.5818990000000  0.4253270000000  0.4878460000000 1.0
C      1  0.4373750000000  0.5694280000000  0.4293040000000 1.0
C      1  0.5510990000000  0.4253100000000  0.4332530000000 1.0
C      1  0.4473650000000  0.5778830000000  0.5726050000000 1.0
C      1  0.5520960000000  0.4276180000000  0.5733590000000 1.0
C      1  0.5194910000000  0.6082070000000  0.5196610000000 1.0
C      1  0.4819600000000  0.3898250000000  0.5180510000000 1.0
C      1  0.5173910000000  0.6109970000000  0.4895340000000 1.0
C      1  0.4824810000000  0.3875070000000  0.4879060000000 1.0
C      1  0.5186610000000  0.5640230000000  0.5987190000000 1.0
C      1  0.4786480000000  0.4373230000000  0.5942730000000 1.0
C      1  0.5056460000000  0.5677600000000  0.4107240000000 1.0
C      1  0.4922710000000  0.4306550000000  0.4104140000000 1.0
C      1  0.5160700000000  0.5844440000000  0.5762560000000 1.0
C      1  0.4809300000000  0.4158890000000  0.5728440000000 1.0
C      1  0.5046360000000  0.5907130000000  0.4320950000000 1.0
C      1  0.4910560000000  0.4090410000000  0.4321510000000 1.0
C      1  0.5042260000000  0.5505660000000  0.6214020000000 1.0
C      1  0.4912960000000  0.4505190000000  0.6182790000000 1.0
C      1  0.4906450000000  0.5487180000000  0.3923730000000 1.0
C      1  0.5091010000000  0.4497680000000  0.3932790000000 1.0
C      1  0.5290350000000  0.5235040000000  0.3778020000000 1.0
C      1  0.4717290000000  0.4746210000000  0.3756470000000 1.0
C      1  0.5361240000000  0.5162010000000  0.6294220000000 1.0
C      1  0.4588890000000  0.4847900000000  0.6242670000000 1.0
C      1  0.6011190000000  0.5805580000000  0.4385050000000 1.0
C      1  0.3956520000000  0.4404390000000  0.4346890000000 1.0
C      1  0.6068490000000  0.5653290000000  0.5545570000000 1.0
C      1  0.3898460000000  0.4519480000000  0.5511360000000 1.0
C      1  0.4369080000000  0.4707740000000  0.5056610000000 1.0
C      1  0.5843210000000  0.5215380000000  0.5047620000000 1.0
C      1  0.4363970000000  0.4705770000000  0.4757970000000 1.0
C      1  0.5770260000000  0.5232560000000  0.4746370000000 1.0
C      1  0.3966590000000  0.5141630000000  0.5078580000000 1.0
C      1  0.6291440000000  0.4796990000000  0.4862930000000 1.0
C      1  0.4024840000000  0.5284350000000  0.4837500000000 1.0
C      1  0.6196910000000  0.4799680000000  0.4610690000000 1.0
C      1  0.3762690000000  0.4461840000000  0.4531220000000 1.0
C      1  0.6194170000000  0.5859950000000  0.4579020000000 1.0
C      1  0.3711870000000  0.4543930000000  0.5312120000000 1.0
C      1  0.6234150000000  0.5756820000000  0.5355950000000 1.0
C      1  0.5594590000000  0.4795720000000  0.4821890000000 1.0
C      1  0.4536030000000  0.5148350000000  0.4798240000000 1.0
C      1  0.5697660000000  0.4783680000000  0.5080240000000 1.0
C      1  0.4602020000000  0.5109960000000  0.5064080000000 1.0
C      1  0.5577730000000  0.5592850000000  0.5677090000000 1.0
C      1  0.4396880000000  0.4383350000000  0.5643180000000 1.0
C      1  0.5508780000000  0.5743250000000  0.4300060000000 1.0
C      1  0.4464360000000  0.4244730000000  0.4270790000000 1.0
C      1  0.4239450000000  0.4379930000000  0.4380880000000 1.0
C      1  0.5767580000000  0.5655770000000  0.4393560000000 1.0
C      1  0.4183040000000  0.4486030000000  0.5486410000000 1.0
C      1  0.5816000000000  0.5513720000000  0.5523010000000 1.0
C      1  0.5808340000000  0.5430080000000  0.5239520000000 1.0
C      1  0.4237470000000  0.4508930000000  0.5207890000000 1.0
C      1  0.5767500000000  0.5496640000000  0.4635230000000 1.0
C      1  0.4294880000000  0.4451980000000  0.4648490000000 1.0
C      1  0.5482770000000  0.4427750000000  0.5945420000000 1.0
C      1  0.4508810000000  0.5613180000000  0.5928790000000 1.0
C      1  0.5621810000000  0.4458830000000  0.4204960000000 1.0
C      1  0.4332670000000  0.5473660000000  0.4149070000000 1.0
C      1  0.4362610000000  0.4004930000000  0.4859880000000 1.0
C      1  0.5365740000000  0.5688240000000  0.4861660000000 1.0
C      1  0.4359510000000  0.3921060000000  0.5134150000000 1.0
C      1  0.5378840000000  0.5659870000000  0.5123130000000 1.0
C      1  0.5499540000000  0.5152340000000  0.4157520000000 1.0
C      1  0.4523000000000  0.4823240000000  0.4144060000000 1.0
C      1  0.5530350000000  0.5042110000000  0.5854760000000 1.0
C      1  0.4503140000000  0.4979840000000  0.5782690000000 1.0
C      1  0.6173830000000  0.4861830000000  0.5097320000000 1.0
C      1  0.4154920000000  0.5069830000000  0.5261690000000 1.0
C      1  0.5962880000000  0.4863870000000  0.4494690000000 1.0
C      1  0.4113740000000  0.5127030000000  0.4613940000000 1.0
C      1  0.4763480000000  0.6336710000000  0.4955980000000 1.0
C      1  0.5287580000000  0.3735620000000  0.4864990000000 1.0
C      1  0.4788890000000  0.6323490000000  0.5229800000000 1.0
C      1  0.5282530000000  0.3779100000000  0.5265770000000 1.0
C      1  0.5007630000000  0.5264910000000  0.4885930000000 1.0
C      1  0.5310980000000  0.4816480000000  0.4874430000000 1.0
C      1  0.4859490000000  0.5205960000000  0.5120550000000 1.0
C      1  0.5308460000000  0.4863640000000  0.5142370000000 1.0
C      1  0.5476730000000  0.4944980000000  0.4357590000000 1.0
C      1  0.4553270000000  0.5028510000000  0.4345930000000 1.0
C      1  0.5319890000000  0.4869910000000  0.5793310000000 1.0
C      1  0.4700110000000  0.5176070000000  0.5763780000000 1.0
C      1  0.4890000000000  0.5085900000000  0.4456740000000 1.0
C      1  0.5120450000000  0.4911160000000  0.4466280000000 1.0
C      1  0.4924080000000  0.5152490000000  0.5587030000000 1.0
C      1  0.5127720000000  0.4930270000000  0.5587630000000 1.0
C      1  0.4512500000000  0.5722980000000  0.5457430000000 1.0
C      1  0.5457740000000  0.4310260000000  0.5465600000000 1.0
C      1  0.4465950000000  0.5667540000000  0.4554760000000 1.0
C      1  0.5413760000000  0.4260880000000  0.4594150000000 1.0
C      1  0.4712670000000  0.5014760000000  0.3832730000000 1.0
C      1  0.5301950000000  0.4965480000000  0.3849260000000 1.0
C      1  0.4697050000000  0.5108040000000  0.6311730000000 1.0
C      1  0.5242340000000  0.4899930000000  0.6335680000000 1.0
C      1  0.4818590000000  0.5727000000000  0.4855210000000 1.0
C      1  0.5047260000000  0.4325940000000  0.4907690000000 1.0
C      1  0.4834030000000  0.5736600000000  0.5118890000000 1.0
C      1  0.5069550000000  0.4345900000000  0.5173180000000 1.0
C      1  0.4636440000000  0.4080260000000  0.4442010000000 1.0
C      1  0.5318790000000  0.5904180000000  0.4448050000000 1.0
C      1  0.4568920000000  0.4163360000000  0.5547160000000 1.0
C      1  0.5385040000000  0.5790100000000  0.5576210000000 1.0
C      1  0.5204530000000  0.4752960000000  0.5371770000000 1.0
C      1  0.4880130000000  0.5337330000000  0.5369250000000 1.0
C      1  0.5159890000000  0.4712240000000  0.4660460000000 1.0
C      1  0.4883660000000  0.5317430000000  0.4627820000000 1.0
C      1  0.6298240000000  0.5816920000000  0.5100590000000 1.0
C      1  0.3645490000000  0.4543520000000  0.5048650000000 1.0
C      1  0.6283960000000  0.5852320000000  0.4833580000000 1.0
C      1  0.3668270000000  0.4513650000000  0.4780100000000 1.0
C      1  0.5690960000000  0.4962270000000  0.4588730000000 1.0
C      1  0.4382950000000  0.4983720000000  0.4601170000000 1.0
C      1  0.5909910000000  0.4953020000000  0.5136110000000 1.0
C      1  0.4404790000000  0.4956040000000  0.5189600000000 1.0
C      1  0.4302140000000  0.5802180000000  0.5286130000000 1.0
C      1  0.5621190000000  0.4155380000000  0.5296870000000 1.0
C      1  0.4269330000000  0.5738740000000  0.4745510000000 1.0
C      1  0.5589830000000  0.4125230000000  0.4770430000000 1.0
C      1  0.5058700000000  0.3805220000000  0.4727420000000 1.0
C      1  0.4932260000000  0.6209490000000  0.4763890000000 1.0
C      1  0.5037110000000  0.3859720000000  0.5365190000000 1.0
C      1  0.4986650000000  0.6178870000000  0.5376620000000 1.0
C      1  0.5311750000000  0.5921150000000  0.4729960000000 1.0
C      1  0.4602720000000  0.3970480000000  0.4712400000000 1.0
C      1  0.5337900000000  0.5857530000000  0.5306300000000 1.0
C      1  0.4571980000000  0.3991380000000  0.5308760000000 1.0
C      1  0.4893610000000  0.6097660000000  0.4490950000000 1.0
C      1  0.5073910000000  0.3901230000000  0.4456720000000 1.0
C      1  0.4995250000000  0.6054210000000  0.5643380000000 1.0
C      1  0.5003640000000  0.3976860000000  0.5626560000000 1.0
C      1  0.5220800000000  0.5384380000000  0.6401770000000 1.0
C      1  0.4716430000000  0.4620850000000  0.6357200000000 1.0
C      1  0.5073560000000  0.5396860000000  0.3701960000000 1.0
C      1  0.4941790000000  0.4587360000000  0.3697660000000 1.0
C      1  0.5511890000000  0.3891360000000  0.4906250000000 1.0
C      1  0.4278390000000  0.6001630000000  0.4857080000000 1.0
C      1  0.5515420000000  0.3913180000000  0.5198870000000 1.0
C      1  0.4308960000000  0.6036250000000  0.5125660000000 1.0
C      1  0.4521380000000  0.5271990000000  0.4167720000000 1.0
C      1  0.5484990000000  0.4697480000000  0.4183470000000 1.0
C      1  0.4670260000000  0.5390030000000  0.5945820000000 1.0
C      1  0.5310070000000  0.4642190000000  0.5958680000000 1.0
C      1  0.5230690000000  0.4465280000000  0.5371770000000 1.0
C      1  0.4753920000000  0.5602670000000  0.5353250000000 1.0
C      1  0.5183520000000  0.4421870000000  0.4679160000000 1.0
C      1  0.4726920000000  0.5569690000000  0.4638760000000 1.0
C      1  0.4218930000000  0.4240790000000  0.4822490000000 1.0
C      1  0.5749640000000  0.5685400000000  0.4837940000000 1.0
C      1  0.4093260000000  0.4327070000000  0.5052390000000 1.0
C      1  0.5765680000000  0.5664780000000  0.5098000000000 1.0
C      1  0.5453150000000  0.5500690000000  0.5929640000000 1.0
C      1  0.4525770000000  0.4511230000000  0.5871420000000 1.0
C      1  0.5351580000000  0.5606480000000  0.4102400000000 1.0
C      1  0.4630020000000  0.4369050000000  0.4071440000000 1.0
END
