TITL C-3201375-1262-491 -2.03761024050293e-07 125000 -662.694676984323 0 0 104 (Th) n - 1
REM
REM in /home/nfs/bkarasulu/CARBON/AIRSS/Generating-Clusters/LCBOP/Higher-Symm/SD-CG/FIRE-CG
REM
REM
REM
REM
REM
REM ./C.cell (b20cbc046b6831c77cfcea5457e17084)
REM AIRSS Version 0.9.1 bugfix July 2018 build 013d7b7c2542+ Fri, 06 Jul 2018 19:26:36 +0100
REM compiler GCC version 9.2.1 20190827 (Red Hat 9.2.1-1)
REM options -cpp -mtune=generic -march=x86-64 -g -O0 -fpre-include=/usr/include/finclude/math-vector-fortran.h
REM seed -20992083 -504301682 -2058103019 -1152073183 -1092012247 668405983 1239545302 84919181 1916161012 298255126 -885601885 791272914 -1433387626 1739832298 -1015676489 2139991760 2110732712 297363342 1199352014 -600714091 857078424 697610335 -1292284352 -871205248 -27342370 438613787 88720638 1819965438 -893618120 860257341 -2097464733 1262657511 1037462938
REM
CELL 1.54180   50.00000   50.00000   50.00000   90.00000   90.00000   90.00000
LATT -1
SFAC C  
C      1  0.5267540000000  0.5538690000000  0.4857230000000 1.0
C      1  0.5538570000000  0.4856810000000  0.5268090000000 1.0
C      1  0.4856690000000  0.5267660000000  0.5539120000000 1.0
C      1  0.4733320000000  0.4462410000000  0.4857240000000 1.0
C      1  0.5267540000000  0.4462410000000  0.5144720000000 1.0
C      1  0.4733310000000  0.5538690000000  0.5144720000000 1.0
C      1  0.4462290000000  0.5144290000000  0.5268090000000 1.0
C      1  0.5538570000000  0.5144290000000  0.4733860000000 1.0
C      1  0.4462290000000  0.4856810000000  0.4733860000000 1.0
C      1  0.5144170000000  0.4733440000000  0.5539120000000 1.0
C      1  0.4856690000000  0.4733440000000  0.4462840000000 1.0
C      1  0.5144170000000  0.5267660000000  0.4462840000000 1.0
C      1  0.5267540000000  0.5538690000000  0.5144720000000 1.0
C      1  0.5538570000000  0.4856810000000  0.4733860000000 1.0
C      1  0.4856690000000  0.5267660000000  0.4462840000000 1.0
C      1  0.4733320000000  0.4462410000000  0.5144720000000 1.0
C      1  0.5267540000000  0.4462410000000  0.4857240000000 1.0
C      1  0.4733310000000  0.5538690000000  0.4857230000000 1.0
C      1  0.4462290000000  0.5144290000000  0.4733860000000 1.0
C      1  0.5538570000000  0.5144290000000  0.5268090000000 1.0
C      1  0.4462290000000  0.4856810000000  0.5268090000000 1.0
C      1  0.5144170000000  0.4733440000000  0.4462840000000 1.0
C      1  0.4856690000000  0.4733440000000  0.5539120000000 1.0
C      1  0.5144170000000  0.5267660000000  0.5539120000000 1.0
C      1  0.5145970000000  0.5763910000000  0.4731790000000 1.0
C      1  0.5763790000000  0.4731370000000  0.5146520000000 1.0
C      1  0.4731240000000  0.5146090000000  0.5764340000000 1.0
C      1  0.4854880000000  0.4237180000000  0.4731790000000 1.0
C      1  0.5145970000000  0.4237180000000  0.5270160000000 1.0
C      1  0.4854880000000  0.5763910000000  0.5270160000000 1.0
C      1  0.4237060000000  0.5269730000000  0.5146520000000 1.0
C      1  0.5763790000000  0.5269730000000  0.4855430000000 1.0
C      1  0.4237060000000  0.4731360000000  0.4855430000000 1.0
C      1  0.5269610000000  0.4855000000000  0.5764340000000 1.0
C      1  0.4731240000000  0.4855000000000  0.4237610000000 1.0
C      1  0.5269610000000  0.5146090000000  0.4237610000000 1.0
C      1  0.5145970000000  0.5763910000000  0.5270160000000 1.0
C      1  0.5763790000000  0.4731370000000  0.4855430000000 1.0
C      1  0.4731240000000  0.5146090000000  0.4237610000000 1.0
C      1  0.4854880000000  0.4237180000000  0.5270160000000 1.0
C      1  0.5145970000000  0.4237180000000  0.4731790000000 1.0
C      1  0.4854880000000  0.5763910000000  0.4731790000000 1.0
C      1  0.4237060000000  0.5269730000000  0.4855430000000 1.0
C      1  0.5763790000000  0.5269730000000  0.5146520000000 1.0
C      1  0.4237060000000  0.4731360000000  0.5146520000000 1.0
C      1  0.5269610000000  0.4855000000000  0.4237610000000 1.0
C      1  0.4731240000000  0.4855000000000  0.5764340000000 1.0
C      1  0.5269610000000  0.5146100000000  0.5764340000000 1.0
C      1  0.6193060000000  0.4495420000000  0.5137280000000 1.0
C      1  0.4495300000000  0.5136850000000  0.6193610000000 1.0
C      1  0.5136730000000  0.6193180000000  0.4495840000000 1.0
C      1  0.3807800000000  0.5505680000000  0.5137280000000 1.0
C      1  0.6193060000000  0.5505680000000  0.4864670000000 1.0
C      1  0.3807800000000  0.4495420000000  0.4864680000000 1.0
C      1  0.5505560000000  0.4864250000000  0.6193610000000 1.0
C      1  0.4495300000000  0.4864250000000  0.3808350000000 1.0
C      1  0.5505560000000  0.5136850000000  0.3808350000000 1.0
C      1  0.4864130000000  0.3807920000000  0.4495850000000 1.0
C      1  0.5136730000000  0.3807920000000  0.5506110000000 1.0
C      1  0.4864130000000  0.6193180000000  0.5506100000000 1.0
C      1  0.6193060000000  0.4495420000000  0.4864680000000 1.0
C      1  0.4495300000000  0.5136850000000  0.3808350000000 1.0
C      1  0.5136730000000  0.6193180000000  0.5506100000000 1.0
C      1  0.3807800000000  0.5505680000000  0.4864670000000 1.0
C      1  0.6193060000000  0.5505680000000  0.5137280000000 1.0
C      1  0.3807800000000  0.4495420000000  0.5137280000000 1.0
C      1  0.5505560000000  0.4864250000000  0.3808350000000 1.0
C      1  0.4495300000000  0.4864250000000  0.6193610000000 1.0
C      1  0.5505560000000  0.5136850000000  0.6193610000000 1.0
C      1  0.4864130000000  0.3807920000000  0.5506110000000 1.0
C      1  0.5136730000000  0.3807920000000  0.4495850000000 1.0
C      1  0.4864130000000  0.6193180000000  0.4495840000000 1.0
C      1  0.5272160000000  0.4015130000000  0.5392440000000 1.0
C      1  0.4015010000000  0.5392010000000  0.5272710000000 1.0
C      1  0.5391890000000  0.5272280000000  0.4015560000000 1.0
C      1  0.4728690000000  0.5985960000000  0.5392440000000 1.0
C      1  0.5272160000000  0.5985960000000  0.4609510000000 1.0
C      1  0.4728690000000  0.4015130000000  0.4609510000000 1.0
C      1  0.5985840000000  0.4609090000000  0.5272710000000 1.0
C      1  0.4015010000000  0.4609080000000  0.4729240000000 1.0
C      1  0.5985840000000  0.5392010000000  0.4729240000000 1.0
C      1  0.4608960000000  0.4728810000000  0.4015560000000 1.0
C      1  0.5391890000000  0.4728810000000  0.5986390000000 1.0
C      1  0.4608960000000  0.5272280000000  0.5986390000000 1.0
C      1  0.5272160000000  0.4015130000000  0.4609510000000 1.0
C      1  0.4015010000000  0.5392010000000  0.4729240000000 1.0
C      1  0.5391890000000  0.5272280000000  0.5986390000000 1.0
C      1  0.4728690000000  0.5985960000000  0.4609510000000 1.0
C      1  0.5272160000000  0.5985960000000  0.5392440000000 1.0
C      1  0.4728690000000  0.4015130000000  0.5392440000000 1.0
C      1  0.5985840000000  0.4609090000000  0.4729240000000 1.0
C      1  0.4015010000000  0.4609080000000  0.5272710000000 1.0
C      1  0.5985840000000  0.5392010000000  0.5272710000000 1.0
C      1  0.4608960000000  0.4728810000000  0.5986390000000 1.0
C      1  0.5391890000000  0.4728810000000  0.4015560000000 1.0
C      1  0.4608960000000  0.5272280000000  0.4015560000000 1.0
C      1  0.5311920000000  0.4689050000000  0.5312470000000 1.0
C      1  0.5311920000000  0.5312050000000  0.4689480000000 1.0
C      1  0.4688930000000  0.5312050000000  0.5312470000000 1.0
C      1  0.4688930000000  0.5312040000000  0.4689480000000 1.0
C      1  0.4688930000000  0.4689050000000  0.5312470000000 1.0
C      1  0.5311920000000  0.4689050000000  0.4689480000000 1.0
C      1  0.4688930000000  0.4689050000000  0.4689480000000 1.0
C      1  0.5311920000000  0.5312050000000  0.5312470000000 1.0
END
