TITL C-3201378-2706-351 -2.11370314837361e-07 125000 -152.712197468512 0 0 28 (Cs) n - 1
REM
REM in /home/nfs/bkarasulu/CARBON/AIRSS/Generating-Clusters/LCBOP/Higher-Symm/SD-CG/FIRE-CG
REM
REM
REM
REM
REM
REM ./C.cell (b20cbc046b6831c77cfcea5457e17084)
REM AIRSS Version 0.9.1 bugfix July 2018 build 013d7b7c2542+ Fri, 06 Jul 2018 19:26:36 +0100
REM compiler GCC version 9.2.1 20190827 (Red Hat 9.2.1-1)
REM options -cpp -mtune=generic -march=x86-64 -g -O0 -fpre-include=/usr/include/finclude/math-vector-fortran.h
REM seed 1067032108 1310052134 -247025510 -2118943274 -1823740596 -1408438335 545869874 -1260232338 39560188 283277209 -116813872 -1009719424 249536007 -495443176 1176273138 488621837 -748750164 -1626660399 294692504 -1624506510 -1657138053 -1885931975 -1132556663 -26085981 -1213129893 -1081205174 -672233548 1870796962 -967566893 1872639000 -2043319483 -1886179926 666920597
REM
CELL 1.54180   50.00000   50.00000   50.00000   90.00000   90.00000   90.00000
LATT -1
SFAC C  
C      1  0.4770820000000  0.5349900000000  0.4629330000000 1.0
C      1  0.4742130000000  0.5377920000000  0.5144530000000 1.0
C      1  0.4783960000000  0.4972590000000  0.5403090000000 1.0
C      1  0.4745220000000  0.4505500000000  0.5195690000000 1.0
C      1  0.4752180000000  0.4745180000000  0.4605110000000 1.0
C      1  0.5245200000000  0.5349790000000  0.4629300000000 1.0
C      1  0.5273960000000  0.5377800000000  0.5144500000000 1.0
C      1  0.5231970000000  0.4972490000000  0.5403060000000 1.0
C      1  0.5270470000000  0.4505370000000  0.5195660000000 1.0
C      1  0.5263560000000  0.4745060000000  0.4605080000000 1.0
C      1  0.4553420000000  0.5188440000000  0.5072980000000 1.0
C      1  0.4643990000000  0.4983570000000  0.5623560000000 1.0
C      1  0.4546580000000  0.4683150000000  0.5144560000000 1.0
C      1  0.4522910000000  0.4851660000000  0.4706780000000 1.0
C      1  0.4582050000000  0.5466980000000  0.4492750000000 1.0
C      1  0.5462580000000  0.5188230000000  0.5072930000000 1.0
C      1  0.5371980000000  0.4983400000000  0.5623520000000 1.0
C      1  0.5469190000000  0.4682930000000  0.5144500000000 1.0
C      1  0.5492890000000  0.4851430000000  0.4706720000000 1.0
C      1  0.5434020000000  0.5466770000000  0.4492700000000 1.0
C      1  0.5007960000000  0.4974370000000  0.5222390000000 1.0
C      1  0.5007880000000  0.4788760000000  0.4717890000000 1.0
C      1  0.5008070000000  0.5447080000000  0.5175160000000 1.0
C      1  0.5007830000000  0.4444260000000  0.5209200000000 1.0
C      1  0.5008000000000  0.5247670000000  0.4741800000000 1.0
C      1  0.4496010000000  0.4916390000000  0.4983760000000 1.0
C      1  0.5519850000000  0.4916150000000  0.4983700000000 1.0
C      1  0.5007950000000  0.5005440000000  0.4918210000000 1.0
END
