TITL C-3201379-3821-984 -12778.8292760435 125000 -602.810185366622 0 0 99 (C1) n - 1
REM
REM in /home/nfs/bkarasulu/CARBON/AIRSS/Generating-Clusters/LCBOP/Higher-Symm/SD-CG/FIRE-CG
REM
REM
REM
REM
REM
REM ./C.cell (b20cbc046b6831c77cfcea5457e17084)
REM AIRSS Version 0.9.1 bugfix July 2018 build 013d7b7c2542+ Fri, 06 Jul 2018 19:26:36 +0100
REM compiler GCC version 9.2.1 20190827 (Red Hat 9.2.1-1)
REM options -cpp -mtune=generic -march=x86-64 -g -O0 -fpre-include=/usr/include/finclude/math-vector-fortran.h
REM seed -1210206346 -2014665841 992396118 -1517736767 -1605628531 -1285413976 740034604 -695566984 365223316 -292085738 -1160155510 -1278964561 1569802305 1373290681 17233773 -787122972 -684698794 1927916970 -2033355735 -279666153 1528708425 388653812 443395197 -1274518716 -492763376 -268050916 1246541361 -1858688849 -556118579 -1789334627 1715449438 634326178 -186287262
REM
CELL 1.54180   50.00000   50.00000   50.00000   90.00000   90.00000   90.00000
LATT -1
SFAC C  
C      1  0.4792170000000  0.5803590000000  0.4859010000000 1.0
C      1  0.5266160000000  0.5881590000000  0.4797700000000 1.0
C      1  0.5015830000000  0.5882220000000  0.5317070000000 1.0
C      1  0.4801500000000  0.4163410000000  0.4850320000000 1.0
C      1  0.5280770000000  0.4100220000000  0.4794340000000 1.0
C      1  0.5020320000000  0.4103500000000  0.5311830000000 1.0
C      1  0.4787680000000  0.5823850000000  0.5150430000000 1.0
C      1  0.5269100000000  0.5885270000000  0.5200150000000 1.0
C      1  0.5011340000000  0.5867150000000  0.4686350000000 1.0
C      1  0.4793270000000  0.4159570000000  0.5142950000000 1.0
C      1  0.5274900000000  0.4100630000000  0.5196590000000 1.0
C      1  0.5026420000000  0.4105290000000  0.4680920000000 1.0
C      1  0.5859340000000  0.4608390000000  0.4844040000000 1.0
C      1  0.4717630000000  0.4601560000000  0.5778650000000 1.0
C      1  0.4432160000000  0.4587640000000  0.4347280000000 1.0
C      1  0.5854040000000  0.5389880000000  0.4831350000000 1.0
C      1  0.4709410000000  0.5378790000000  0.5776860000000 1.0
C      1  0.4429640000000  0.5365100000000  0.4379300000000 1.0
C      1  0.5863680000000  0.4594500000000  0.5154540000000 1.0
C      1  0.4712010000000  0.4591790000000  0.4205540000000 1.0
C      1  0.4446570000000  0.4610060000000  0.5636430000000 1.0
C      1  0.5848060000000  0.5382290000000  0.5144100000000 1.0
C      1  0.4700350000000  0.5369530000000  0.4228370000000 1.0
C      1  0.4435930000000  0.5369930000000  0.5633650000000 1.0
C      1  0.4304590000000  0.4936900000000  0.5243050000000 1.0
C      1  0.5061490000000  0.4842280000000  0.4467180000000 1.0
C      1  0.5444310000000  0.4851760000000  0.5336140000000 1.0
C      1  0.4276750000000  0.5155110000000  0.5069550000000 1.0
C      1  0.5042980000000  0.5121800000000  0.4475300000000 1.0
C      1  0.5435070000000  0.5130880000000  0.5338750000000 1.0
C      1  0.4546160000000  0.4858430000000  0.4792960000000 1.0
C      1  0.5058840000000  0.4849090000000  0.5543670000000 1.0
C      1  0.5441630000000  0.4851250000000  0.4677650000000 1.0
C      1  0.4504620000000  0.5123010000000  0.4900160000000 1.0
C      1  0.5055330000000  0.5129440000000  0.5550300000000 1.0
C      1  0.5431270000000  0.5129230000000  0.4689670000000 1.0
C      1  0.5516300000000  0.4245840000000  0.4847820000000 1.0
C      1  0.4985160000000  0.4188020000000  0.5584630000000 1.0
C      1  0.4651470000000  0.4384570000000  0.4744760000000 1.0
C      1  0.5502650000000  0.5737940000000  0.4848640000000 1.0
C      1  0.4982850000000  0.5795040000000  0.5589790000000 1.0
C      1  0.4642120000000  0.5577380000000  0.4761270000000 1.0
C      1  0.5512190000000  0.4245030000000  0.5148120000000 1.0
C      1  0.4989610000000  0.4187400000000  0.4407540000000 1.0
C      1  0.4647970000000  0.4389820000000  0.5244100000000 1.0
C      1  0.5504290000000  0.5739330000000  0.5148390000000 1.0
C      1  0.4971380000000  0.5784180000000  0.4414620000000 1.0
C      1  0.4642410000000  0.5600370000000  0.5262050000000 1.0
C      1  0.4740080000000  0.5122790000000  0.4068980000000 1.0
C      1  0.5873390000000  0.5090400000000  0.5191560000000 1.0
C      1  0.4282730000000  0.5127190000000  0.5709920000000 1.0
C      1  0.4748630000000  0.4848410000000  0.4058730000000 1.0
C      1  0.5982600000000  0.4836980000000  0.5279430000000 1.0
C      1  0.4286590000000  0.4848730000000  0.5719850000000 1.0
C      1  0.4752720000000  0.5126990000000  0.5927010000000 1.0
C      1  0.5970830000000  0.5138580000000  0.4712430000000 1.0
C      1  0.4273330000000  0.5116700000000  0.4323160000000 1.0
C      1  0.4758930000000  0.4853280000000  0.5928200000000 1.0
C      1  0.5973510000000  0.4858480000000  0.4722680000000 1.0
C      1  0.4270320000000  0.4838430000000  0.4294250000000 1.0
C      1  0.4975520000000  0.4440030000000  0.4272300000000 1.0
C      1  0.5647040000000  0.4444650000000  0.5305450000000 1.0
C      1  0.4405750000000  0.4495980000000  0.5356270000000 1.0
C      1  0.4956630000000  0.5527360000000  0.4290820000000 1.0
C      1  0.5640160000000  0.5537060000000  0.5302620000000 1.0
C      1  0.4390010000000  0.5514640000000  0.5370440000000 1.0
C      1  0.4973240000000  0.4439820000000  0.5719800000000 1.0
C      1  0.5649800000000  0.4448720000000  0.4691870000000 1.0
C      1  0.4395600000000  0.4465420000000  0.4623180000000 1.0
C      1  0.4967110000000  0.5541530000000  0.5722190000000 1.0
C      1  0.5632420000000  0.5536460000000  0.4690960000000 1.0
C      1  0.4389940000000  0.5531380000000  0.4627740000000 1.0
C      1  0.5255620000000  0.4739780000000  0.4873280000000 1.0
C      1  0.5000330000000  0.4743670000000  0.5277530000000 1.0
C      1  0.4766130000000  0.4655860000000  0.4856110000000 1.0
C      1  0.5226390000000  0.5218780000000  0.4875710000000 1.0
C      1  0.4990820000000  0.5239070000000  0.5288920000000 1.0
C      1  0.4733560000000  0.5315490000000  0.4880960000000 1.0
C      1  0.5250380000000  0.4753500000000  0.5143920000000 1.0
C      1  0.5014140000000  0.4727430000000  0.4729710000000 1.0
C      1  0.4796700000000  0.4615680000000  0.5146710000000 1.0
C      1  0.5235780000000  0.5223740000000  0.5147680000000 1.0
C      1  0.4973940000000  0.5220110000000  0.4744030000000 1.0
C      1  0.4786210000000  0.5372290000000  0.5168530000000 1.0
C      1  0.5209390000000  0.4617720000000  0.4338460000000 1.0
C      1  0.5478030000000  0.4607970000000  0.5501240000000 1.0
C      1  0.4266350000000  0.4664890000000  0.5141970000000 1.0
C      1  0.5188570000000  0.5354050000000  0.4360110000000 1.0
C      1  0.5470390000000  0.5375830000000  0.5501220000000 1.0
C      1  0.4224340000000  0.5431060000000  0.5130680000000 1.0
C      1  0.5207460000000  0.4614990000000  0.5660530000000 1.0
C      1  0.5478760000000  0.4613480000000  0.4502150000000 1.0
C      1  0.4306540000000  0.4659910000000  0.4836670000000 1.0
C      1  0.5202810000000  0.5365820000000  0.5666580000000 1.0
C      1  0.5457050000000  0.5367320000000  0.4514530000000 1.0
C      1  0.4196550000000  0.5553790000000  0.4856750000000 1.0
C      1  0.4540290000000  0.4966050000000  0.5387320000000 1.0
C      1  0.4627850000000  0.4935550000000  0.4516650000000 1.0
C      1  0.5679010000000  0.4999650000000  0.5008290000000 1.0
END
