TITL C-3201376-6384-2020 -8.52584300981573e-07 125000 -969.212741933141 0 0 164 (C3i) n - 1
REM
REM in /home/nfs/bkarasulu/CARBON/AIRSS/Generating-Clusters/LCBOP/Higher-Symm/SD-CG/FIRE-CG
REM
REM
REM
REM
REM
REM ./C.cell (b20cbc046b6831c77cfcea5457e17084)
REM AIRSS Version 0.9.1 bugfix July 2018 build 013d7b7c2542+ Fri, 06 Jul 2018 19:26:36 +0100
REM compiler GCC version 9.2.1 20190827 (Red Hat 9.2.1-1)
REM options -cpp -mtune=generic -march=x86-64 -g -O0 -fpre-include=/usr/include/finclude/math-vector-fortran.h
REM seed -2121283800 298564874 -647719670 938011255 744353350 -461182126 767382225 1748852715 1313200424 -446044952 -301841729 -651439187 -1052528116 53120876 -1861328329 -1118512901 1364933778 707156640 61359360 -272959226 837652125 1286172946 189413670 -1787270497 -6445423 1004005962 17398902 -685093781 -1721821983 -1297414510 -1170751715 1171824411 357067963
REM
CELL 1.54180   50.00000   50.00000   50.00000   90.00000   90.00000   90.00000
LATT -1
SFAC C  
C      1  0.4851720000000  0.3953710000000  0.4568460000000 1.0
C      1  0.4554540000000  0.6046280000000  0.4909710000000 1.0
C      1  0.4701270000000  0.3953650000000  0.5337420000000 1.0
C      1  0.5145120000000  0.6046450000000  0.5424310000000 1.0
C      1  0.5442230000000  0.3953590000000  0.5083260000000 1.0
C      1  0.5295720000000  0.6046320000000  0.4655520000000 1.0
C      1  0.5197420000000  0.5547400000000  0.4952150000000 1.0
C      1  0.5059410000000  0.4452460000000  0.4801910000000 1.0
C      1  0.4862170000000  0.5547180000000  0.4847400000000 1.0
C      1  0.4801060000000  0.4452900000000  0.5039900000000 1.0
C      1  0.4934730000000  0.5547680000000  0.5191090000000 1.0
C      1  0.5134970000000  0.4452380000000  0.5148880000000 1.0
C      1  0.5745180000000  0.5513800000000  0.5741460000000 1.0
C      1  0.6016820000000  0.4486320000000  0.4722000000000 1.0
C      1  0.5269590000000  0.5513800000000  0.3976840000000 1.0
C      1  0.4250980000000  0.4486170000000  0.4251740000000 1.0
C      1  0.3979560000000  0.5513790000000  0.5271030000000 1.0
C      1  0.4726530000000  0.4486130000000  0.6016090000000 1.0
C      1  0.5656040000000  0.5715040000000  0.4975350000000 1.0
C      1  0.5308820000000  0.4284960000000  0.4416320000000 1.0
C      1  0.4651810000000  0.5714910000000  0.4438280000000 1.0
C      1  0.4341590000000  0.4285080000000  0.5017470000000 1.0
C      1  0.4687120000000  0.5715360000000  0.5577210000000 1.0
C      1  0.5345590000000  0.4284650000000  0.5556370000000 1.0
C      1  0.4816980000000  0.6097890000000  0.4772700000000 1.0
C      1  0.4713840000000  0.3902110000000  0.5041640000000 1.0
C      1  0.4895230000000  0.6097990000000  0.5265670000000 1.0
C      1  0.5179900000000  0.3902010000000  0.5220360000000 1.0
C      1  0.5283010000000  0.6098000000000  0.4951260000000 1.0
C      1  0.5101490000000  0.3902000000000  0.4727330000000 1.0
C      1  0.4615180000000  0.6003350000000  0.5201410000000 1.0
C      1  0.4984200000000  0.3996590000000  0.5430770000000 1.0
C      1  0.5367240000000  0.6003370000000  0.5225840000000 1.0
C      1  0.5381390000000  0.3996650000000  0.4791670000000 1.0
C      1  0.5012820000000  0.6003240000000  0.4562430000000 1.0
C      1  0.4629670000000  0.3996800000000  0.4766920000000 1.0
C      1  0.4851000000000  0.5274260000000  0.5604220000000 1.0
C      1  0.5450780000000  0.4725830000000  0.5428000000000 1.0
C      1  0.5597700000000  0.5273860000000  0.4820350000000 1.0
C      1  0.5145420000000  0.4726140000000  0.4389420000000 1.0
C      1  0.4546680000000  0.5274170000000  0.4566360000000 1.0
C      1  0.4399860000000  0.4725740000000  0.5172730000000 1.0
C      1  0.5563030000000  0.5766380000000  0.5274810000000 1.0
C      1  0.5521660000000  0.4233650000000  0.4646590000000 1.0
C      1  0.4957260000000  0.5766240000000  0.4368420000000 1.0
C      1  0.4433860000000  0.4233820000000  0.4718040000000 1.0
C      1  0.4474410000000  0.5766550000000  0.5346870000000 1.0
C      1  0.5039740000000  0.4233360000000  0.5625450000000 1.0
C      1  0.5458310000000  0.5539320000000  0.4813400000000 1.0
C      1  0.5069690000000  0.4460660000000  0.4506600000000 1.0
C      1  0.4611170000000  0.5539390000000  0.4690760000000 1.0
C      1  0.4539900000000  0.4460560000000  0.5178960000000 1.0
C      1  0.4926190000000  0.5539680000000  0.5486560000000 1.0
C      1  0.5386570000000  0.4460390000000  0.5304020000000 1.0
C      1  0.5538150000000  0.4274100000000  0.5761760000000 1.0
C      1  0.5930230000000  0.5725770000000  0.4911320000000 1.0
C      1  0.5390400000000  0.4274210000000  0.4146830000000 1.0
C      1  0.4458730000000  0.5725560000000  0.4233320000000 1.0
C      1  0.4067520000000  0.4274490000000  0.5082110000000 1.0
C      1  0.4605490000000  0.5725870000000  0.5846670000000 1.0
C      1  0.4627900000000  0.5362580000000  0.3972450000000 1.0
C      1  0.3926250000000  0.4637510000000  0.4805140000000 1.0
C      1  0.4295300000000  0.5362630000000  0.5829730000000 1.0
C      1  0.5368310000000  0.4637140000000  0.6022120000000 1.0
C      1  0.6070810000000  0.5362780000000  0.5188600000000 1.0
C      1  0.5700610000000  0.4637350000000  0.4163680000000 1.0
C      1  0.5762770000000  0.5337380000000  0.4104090000000 1.0
C      1  0.4607600000000  0.4662490000000  0.3888110000000 1.0
C      1  0.3843590000000  0.5337640000000  0.4780180000000 1.0
C      1  0.4233500000000  0.4662360000000  0.5888090000000 1.0
C      1  0.5388050000000  0.5337560000000  0.6104600000000 1.0
C      1  0.6152820000000  0.4662570000000  0.5212790000000 1.0
C      1  0.5842670000000  0.5266900000000  0.3848140000000 1.0
C      1  0.4425860000000  0.4732720000000  0.3690880000000 1.0
C      1  0.3581780000000  0.5267730000000  0.4838710000000 1.0
C      1  0.4153250000000  0.4732500000000  0.6144030000000 1.0
C      1  0.5569650000000  0.5267370000000  0.6301990000000 1.0
C      1  0.6414540000000  0.4732770000000  0.5154170000000 1.0
C      1  0.5067140000000  0.4983440000000  0.3819600000000 1.0
C      1  0.4014000000000  0.5016600000000  0.4348130000000 1.0
C      1  0.3944510000000  0.4983180000000  0.5524250000000 1.0
C      1  0.4928440000000  0.5016720000000  0.6173100000000 1.0
C      1  0.5982280000000  0.4983380000000  0.5645030000000 1.0
C      1  0.6051820000000  0.5016670000000  0.4468080000000 1.0
C      1  0.5733300000000  0.4706510000000  0.4433160000000 1.0
C      1  0.4877790000000  0.5293320000000  0.4078430000000 1.0
C      1  0.4143040000000  0.4706800000000  0.4641800000000 1.0
C      1  0.4262870000000  0.5293370000000  0.5560250000000 1.0
C      1  0.5118720000000  0.4706420000000  0.5915480000000 1.0
C      1  0.5853730000000  0.5293570000000  0.5351560000000 1.0
C      1  0.5996430000000  0.4739670000000  0.4550500000000 1.0
C      1  0.5110800000000  0.5260390000000  0.3908910000000 1.0
C      1  0.4112910000000  0.4739610000000  0.4355220000000 1.0
C      1  0.3999900000000  0.5260340000000  0.5442460000000 1.0
C      1  0.4885210000000  0.4739550000000  0.6084290000000 1.0
C      1  0.5883480000000  0.5260440000000  0.5638130000000 1.0
C      1  0.5533760000000  0.4721720000000  0.4631360000000 1.0
C      1  0.4949950000000  0.5277990000000  0.4350270000000 1.0
C      1  0.4414490000000  0.4722120000000  0.4715430000000 1.0
C      1  0.4462690000000  0.5278140000000  0.5362330000000 1.0
C      1  0.5047220000000  0.4721720000000  0.5643470000000 1.0
C      1  0.5582350000000  0.5278310000000  0.5277670000000 1.0
C      1  0.4154650000000  0.5753370000000  0.5388780000000 1.0
C      1  0.4916090000000  0.4246500000000  0.5923320000000 1.0
C      1  0.5759350000000  0.5753180000000  0.5530730000000 1.0
C      1  0.5841420000000  0.4246910000000  0.4604430000000 1.0
C      1  0.5080160000000  0.5753220000000  0.4070230000000 1.0
C      1  0.4237120000000  0.4246820000000  0.4462490000000 1.0
C      1  0.5521600000000  0.5699930000000  0.4352180000000 1.0
C      1  0.4701960000000  0.4300090000000  0.4221180000000 1.0
C      1  0.4179550000000  0.5699620000000  0.4865510000000 1.0
C      1  0.4475430000000  0.4300240000000  0.5640080000000 1.0
C      1  0.5294270000000  0.5699890000000  0.5771270000000 1.0
C      1  0.5817240000000  0.4300220000000  0.5127520000000 1.0
C      1  0.6116290000000  0.5555240000000  0.5006430000000 1.0
C      1  0.5565680000000  0.4444840000000  0.4033210000000 1.0
C      1  0.4447560000000  0.5555050000000  0.4024630000000 1.0
C      1  0.3881240000000  0.4445020000000  0.4987390000000 1.0
C      1  0.4430200000000  0.5555180000000  0.5960200000000 1.0
C      1  0.5548790000000  0.4444670000000  0.5970420000000 1.0
C      1  0.5363170000000  0.5544220000000  0.4533850000000 1.0
C      1  0.4780030000000  0.4455830000000  0.4449220000000 1.0
C      1  0.4416340000000  0.5544480000000  0.4912660000000 1.0
C      1  0.4634680000000  0.4455400000000  0.5458610000000 1.0
C      1  0.5216100000000  0.5544660000000  0.5542840000000 1.0
C      1  0.5580290000000  0.4455410000000  0.5081090000000 1.0
C      1  0.5539140000000  0.5528550000000  0.4116340000000 1.0
C      1  0.4506490000000  0.4471390000000  0.4088020000000 1.0
C      1  0.3966280000000  0.5528450000000  0.4967840000000 1.0
C      1  0.4457340000000  0.4471490000000  0.5875890000000 1.0
C      1  0.5489380000000  0.5528490000000  0.5904660000000 1.0
C      1  0.6030280000000  0.4471630000000  0.5025140000000 1.0
C      1  0.4905820000000  0.4496560000000  0.5533040000000 1.0
C      1  0.5415750000000  0.5503390000000  0.5344740000000 1.0
C      1  0.5508580000000  0.4496620000000  0.4809130000000 1.0
C      1  0.5091590000000  0.5503130000000  0.4460500000000 1.0
C      1  0.4580760000000  0.4496950000000  0.4647780000000 1.0
C      1  0.4487500000000  0.5503340000000  0.5184680000000 1.0
C      1  0.4888730000000  0.5013690000000  0.4743010000000 1.0
C      1  0.4723790000000  0.4986530000000  0.4965120000000 1.0
C      1  0.4833570000000  0.5013950000000  0.5219130000000 1.0
C      1  0.5108430000000  0.4986280000000  0.5250930000000 1.0
C      1  0.5273300000000  0.5013540000000  0.5028670000000 1.0
C      1  0.5163420000000  0.4986010000000  0.4774790000000 1.0
C      1  0.4787430000000  0.4033350000000  0.4296870000000 1.0
C      1  0.4287340000000  0.5966520000000  0.4829300000000 1.0
C      1  0.4498010000000  0.4033360000000  0.5528620000000 1.0
C      1  0.5209240000000  0.5966820000000  0.5695910000000 1.0
C      1  0.5709500000000  0.4033270000000  0.5163510000000 1.0
C      1  0.5498770000000  0.5966680000000  0.4464030000000 1.0
C      1  0.5306580000000  0.4870050000000  0.4567800000000 1.0
C      1  0.4781340000000  0.5129850000000  0.4515500000000 1.0
C      1  0.4473150000000  0.4870190000000  0.4944180000000 1.0
C      1  0.4690050000000  0.5129950000000  0.5425950000000 1.0
C      1  0.5215900000000  0.4870060000000  0.5478460000000 1.0
C      1  0.5523970000000  0.5129900000000  0.5049140000000 1.0
C      1  0.5915210000000  0.5210200000000  0.4320470000000 1.0
C      1  0.4871120000000  0.4789820000000  0.3864200000000 1.0
C      1  0.3954680000000  0.5210300000000  0.4540080000000 1.0
C      1  0.4081130000000  0.4789560000000  0.5671700000000 1.0
C      1  0.5124470000000  0.5210330000000  0.6128450000000 1.0
C      1  0.6041700000000  0.4789790000000  0.5452970000000 1.0
C      1  0.4998390000000  0.6171750000000  0.4996530000000 1.0
C      1  0.4998390000000  0.3828250000000  0.4996450000000 1.0
END
