TITL C-3201374-830-211 -6.37279842058195e-07 125000 -573.403531809641 0 0 95 (C1) n - 1
REM
REM in /home/nfs/bkarasulu/CARBON/AIRSS/Generating-Clusters/LCBOP/Higher-Symm/SD-CG/FIRE-CG
REM
REM
REM
REM
REM
REM ./C.cell (b20cbc046b6831c77cfcea5457e17084)
REM AIRSS Version 0.9.1 bugfix July 2018 build 013d7b7c2542+ Fri, 06 Jul 2018 19:26:36 +0100
REM compiler GCC version 9.2.1 20190827 (Red Hat 9.2.1-1)
REM options -cpp -mtune=generic -march=x86-64 -g -O0 -fpre-include=/usr/include/finclude/math-vector-fortran.h
REM seed 824475171 -1644905684 -578367926 -835806487 464776314 -2009176696 579870386 -22198171 -345607987 -267395621 -390844137 -487281599 1978031649 -271549663 -1191427176 -1772463854 -826131812 15661846 -585713185 -925888850 -490438426 1635945637 -1618940218 1793281334 -1031965228 -634277995 606539457 -164553456 580739756 1406418603 1547975840 1823152802 1680956630
REM
CELL 1.54180   50.00000   50.00000   50.00000   90.00000   90.00000   90.00000
LATT -1
SFAC C  
C      1  0.5406550000000  0.5727240000000  0.5118920000000 1.0
C      1  0.5415540000000  0.4346220000000  0.4894450000000 1.0
C      1  0.4594530000000  0.4299920000000  0.5163030000000 1.0
C      1  0.4555280000000  0.5611420000000  0.4869780000000 1.0
C      1  0.5460390000000  0.5174620000000  0.5612730000000 1.0
C      1  0.5574480000000  0.4890280000000  0.4448160000000 1.0
C      1  0.4367970000000  0.5118340000000  0.4331450000000 1.0
C      1  0.4588130000000  0.4828190000000  0.5640250000000 1.0
C      1  0.4462280000000  0.5513080000000  0.5383660000000 1.0
C      1  0.4327640000000  0.4527600000000  0.4656520000000 1.0
C      1  0.5547260000000  0.4442160000000  0.5394420000000 1.0
C      1  0.5668640000000  0.5615930000000  0.4661740000000 1.0
C      1  0.4423100000000  0.5316550000000  0.5564870000000 1.0
C      1  0.4359780000000  0.4631700000000  0.4377940000000 1.0
C      1  0.5759440000000  0.5345040000000  0.4576880000000 1.0
C      1  0.5600640000000  0.4662850000000  0.5544520000000 1.0
C      1  0.4538010000000  0.4550650000000  0.5244390000000 1.0
C      1  0.4415210000000  0.5374400000000  0.4772550000000 1.0
C      1  0.5513750000000  0.5479530000000  0.5231510000000 1.0
C      1  0.5514140000000  0.4605810000000  0.4818690000000 1.0
C      1  0.4515940000000  0.5213420000000  0.4553060000000 1.0
C      1  0.4409250000000  0.4699630000000  0.5453930000000 1.0
C      1  0.5643090000000  0.5309090000000  0.5426560000000 1.0
C      1  0.5385360000000  0.4790550000000  0.4640110000000 1.0
C      1  0.5078750000000  0.5330580000000  0.4326220000000 1.0
C      1  0.4877810000000  0.4691670000000  0.5676710000000 1.0
C      1  0.4954750000000  0.4706810000000  0.4335760000000 1.0
C      1  0.5169330000000  0.5312400000000  0.5655410000000 1.0
C      1  0.4859500000000  0.4197690000000  0.5270750000000 1.0
C      1  0.4724320000000  0.5787170000000  0.4698130000000 1.0
C      1  0.5238350000000  0.4187260000000  0.4714130000000 1.0
C      1  0.5125620000000  0.5788100000000  0.5233080000000 1.0
C      1  0.5503200000000  0.4888220000000  0.5694110000000 1.0
C      1  0.5555630000000  0.5187880000000  0.4392560000000 1.0
C      1  0.4542280000000  0.5109870000000  0.5720180000000 1.0
C      1  0.4431280000000  0.4864290000000  0.4213450000000 1.0
C      1  0.5405820000000  0.5696040000000  0.4806480000000 1.0
C      1  0.5364170000000  0.4304630000000  0.5201230000000 1.0
C      1  0.4628750000000  0.5640650000000  0.5172220000000 1.0
C      1  0.4579990000000  0.4369550000000  0.4785030000000 1.0
C      1  0.5194010000000  0.5610270000000  0.5713360000000 1.0
C      1  0.5101810000000  0.4470030000000  0.4312180000000 1.0
C      1  0.4847100000000  0.4395520000000  0.5744370000000 1.0
C      1  0.4903720000000  0.5542880000000  0.4299300000000 1.0
C      1  0.5152410000000  0.5810340000000  0.5533150000000 1.0
C      1  0.5222760000000  0.4271170000000  0.4444290000000 1.0
C      1  0.4747280000000  0.5717840000000  0.4426000000000 1.0
C      1  0.4847630000000  0.4183600000000  0.5572130000000 1.0
C      1  0.5325040000000  0.4804790000000  0.5900010000000 1.0
C      1  0.5427160000000  0.5161050000000  0.4103350000000 1.0
C      1  0.4732920000000  0.5209360000000  0.5905310000000 1.0
C      1  0.4661490000000  0.4885570000000  0.4037900000000 1.0
C      1  0.5215870000000  0.5902270000000  0.4699500000000 1.0
C      1  0.5282420000000  0.4008920000000  0.5212920000000 1.0
C      1  0.4683940000000  0.5940790000000  0.5206220000000 1.0
C      1  0.4737830000000  0.4128870000000  0.4709030000000 1.0
C      1  0.4214790000000  0.4851920000000  0.5295290000000 1.0
C      1  0.4117000000000  0.4982360000000  0.4766140000000 1.0
C      1  0.5814410000000  0.5135630000000  0.5258280000000 1.0
C      1  0.5914610000000  0.4892300000000  0.4765840000000 1.0
C      1  0.4251880000000  0.5186580000000  0.4922840000000 1.0
C      1  0.4076660000000  0.4682030000000  0.5103900000000 1.0
C      1  0.5964280000000  0.5260030000000  0.5044150000000 1.0
C      1  0.5732970000000  0.4750290000000  0.4940470000000 1.0
C      1  0.4987070000000  0.5387730000000  0.4901210000000 1.0
C      1  0.4644800000000  0.4743500000000  0.5054680000000 1.0
C      1  0.5022540000000  0.4529450000000  0.4939230000000 1.0
C      1  0.5402420000000  0.5278560000000  0.5041180000000 1.0
C      1  0.4898800000000  0.5082560000000  0.5278110000000 1.0
C      1  0.4726910000000  0.5041500000000  0.4626000000000 1.0
C      1  0.5186700000000  0.5001250000000  0.4677740000000 1.0
C      1  0.5124430000000  0.4908570000000  0.5269750000000 1.0
C      1  0.4939700000000  0.4904810000000  0.4120930000000 1.0
C      1  0.5002000000000  0.5147710000000  0.5855880000000 1.0
C      1  0.5130480000000  0.5127630000000  0.4120270000000 1.0
C      1  0.5053700000000  0.4864000000000  0.5861800000000 1.0
C      1  0.4996530000000  0.4050130000000  0.4818700000000 1.0
C      1  0.4946130000000  0.5994030000000  0.5089940000000 1.0
C      1  0.5009570000000  0.3985990000000  0.5103630000000 1.0
C      1  0.4950880000000  0.5944670000000  0.4804390000000 1.0
C      1  0.4977280000000  0.5325920000000  0.5394530000000 1.0
C      1  0.4791500000000  0.4767530000000  0.4566370000000 1.0
C      1  0.5055500000000  0.4669380000000  0.5406570000000 1.0
C      1  0.5287840000000  0.5265050000000  0.4548480000000 1.0
C      1  0.4933840000000  0.5531650000000  0.5179160000000 1.0
C      1  0.4770470000000  0.4607530000000  0.4813280000000 1.0
C      1  0.5272300000000  0.5425570000000  0.4801400000000 1.0
C      1  0.5074070000000  0.4434470000000  0.5225660000000 1.0
C      1  0.5648840000000  0.4912290000000  0.5160380000000 1.0
C      1  0.5920530000000  0.5183090000000  0.4767280000000 1.0
C      1  0.4360500000000  0.5077360000000  0.5164810000000 1.0
C      1  0.4144110000000  0.4696240000000  0.4822580000000 1.0
C      1  0.5369710000000  0.5005160000000  0.5147550000000 1.0
C      1  0.4649090000000  0.5010800000000  0.5157040000000 1.0
C      1  0.4938510000000  0.5119800000000  0.4792570000000 1.0
END
