TITL C-3201379-3821-1729 744.22882246761 125000 -397.370745818034 0 0 66 (C1) n - 1
REM
REM in /home/nfs/bkarasulu/CARBON/AIRSS/Generating-Clusters/LCBOP/Higher-Symm/SD-CG/FIRE-CG
REM
REM
REM
REM
REM
REM ./C.cell (b20cbc046b6831c77cfcea5457e17084)
REM AIRSS Version 0.9.1 bugfix July 2018 build 013d7b7c2542+ Fri, 06 Jul 2018 19:26:36 +0100
REM compiler GCC version 9.2.1 20190827 (Red Hat 9.2.1-1)
REM options -cpp -mtune=generic -march=x86-64 -g -O0 -fpre-include=/usr/include/finclude/math-vector-fortran.h
REM seed 2071018518 1708810056 -252468432 -1944515417 252286731 -811046053 -1440769686 172653214 -1216816827 -1541338247 -1025745650 1368107281 1418415789 -1748335521 323265344 -695835290 -1723454876 611174367 -390415423 712884939 -209459984 -100677406 -29812532 1225646395 451236392 612375295 -1966074805 250678042 1253851251 2141932824 1485971136 -1632068497 295624156
REM
CELL 1.54180   50.00000   50.00000   50.00000   90.00000   90.00000   90.00000
LATT -1
SFAC C  
C      1  0.4943950000000  0.5414270000000  0.4490020000000 1.0
C      1  0.5437130000000  0.5358870000000  0.4756540000000 1.0
C      1  0.5283610000000  0.5489430000000  0.5356110000000 1.0
C      1  0.4636930000000  0.5339160000000  0.5429990000000 1.0
C      1  0.4474300000000  0.5397920000000  0.4914910000000 1.0
C      1  0.4589670000000  0.5144590000000  0.4990850000000 1.0
C      1  0.4815180000000  0.5199950000000  0.4623400000000 1.0
C      1  0.5239460000000  0.5145930000000  0.4756680000000 1.0
C      1  0.5260310000000  0.5260800000000  0.5189100000000 1.0
C      1  0.4858340000000  0.5184480000000  0.5338880000000 1.0
C      1  0.5368480000000  0.5739220000000  0.5268610000000 1.0
C      1  0.4618190000000  0.5598310000000  0.5313610000000 1.0
C      1  0.4643690000000  0.5602390000000  0.5029350000000 1.0
C      1  0.5037290000000  0.5609540000000  0.4683090000000 1.0
C      1  0.5322320000000  0.5611510000000  0.4699620000000 1.0
C      1  0.5457620000000  0.4910830000000  0.6000910000000 1.0
C      1  0.4505350000000  0.4489890000000  0.5567770000000 1.0
C      1  0.3946460000000  0.4885200000000  0.4449150000000 1.0
C      1  0.5055640000000  0.4716150000000  0.3954350000000 1.0
C      1  0.5918350000000  0.4644210000000  0.4946400000000 1.0
C      1  0.4999980000000  0.4552210000000  0.5495450000000 1.0
C      1  0.4105880000000  0.4653800000000  0.4854860000000 1.0
C      1  0.4663120000000  0.4639490000000  0.4252010000000 1.0
C      1  0.5538470000000  0.4525450000000  0.4647400000000 1.0
C      1  0.5598050000000  0.4733110000000  0.5566640000000 1.0
C      1  0.5895340000000  0.4887050000000  0.5057170000000 1.0
C      1  0.5252450000000  0.5079810000000  0.5959180000000 1.0
C      1  0.4340510000000  0.4691050000000  0.5504130000000 1.0
C      1  0.4124240000000  0.5071460000000  0.4372940000000 1.0
C      1  0.5220470000000  0.4904370000000  0.4050370000000 1.0
C      1  0.5701470000000  0.5088210000000  0.5068170000000 1.0
C      1  0.5133860000000  0.5198530000000  0.5734270000000 1.0
C      1  0.4361950000000  0.4932670000000  0.5364210000000 1.0
C      1  0.4350430000000  0.5189370000000  0.4488750000000 1.0
C      1  0.5220800000000  0.5070540000000  0.4275480000000 1.0
C      1  0.5227950000000  0.5444760000000  0.5631090000000 1.0
C      1  0.4411630000000  0.5180020000000  0.5495660000000 1.0
C      1  0.4321210000000  0.5397390000000  0.4680220000000 1.0
C      1  0.5099080000000  0.5327940000000  0.4269860000000 1.0
C      1  0.5684190000000  0.5291990000000  0.4872100000000 1.0
C      1  0.4613260000000  0.4766250000000  0.4496060000000 1.0
C      1  0.5350540000000  0.4700690000000  0.4577350000000 1.0
C      1  0.5406260000000  0.4829200000000  0.5383210000000 1.0
C      1  0.5132720000000  0.4794270000000  0.5459300000000 1.0
C      1  0.4374180000000  0.4713120000000  0.4914830000000 1.0
C      1  0.4825570000000  0.4611140000000  0.4042290000000 1.0
C      1  0.5766730000000  0.4495490000000  0.4783160000000 1.0
C      1  0.5612470000000  0.4766900000000  0.5833870000000 1.0
C      1  0.4766690000000  0.4435730000000  0.5552000000000 1.0
C      1  0.3934630000000  0.4716410000000  0.4657810000000 1.0
C      1  0.5456650000000  0.5052260000000  0.5212390000000 1.0
C      1  0.5006650000000  0.5040150000000  0.5528420000000 1.0
C      1  0.4444350000000  0.4925970000000  0.5089000000000 1.0
C      1  0.4602790000000  0.5050570000000  0.4514690000000 1.0
C      1  0.5260120000000  0.4962530000000  0.4541450000000 1.0
C      1  0.4736310000000  0.4400670000000  0.4802610000000 1.0
C      1  0.4955490000000  0.5213760000000  0.4980660000000 1.0
C      1  0.4903100000000  0.5570760000000  0.4927200000000 1.0
C      1  0.4574680000000  0.4617240000000  0.4736070000000 1.0
C      1  0.5591100000000  0.6464560000000  0.5047770000000 1.0
C      1  0.5345130000000  0.4025660000000  0.5130190000000 1.0
C      1  0.5128920000000  0.4110810000000  0.5002650000000 1.0
C      1  0.5519470000000  0.6226830000000  0.5127240000000 1.0
C      1  0.4923070000000  0.4234980000000  0.4891110000000 1.0
C      1  0.5445980000000  0.5984520000000  0.5205530000000 1.0
C      1  0.5562680000000  0.3963440000000  0.5259640000000 1.0
END
