TITL C-3201375-1262-1153 -2.19771460557709e-07 125000 -67.60970818498 0 0 17 (Td) n - 1
REM
REM in /home/nfs/bkarasulu/CARBON/AIRSS/Generating-Clusters/LCBOP/Higher-Symm/SD-CG/FIRE-CG
REM
REM
REM
REM
REM
REM ./C.cell (b20cbc046b6831c77cfcea5457e17084)
REM AIRSS Version 0.9.1 bugfix July 2018 build 013d7b7c2542+ Fri, 06 Jul 2018 19:26:36 +0100
REM compiler GCC version 9.2.1 20190827 (Red Hat 9.2.1-1)
REM options -cpp -mtune=generic -march=x86-64 -g -O0 -fpre-include=/usr/include/finclude/math-vector-fortran.h
REM seed -598711941 -1378658153 1434843144 -378865329 -1666971100 619554921 -158942592 721536299 -1190678985 59894854 144783590 2013071323 -903540476 -1182664784 -680263102 -760702005 -871262017 -698593528 2130185679 -1159389284 -608538345 1124435881 57193928 -1408417774 -752700386 456717430 1774499273 -1646481932 -1243300439 705633310 246267087 -1083958072 768362462
REM
CELL 1.54180   50.00000   50.00000   50.00000   90.00000   90.00000   90.00000
LATT -1
SFAC C  
C      1  0.5311160000000  0.4682640000000  0.4943070000000 1.0
C      1  0.4684370000000  0.4946910000000  0.5303150000000 1.0
C      1  0.4947130000000  0.5313620000000  0.4677830000000 1.0
C      1  0.4687080000000  0.5315170000000  0.4943080000000 1.0
C      1  0.5315360000000  0.5310950000000  0.5037900000000 1.0
C      1  0.4682820000000  0.4686860000000  0.5037920000000 1.0
C      1  0.5313820000000  0.5050850000000  0.5303180000000 1.0
C      1  0.4688350000000  0.5046880000000  0.4672840000000 1.0
C      1  0.5309890000000  0.4950900000000  0.4672870000000 1.0
C      1  0.5051060000000  0.4684150000000  0.4677830000000 1.0
C      1  0.4951120000000  0.4688120000000  0.5308140000000 1.0
C      1  0.5047110000000  0.5309640000000  0.5308150000000 1.0
C      1  0.5173180000000  0.5174560000000  0.4814720000000 1.0
C      1  0.5174780000000  0.4824810000000  0.5166260000000 1.0
C      1  0.4823440000000  0.5172960000000  0.5166270000000 1.0
C      1  0.4825030000000  0.4823220000000  0.4814730000000 1.0
C      1  0.4999110000000  0.4998890000000  0.4990490000000 1.0
END
