TITL C-3201378-2706-1697 376.307677112903 125000 -33.1743084074659 0 0 12 (C1) n - 1
REM
REM in /home/nfs/bkarasulu/CARBON/AIRSS/Generating-Clusters/LCBOP/Higher-Symm/SD-CG/FIRE-CG
REM
REM
REM
REM
REM
REM ./C.cell (b20cbc046b6831c77cfcea5457e17084)
REM AIRSS Version 0.9.1 bugfix July 2018 build 013d7b7c2542+ Fri, 06 Jul 2018 19:26:36 +0100
REM compiler GCC version 9.2.1 20190827 (Red Hat 9.2.1-1)
REM options -cpp -mtune=generic -march=x86-64 -g -O0 -fpre-include=/usr/include/finclude/math-vector-fortran.h
REM seed 901312462 -215399933 -556653469 -1473975373 -1889348462 1653009118 1647355771 -1697319433 -138934842 -1735861275 -1362905783 1830067409 -1037211746 -1282526570 211714408 -62438951 -2108115092 -70306592 1808291734 542435822 -519304736 -1327407295 -2095728600 -562296952 -797749458 628015145 -871020065 2105161719 -1855643879 144228034 -2098428756 581622683 -379470818
REM
CELL 1.54180   50.00000   50.00000   50.00000   90.00000   90.00000   90.00000
LATT -1
SFAC C  
C      1  0.5098630000000  0.4993600000000  0.4975260000000 1.0
C      1  0.5537380000000  0.5256410000000  0.5031180000000 1.0
C      1  0.5439590000000  0.5001110000000  0.4645200000000 1.0
C      1  0.5539910000000  0.4664990000000  0.4922920000000 1.0
C      1  0.5428010000000  0.4881540000000  0.5298080000000 1.0
C      1  0.4536460000000  0.5270140000000  0.4705390000000 1.0
C      1  0.4414850000000  0.5237750000000  0.5166980000000 1.0
C      1  0.4834620000000  0.5008550000000  0.4972330000000 1.0
C      1  0.4482560000000  0.4775790000000  0.5168760000000 1.0
C      1  0.4351730000000  0.4875980000000  0.4728540000000 1.0
C      1  0.4531440000000  0.5028250000000  0.4969670000000 1.0
C      1  0.5401910000000  0.4979620000000  0.4978080000000 1.0
END
