TITL C-3201373-1215-2043 0.0245546254578918 125000 -760.438749760147 0 0 124 (C1) n - 1
REM
REM in /home/nfs/bkarasulu/CARBON/AIRSS/Generating-Clusters/LCBOP/Higher-Symm/SD-CG/FIRE-CG
REM
REM
REM
REM
REM
REM ./C.cell (b20cbc046b6831c77cfcea5457e17084)
REM AIRSS Version 0.9.1 bugfix July 2018 build 013d7b7c2542+ Fri, 06 Jul 2018 19:26:36 +0100
REM compiler GCC version 9.2.1 20190827 (Red Hat 9.2.1-1)
REM options -cpp -mtune=generic -march=x86-64 -g -O0 -fpre-include=/usr/include/finclude/math-vector-fortran.h
REM seed 1702999825 588040752 1112117597 -1701433588 490778517 -1296198176 577964449 141896911 -1330469537 891969361 -1790567172 -1778398633 -1281560779 506138725 1499553936 -1886291846 -270378657 -250600922 29499213 -491279980 -822486790 -665641241 -754065572 856624214 -792073202 1583031601 -2050515123 1846871778 1891277866 1544535255 1374906918 -73230583 -2012592994
REM
CELL 1.54180   50.00000   50.00000   50.00000   90.00000   90.00000   90.00000
LATT -1
SFAC C  
C      1  0.6361610000000  0.4672420000000  0.6101610000000 1.0
C      1  0.5378290000000  0.4928800000000  0.5377590000000 1.0
C      1  0.4974380000000  0.5487200000000  0.4082340000000 1.0
C      1  0.4457800000000  0.5417110000000  0.5886960000000 1.0
C      1  0.6595000000000  0.4665810000000  0.6227070000000 1.0
C      1  0.4455480000000  0.4633060000000  0.4384020000000 1.0
C      1  0.5382940000000  0.5268820000000  0.5833890000000 1.0
C      1  0.5762480000000  0.4293170000000  0.4966770000000 1.0
C      1  0.5901860000000  0.5005440000000  0.4533750000000 1.0
C      1  0.5163830000000  0.5127550000000  0.5954230000000 1.0
C      1  0.5067180000000  0.5465620000000  0.4900390000000 1.0
C      1  0.4868190000000  0.5915100000000  0.4877020000000 1.0
C      1  0.4626370000000  0.5258660000000  0.4807560000000 1.0
C      1  0.5931280000000  0.4242590000000  0.5610190000000 1.0
C      1  0.4024360000000  0.5236240000000  0.4878050000000 1.0
C      1  0.4378480000000  0.4377130000000  0.4287520000000 1.0
C      1  0.5938760000000  0.4073480000000  0.5399700000000 1.0
C      1  0.4900010000000  0.5656600000000  0.4754650000000 1.0
C      1  0.4636940000000  0.4182850000000  0.5409680000000 1.0
C      1  0.4774000000000  0.4989920000000  0.4414670000000 1.0
C      1  0.5762430000000  0.4596250000000  0.5349460000000 1.0
C      1  0.5675700000000  0.4853050000000  0.5941410000000 1.0
C      1  0.5596420000000  0.5028760000000  0.5521630000000 1.0
C      1  0.5434540000000  0.5816280000000  0.4613160000000 1.0
C      1  0.4199150000000  0.5368180000000  0.5832690000000 1.0
C      1  0.5613180000000  0.5092190000000  0.5792920000000 1.0
C      1  0.4767980000000  0.5971890000000  0.5339160000000 1.0
C      1  0.4665410000000  0.4684290000000  0.5973940000000 1.0
C      1  0.4453680000000  0.4618640000000  0.5457860000000 1.0
C      1  0.4286270000000  0.4898610000000  0.5087230000000 1.0
C      1  0.5700480000000  0.4801260000000  0.3866950000000 1.0
C      1  0.4287360000000  0.4727170000000  0.5690790000000 1.0
C      1  0.4059430000000  0.5565730000000  0.5212100000000 1.0
C      1  0.4288050000000  0.4477130000000  0.5238500000000 1.0
C      1  0.4906310000000  0.4801550000000  0.5291880000000 1.0
C      1  0.4799180000000  0.5645910000000  0.4495990000000 1.0
C      1  0.5785290000000  0.4803300000000  0.4374490000000 1.0
C      1  0.4817790000000  0.4000410000000  0.5281700000000 1.0
C      1  0.5852570000000  0.4515470000000  0.5607380000000 1.0
C      1  0.4653940000000  0.4867200000000  0.5413480000000 1.0
C      1  0.4624510000000  0.5312940000000  0.5062610000000 1.0
C      1  0.5232190000000  0.5247170000000  0.4801680000000 1.0
C      1  0.4359090000000  0.4719190000000  0.4636620000000 1.0
C      1  0.5222200000000  0.5586170000000  0.4182790000000 1.0
C      1  0.5231990000000  0.4725490000000  0.3937710000000 1.0
C      1  0.5440910000000  0.4806790000000  0.3761630000000 1.0
C      1  0.5224020000000  0.5010230000000  0.4627300000000 1.0
C      1  0.5194540000000  0.4838480000000  0.5953720000000 1.0
C      1  0.4916910000000  0.5254850000000  0.5968860000000 1.0
C      1  0.4931420000000  0.5278370000000  0.3894060000000 1.0
C      1  0.4474690000000  0.5469950000000  0.4184040000000 1.0
C      1  0.4247740000000  0.5769350000000  0.5280590000000 1.0
C      1  0.4057190000000  0.5291080000000  0.5619090000000 1.0
C      1  0.5100880000000  0.4489380000000  0.3892450000000 1.0
C      1  0.4742070000000  0.5566900000000  0.4234250000000 1.0
C      1  0.5276310000000  0.4270170000000  0.4527430000000 1.0
C      1  0.4756960000000  0.3969140000000  0.5000320000000 1.0
C      1  0.4630930000000  0.4807750000000  0.4243220000000 1.0
C      1  0.4131480000000  0.5166940000000  0.4422740000000 1.0
C      1  0.4122290000000  0.5122330000000  0.5130690000000 1.0
C      1  0.4053450000000  0.5525480000000  0.4912590000000 1.0
C      1  0.5873000000000  0.4100630000000  0.5140310000000 1.0
C      1  0.5570910000000  0.4653310000000  0.4488570000000 1.0
C      1  0.4832900000000  0.4544370000000  0.5782080000000 1.0
C      1  0.4332720000000  0.4177210000000  0.4478800000000 1.0
C      1  0.5673210000000  0.4542010000000  0.5081970000000 1.0
C      1  0.5100580000000  0.5503280000000  0.5450830000000 1.0
C      1  0.5111110000000  0.6062210000000  0.4871900000000 1.0
C      1  0.5173160000000  0.4880780000000  0.4164300000000 1.0
C      1  0.4928490000000  0.4667930000000  0.5045620000000 1.0
C      1  0.4391140000000  0.5861660000000  0.5037200000000 1.0
C      1  0.4833690000000  0.5526020000000  0.5564750000000 1.0
C      1  0.4486100000000  0.4839410000000  0.4873610000000 1.0
C      1  0.6824560000000  0.4659290000000  0.6350460000000 1.0
C      1  0.5056180000000  0.4975430000000  0.4403270000000 1.0
C      1  0.4483950000000  0.4071600000000  0.4969880000000 1.0
C      1  0.6128490000000  0.4678480000000  0.5976050000000 1.0
C      1  0.5135110000000  0.4803200000000  0.5467970000000 1.0
C      1  0.4714980000000  0.5320780000000  0.5760110000000 1.0
C      1  0.5500070000000  0.4733380000000  0.4953350000000 1.0
C      1  0.5880460000000  0.5191010000000  0.4725580000000 1.0
C      1  0.5417100000000  0.4791890000000  0.4682760000000 1.0
C      1  0.5157930000000  0.5568550000000  0.5165460000000 1.0
C      1  0.5338160000000  0.5473010000000  0.5627350000000 1.0
C      1  0.5078120000000  0.4694890000000  0.5732010000000 1.0
C      1  0.4355010000000  0.4078490000000  0.4724440000000 1.0
C      1  0.4241230000000  0.5729760000000  0.4822110000000 1.0
C      1  0.4664670000000  0.5947870000000  0.5069810000000 1.0
C      1  0.5441370000000  0.4746690000000  0.6061050000000 1.0
C      1  0.4395990000000  0.5762470000000  0.5518910000000 1.0
C      1  0.4624540000000  0.5046000000000  0.5649180000000 1.0
C      1  0.4376590000000  0.5448580000000  0.3920000000000 1.0
C      1  0.4018410000000  0.5050170000000  0.4659480000000 1.0
C      1  0.4386720000000  0.5282470000000  0.4380650000000 1.0
C      1  0.4668580000000  0.4413390000000  0.5574510000000 1.0
C      1  0.5389670000000  0.4888320000000  0.3506270000000 1.0
C      1  0.4983610000000  0.4494970000000  0.4850110000000 1.0
C      1  0.4066060000000  0.5307120000000  0.5342210000000 1.0
C      1  0.4604670000000  0.5179990000000  0.4541410000000 1.0
C      1  0.5725160000000  0.4249380000000  0.4691840000000 1.0
C      1  0.4678400000000  0.5762600000000  0.5510680000000 1.0
C      1  0.5567170000000  0.5614160000000  0.5526260000000 1.0
C      1  0.4651690000000  0.4874480000000  0.3968530000000 1.0
C      1  0.5384540000000  0.5750910000000  0.5110250000000 1.0
C      1  0.5724460000000  0.5308170000000  0.4927570000000 1.0
C      1  0.5883090000000  0.4681260000000  0.5841320000000 1.0
C      1  0.4706060000000  0.5114630000000  0.3824650000000 1.0
C      1  0.5064270000000  0.4261620000000  0.4712350000000 1.0
C      1  0.4345550000000  0.4327560000000  0.4020980000000 1.0
C      1  0.4920280000000  0.6180670000000  0.5425770000000 1.0
C      1  0.4478980000000  0.5267170000000  0.3745610000000 1.0
C      1  0.4484550000000  0.4869620000000  0.5851890000000 1.0
C      1  0.5354240000000  0.5910350000000  0.4871290000000 1.0
C      1  0.5434380000000  0.4956780000000  0.5108780000000 1.0
C      1  0.5541050000000  0.4370180000000  0.4514990000000 1.0
C      1  0.4133000000000  0.4651540000000  0.5072130000000 1.0
C      1  0.4946110000000  0.4021720000000  0.4800910000000 1.0
C      1  0.5371350000000  0.5702610000000  0.4375950000000 1.0
C      1  0.5798420000000  0.5519730000000  0.5099320000000 1.0
C      1  0.4416590000000  0.4221090000000  0.5206900000000 1.0
C      1  0.5463100000000  0.5199890000000  0.4969740000000 1.0
C      1  0.4083090000000  0.4762030000000  0.4710500000000 1.0
C      1  0.5619070000000  0.5675110000000  0.5253300000000 1.0
C      1  0.5830000000000  0.4791100000000  0.4099410000000 1.0
END
