TITL C-3201375-1262-981 -5.82199696943455e-09 125000 -435.687866050529 0 0 74 (S4) n - 1
REM
REM in /home/nfs/bkarasulu/CARBON/AIRSS/Generating-Clusters/LCBOP/Higher-Symm/SD-CG/FIRE-CG
REM
REM
REM
REM
REM
REM ./C.cell (b20cbc046b6831c77cfcea5457e17084)
REM AIRSS Version 0.9.1 bugfix July 2018 build 013d7b7c2542+ Fri, 06 Jul 2018 19:26:36 +0100
REM compiler GCC version 9.2.1 20190827 (Red Hat 9.2.1-1)
REM options -cpp -mtune=generic -march=x86-64 -g -O0 -fpre-include=/usr/include/finclude/math-vector-fortran.h
REM seed -1530989929 -367716299 1693024599 -1108978322 1564830734 348715740 -995581579 -1770430430 1369276467 -137375859 -532627432 187165570 541811796 1231626345 -396951674 -748466901 -398950500 1159547220 2011657990 -685633009 900442040 -791703416 458863861 -1016597994 463822061 1766118984 1028721052 -680564065 1996934274 -148121733 -1206896484 1155529343 -999720192
REM
CELL 1.54180   50.00000   50.00000   50.00000   90.00000   90.00000   90.00000
LATT -1
SFAC C  
C      1  0.4661480000000  0.5723430000000  0.4571180000000 1.0
C      1  0.4280180000000  0.4652850000000  0.5428830000000 1.0
C      1  0.5350740000000  0.4271580000000  0.4571140000000 1.0
C      1  0.5732040000000  0.5342120000000  0.5428850000000 1.0
C      1  0.4915920000000  0.5311870000000  0.5172030000000 1.0
C      1  0.4691730000000  0.4907310000000  0.4827980000000 1.0
C      1  0.5096300000000  0.4683110000000  0.5172010000000 1.0
C      1  0.5320490000000  0.5087690000000  0.4827980000000 1.0
C      1  0.4703290000000  0.4340240000000  0.4987530000000 1.0
C      1  0.5663360000000  0.4694670000000  0.5012440000000 1.0
C      1  0.5308930000000  0.5654750000000  0.4987570000000 1.0
C      1  0.4348860000000  0.5300320000000  0.5012460000000 1.0
C      1  0.5749620000000  0.4905930000000  0.5176080000000 1.0
C      1  0.5097670000000  0.5741010000000  0.4823940000000 1.0
C      1  0.4262600000000  0.5089060000000  0.5176080000000 1.0
C      1  0.4914550000000  0.4253990000000  0.4823900000000 1.0
C      1  0.5621070000000  0.4830690000000  0.4497540000000 1.0
C      1  0.5172930000000  0.5612450000000  0.5502480000000 1.0
C      1  0.4391150000000  0.5164330000000  0.4497540000000 1.0
C      1  0.4839290000000  0.4382520000000  0.5502440000000 1.0
C      1  0.5021090000000  0.5275680000000  0.5836980000000 1.0
C      1  0.4727910000000  0.5012500000000  0.4163030000000 1.0
C      1  0.4991130000000  0.4719270000000  0.5836970000000 1.0
C      1  0.5284310000000  0.4982530000000  0.4163030000000 1.0
C      1  0.5276370000000  0.4487510000000  0.5271000000000 1.0
C      1  0.5516090000000  0.5267760000000  0.4728990000000 1.0
C      1  0.4735850000000  0.5507470000000  0.5271030000000 1.0
C      1  0.4496130000000  0.4727240000000  0.4728980000000 1.0
C      1  0.5586980000000  0.4353660000000  0.4705500000000 1.0
C      1  0.5649960000000  0.5578360000000  0.5294500000000 1.0
C      1  0.4425240000000  0.5641350000000  0.4705530000000 1.0
C      1  0.4362260000000  0.4416620000000  0.5294470000000 1.0
C      1  0.4881430000000  0.4817160000000  0.5255620000000 1.0
C      1  0.5186440000000  0.4872820000000  0.4744370000000 1.0
C      1  0.5130790000000  0.5177820000000  0.5255630000000 1.0
C      1  0.4825780000000  0.5122180000000  0.4744370000000 1.0
C      1  0.4572540000000  0.5237350000000  0.4271090000000 1.0
C      1  0.4766270000000  0.4563910000000  0.5728900000000 1.0
C      1  0.5439680000000  0.4757670000000  0.4271080000000 1.0
C      1  0.5245950000000  0.5431050000000  0.5728920000000 1.0
C      1  0.4798460000000  0.5442650000000  0.5750330000000 1.0
C      1  0.4560930000000  0.4789860000000  0.4249680000000 1.0
C      1  0.5213760000000  0.4552300000000  0.5750310000000 1.0
C      1  0.5451290000000  0.5205170000000  0.4249690000000 1.0
C      1  0.5604720000000  0.4240660000000  0.4975090000000 1.0
C      1  0.5762950000000  0.5596100000000  0.5024900000000 1.0
C      1  0.4407500000000  0.5754340000000  0.4975130000000 1.0
C      1  0.4249270000000  0.4398890000000  0.5024870000000 1.0
C      1  0.5630580000000  0.5089020000000  0.5353720000000 1.0
C      1  0.4914570000000  0.5621980000000  0.4646300000000 1.0
C      1  0.4381640000000  0.4905950000000  0.5353720000000 1.0
C      1  0.5097650000000  0.4373030000000  0.4646260000000 1.0
C      1  0.5350620000000  0.5076130000000  0.5365400000000 1.0
C      1  0.4927470000000  0.5342010000000  0.4634610000000 1.0
C      1  0.4661600000000  0.4918840000000  0.5365400000000 1.0
C      1  0.5084750000000  0.4653000000000  0.4634590000000 1.0
C      1  0.4349670000000  0.5349450000000  0.4716900000000 1.0
C      1  0.4654170000000  0.4341050000000  0.5283090000000 1.0
C      1  0.5662550000000  0.4645560000000  0.4716880000000 1.0
C      1  0.5358050000000  0.5653930000000  0.5283130000000 1.0
C      1  0.4482470000000  0.5531290000000  0.5145430000000 1.0
C      1  0.4472310000000  0.4473860000000  0.4854570000000 1.0
C      1  0.5529750000000  0.4463690000000  0.5145410000000 1.0
C      1  0.5539910000000  0.5521140000000  0.4854590000000 1.0
C      1  0.3998530000000  0.4327110000000  0.4952260000000 1.0
C      1  0.5676500000000  0.3989910000000  0.5047690000000 1.0
C      1  0.6013690000000  0.5667880000000  0.4952300000000 1.0
C      1  0.4335720000000  0.6005080000000  0.5047740000000 1.0
C      1  0.5609150000000  0.5138160000000  0.4488620000000 1.0
C      1  0.4865450000000  0.5600520000000  0.5511400000000 1.0
C      1  0.4403070000000  0.4856850000000  0.4488610000000 1.0
C      1  0.5146770000000  0.4394440000000  0.5511370000000 1.0
C      1  0.5006110000000  0.4997520000000  0.4113330000000 1.0
C      1  0.5006110000000  0.4997470000000  0.5886670000000 1.0
END
