TITL C-3201373-1215-1293 -2.76073145295229e-07 125000 -331.489376785305 0 0 55 (S4) n - 1
REM
REM in /home/nfs/bkarasulu/CARBON/AIRSS/Generating-Clusters/LCBOP/Higher-Symm/SD-CG/FIRE-CG
REM
REM
REM
REM
REM
REM ./C.cell (b20cbc046b6831c77cfcea5457e17084)
REM AIRSS Version 0.9.1 bugfix July 2018 build 013d7b7c2542+ Fri, 06 Jul 2018 19:26:36 +0100
REM compiler GCC version 9.2.1 20190827 (Red Hat 9.2.1-1)
REM options -cpp -mtune=generic -march=x86-64 -g -O0 -fpre-include=/usr/include/finclude/math-vector-fortran.h
REM seed -939317925 1459240860 1154013433 2094616381 359182782 -1912010186 -749998938 -1205890221 -1813831359 2137870787 1535534438 1518828667 -737921899 1609592814 1900844240 -1937631598 720899581 -2101756626 -1768511906 -1020207550 802933493 209641986 607421245 -336627050 1149829920 1622619057 77058879 739910888 298258036 701081806 1088155274 1680048684 244191692
REM
CELL 1.54180   50.00000   50.00000   50.00000   90.00000   90.00000   90.00000
LATT -1
SFAC C  
C      1  0.4516090000000  0.5501740000000  0.5485450000000 1.0
C      1  0.5470160000000  0.5488930000000  0.4499660000000 1.0
C      1  0.4515710000000  0.4503500000000  0.4512540000000 1.0
C      1  0.5470230000000  0.4516010000000  0.5497900000000 1.0
C      1  0.5573580000000  0.5625190000000  0.4278520000000 1.0
C      1  0.4412200000000  0.4282400000000  0.4376280000000 1.0
C      1  0.5573700000000  0.4379720000000  0.5718990000000 1.0
C      1  0.4412710000000  0.5722880000000  0.5621750000000 1.0
C      1  0.5113500000000  0.5649770000000  0.4888010000000 1.0
C      1  0.4872520000000  0.4891720000000  0.4351670000000 1.0
C      1  0.5113340000000  0.4355280000000  0.5109710000000 1.0
C      1  0.4872850000000  0.5113420000000  0.5646160000000 1.0
C      1  0.4695770000000  0.4570900000000  0.4964770000000 1.0
C      1  0.5290340000000  0.4968320000000  0.5430510000000 1.0
C      1  0.4695920000000  0.5434290000000  0.5033140000000 1.0
C      1  0.5290160000000  0.5036680000000  0.4567130000000 1.0
C      1  0.5322220000000  0.4371630000000  0.5302620000000 1.0
C      1  0.4664030000000  0.5306410000000  0.5629830000000 1.0
C      1  0.5322290000000  0.5633360000000  0.4695010000000 1.0
C      1  0.4663650000000  0.4698790000000  0.4368100000000 1.0
C      1  0.4213340000000  0.4572780000000  0.4892010000000 1.0
C      1  0.5772740000000  0.4895370000000  0.5428600000000 1.0
C      1  0.4213530000000  0.5432560000000  0.5106110000000 1.0
C      1  0.5772580000000  0.5109470000000  0.4568820000000 1.0
C      1  0.5513570000000  0.5203280000000  0.4520190000000 1.0
C      1  0.4472340000000  0.4524050000000  0.4798190000000 1.0
C      1  0.5513720000000  0.4801650000000  0.5477350000000 1.0
C      1  0.4472580000000  0.5481210000000  0.5199820000000 1.0
C      1  0.5179390000000  0.5607860000000  0.5167700000000 1.0
C      1  0.4806740000000  0.5171430000000  0.4393590000000 1.0
C      1  0.5179120000000  0.4397180000000  0.4829990000000 1.0
C      1  0.4806960000000  0.4833720000000  0.5604270000000 1.0
C      1  0.4900930000000  0.5315820000000  0.4619720000000 1.0
C      1  0.5085000000000  0.4623340000000  0.4685610000000 1.0
C      1  0.4901000000000  0.4689300000000  0.5378100000000 1.0
C      1  0.5085260000000  0.5381720000000  0.5312130000000 1.0
C      1  0.5961160000000  0.4956600000000  0.5251070000000 1.0
C      1  0.4025040000000  0.5255100000000  0.5044900000000 1.0
C      1  0.5961060000000  0.5048180000000  0.4746270000000 1.0
C      1  0.4024940000000  0.4750310000000  0.4953320000000 1.0
C      1  0.4851360000000  0.5532310000000  0.4804990000000 1.0
C      1  0.5134630000000  0.4808600000000  0.4469110000000 1.0
C      1  0.4851280000000  0.4472830000000  0.5192850000000 1.0
C      1  0.5134930000000  0.5196450000000  0.5528600000000 1.0
C      1  0.4314020000000  0.4074920000000  0.4252900000000 1.0
C      1  0.5671850000000  0.4256290000000  0.5926470000000 1.0
C      1  0.4314650000000  0.5930390000000  0.5745190000000 1.0
C      1  0.5671670000000  0.5748580000000  0.4071000000000 1.0
C      1  0.5105620000000  0.4854740000000  0.5242280000000 1.0
C      1  0.4880590000000  0.5245990000000  0.5146700000000 1.0
C      1  0.5105550000000  0.5150320000000  0.4755440000000 1.0
C      1  0.4880440000000  0.4759140000000  0.4851120000000 1.0
C      1  0.3954390000000  0.5002710000000  0.4999120000000 1.0
C      1  0.6031710000000  0.5002380000000  0.4998650000000 1.0
C      1  0.4993050000000  0.5002550000000  0.4998890000000 1.0
END
