TITL C-3201373-1215-1230 0.285706663849863 125000 -302.968787865055 0 0 51 (C1) n - 1
REM
REM in /home/nfs/bkarasulu/CARBON/AIRSS/Generating-Clusters/LCBOP/Higher-Symm/SD-CG/FIRE-CG
REM
REM
REM
REM
REM
REM ./C.cell (b20cbc046b6831c77cfcea5457e17084)
REM AIRSS Version 0.9.1 bugfix July 2018 build 013d7b7c2542+ Fri, 06 Jul 2018 19:26:36 +0100
REM compiler GCC version 9.2.1 20190827 (Red Hat 9.2.1-1)
REM options -cpp -mtune=generic -march=x86-64 -g -O0 -fpre-include=/usr/include/finclude/math-vector-fortran.h
REM seed -2037193926 -1201258629 1186929336 1320153747 1254131561 867700226 1651973050 1007883237 75098614 1330934486 1254791310 -316960535 1157712319 -1128694932 582340988 273034780 -1802149435 -293944426 -353992900 1546422205 811186758 -517265363 811650668 -1005808433 -1876296534 169509043 -443420200 1812160309 131704250 -1039212747 -858559907 -819325038 -1212783230
REM
CELL 1.54180   50.00000   50.00000   50.00000   90.00000   90.00000   90.00000
LATT -1
SFAC C  
C      1  0.4529230000000  0.5690710000000  0.6014410000000 1.0
C      1  0.4387880000000  0.5293630000000  0.5738480000000 1.0
C      1  0.5120880000000  0.5042890000000  0.4188750000000 1.0
C      1  0.5315120000000  0.4628190000000  0.5399060000000 1.0
C      1  0.4735100000000  0.4644450000000  0.4409210000000 1.0
C      1  0.4342010000000  0.4876270000000  0.4748000000000 1.0
C      1  0.4874870000000  0.4261440000000  0.4925890000000 1.0
C      1  0.4723910000000  0.5857120000000  0.5897500000000 1.0
C      1  0.5316060000000  0.5182530000000  0.4332330000000 1.0
C      1  0.5353540000000  0.4169670000000  0.5009790000000 1.0
C      1  0.5097430000000  0.4475870000000  0.5312790000000 1.0
C      1  0.5473280000000  0.4842170000000  0.5391620000000 1.0
C      1  0.4599440000000  0.4513440000000  0.5256160000000 1.0
C      1  0.4648470000000  0.5234990000000  0.4807270000000 1.0
C      1  0.4843800000000  0.5090820000000  0.4240350000000 1.0
C      1  0.5592670000000  0.4737420000000  0.4581880000000 1.0
C      1  0.5250730000000  0.5600020000000  0.4810460000000 1.0
C      1  0.4284910000000  0.4760300000000  0.4982460000000 1.0
C      1  0.5637850000000  0.5005470000000  0.4972010000000 1.0
C      1  0.4707070000000  0.4923200000000  0.4426490000000 1.0
C      1  0.5295420000000  0.5646520000000  0.5081940000000 1.0
C      1  0.4420710000000  0.4944070000000  0.5405160000000 1.0
C      1  0.4837020000000  0.4537220000000  0.5408150000000 1.0
C      1  0.5579340000000  0.4992250000000  0.4697350000000 1.0
C      1  0.4627730000000  0.4317690000000  0.5053110000000 1.0
C      1  0.4639960000000  0.5380010000000  0.5326920000000 1.0
C      1  0.5582210000000  0.5052630000000  0.5244050000000 1.0
C      1  0.4414430000000  0.4725860000000  0.5230120000000 1.0
C      1  0.5559780000000  0.5548430000000  0.5159540000000 1.0
C      1  0.4711570000000  0.5291520000000  0.4109410000000 1.0
C      1  0.5184170000000  0.4552050000000  0.4040340000000 1.0
C      1  0.4666720000000  0.5340160000000  0.5050930000000 1.0
C      1  0.4888280000000  0.4253960000000  0.4646630000000 1.0
C      1  0.4923860000000  0.6290130000000  0.6147430000000 1.0
C      1  0.5195800000000  0.4819650000000  0.4034880000000 1.0
C      1  0.5473140000000  0.5220690000000  0.4560360000000 1.0
C      1  0.4767230000000  0.5600200000000  0.5446250000000 1.0
C      1  0.5567440000000  0.4477130000000  0.4631740000000 1.0
C      1  0.5688800000000  0.5525020000000  0.4894170000000 1.0
C      1  0.5062260000000  0.4371640000000  0.4197790000000 1.0
C      1  0.5589930000000  0.5323370000000  0.5325980000000 1.0
C      1  0.4557080000000  0.5026030000000  0.4644120000000 1.0
C      1  0.5493680000000  0.4279320000000  0.4793180000000 1.0
C      1  0.4805620000000  0.5779250000000  0.5639920000000 1.0
C      1  0.5445630000000  0.3948600000000  0.5141260000000 1.0
C      1  0.4883660000000  0.4405740000000  0.4412330000000 1.0
C      1  0.5111130000000  0.4295520000000  0.5087770000000 1.0
C      1  0.4401110000000  0.5467780000000  0.5940040000000 1.0
C      1  0.5484570000000  0.5472150000000  0.4688870000000 1.0
C      1  0.4480380000000  0.5204260000000  0.5488860000000 1.0
C      1  0.4827060000000  0.6080540000000  0.6026480000000 1.0
END
