TITL C-3201375-1262-1726 82.7805260294385 125000 -605.769972461962 0 0 100 (C1) n - 1
REM
REM in /home/nfs/bkarasulu/CARBON/AIRSS/Generating-Clusters/LCBOP/Higher-Symm/SD-CG/FIRE-CG
REM
REM
REM
REM
REM
REM ./C.cell (b20cbc046b6831c77cfcea5457e17084)
REM AIRSS Version 0.9.1 bugfix July 2018 build 013d7b7c2542+ Fri, 06 Jul 2018 19:26:36 +0100
REM compiler GCC version 9.2.1 20190827 (Red Hat 9.2.1-1)
REM options -cpp -mtune=generic -march=x86-64 -g -O0 -fpre-include=/usr/include/finclude/math-vector-fortran.h
REM seed -604555880 -1048303946 -565216578 -213369090 -815904671 1031634487 -2055220661 1797771951 580608141 -27259182 1622023957 724053284 1253775852 -996147399 -549351711 197089079 -443922544 675483618 -1603862815 -2095975261 -1179709790 2015354736 190204379 1003249459 2091728515 -1500819799 -1768271879 -496904232 -145705167 1716332685 203415768 -982115984 1652483514
REM
CELL 1.54180   50.00000   50.00000   50.00000   90.00000   90.00000   90.00000
LATT -1
SFAC C  
C      1  0.5032510000000  0.5009320000000  0.5808640000000 1.0
C      1  0.4588430000000  0.6163250000000  0.4772450000000 1.0
C      1  0.4996590000000  0.5301880000000  0.5818960000000 1.0
C      1  0.6421580000000  0.4917380000000  0.4575840000000 1.0
C      1  0.5335780000000  0.4518140000000  0.5563830000000 1.0
C      1  0.4724880000000  0.4975710000000  0.5447320000000 1.0
C      1  0.4805000000000  0.5120330000000  0.4509910000000 1.0
C      1  0.4301180000000  0.4918460000000  0.5065510000000 1.0
C      1  0.4004840000000  0.4852850000000  0.5718460000000 1.0
C      1  0.5180480000000  0.3863010000000  0.5880210000000 1.0
C      1  0.5190050000000  0.5775420000000  0.4824860000000 1.0
C      1  0.4886810000000  0.5764410000000  0.5197110000000 1.0
C      1  0.5238800000000  0.5373470000000  0.5302870000000 1.0
C      1  0.5520380000000  0.5195640000000  0.4285250000000 1.0
C      1  0.4966840000000  0.5234950000000  0.5131200000000 1.0
C      1  0.4430240000000  0.5592770000000  0.4882600000000 1.0
C      1  0.4719320000000  0.5133620000000  0.5215450000000 1.0
C      1  0.5459690000000  0.5179980000000  0.5796090000000 1.0
C      1  0.5196670000000  0.4930100000000  0.4037130000000 1.0
C      1  0.5502750000000  0.4227650000000  0.5039140000000 1.0
C      1  0.4784850000000  0.5481230000000  0.5766460000000 1.0
C      1  0.5092770000000  0.4672630000000  0.5442380000000 1.0
C      1  0.4126990000000  0.4779050000000  0.5500420000000 1.0
C      1  0.4711930000000  0.5681380000000  0.4151630000000 1.0
C      1  0.5602690000000  0.4594390000000  0.5436980000000 1.0
C      1  0.5027110000000  0.3343530000000  0.6462220000000 1.0
C      1  0.5377880000000  0.5802520000000  0.5469000000000 1.0
C      1  0.4662020000000  0.6068580000000  0.4531190000000 1.0
C      1  0.5279220000000  0.4225480000000  0.5486790000000 1.0
C      1  0.5290780000000  0.5541520000000  0.5520690000000 1.0
C      1  0.5129440000000  0.3689830000000  0.6074190000000 1.0
C      1  0.5312230000000  0.4936900000000  0.5868740000000 1.0
C      1  0.4705520000000  0.5571170000000  0.4808330000000 1.0
C      1  0.4820950000000  0.4296260000000  0.5050990000000 1.0
C      1  0.4242650000000  0.5729010000000  0.4727240000000 1.0
C      1  0.5366270000000  0.5633550000000  0.4645800000000 1.0
C      1  0.4878910000000  0.5447470000000  0.4173960000000 1.0
C      1  0.4130910000000  0.4794080000000  0.4572120000000 1.0
C      1  0.4929130000000  0.4855950000000  0.5591350000000 1.0
C      1  0.4861960000000  0.4661110000000  0.4703800000000 1.0
C      1  0.5878060000000  0.5579360000000  0.4819750000000 1.0
C      1  0.5313370000000  0.5522970000000  0.4397070000000 1.0
C      1  0.4337050000000  0.5414500000000  0.5085320000000 1.0
C      1  0.4173180000000  0.4872390000000  0.4821590000000 1.0
C      1  0.5083100000000  0.4491800000000  0.4316710000000 1.0
C      1  0.4349650000000  0.4916610000000  0.4133880000000 1.0
C      1  0.6167430000000  0.4940380000000  0.4522590000000 1.0
C      1  0.4696540000000  0.5844820000000  0.5387260000000 1.0
C      1  0.4395240000000  0.5371780000000  0.3958400000000 1.0
C      1  0.5102480000000  0.4007900000000  0.4778850000000 1.0
C      1  0.5365430000000  0.4658690000000  0.5834590000000 1.0
C      1  0.4536560000000  0.6054680000000  0.5282870000000 1.0
C      1  0.4373970000000  0.4459170000000  0.5230710000000 1.0
C      1  0.4741230000000  0.5198220000000  0.4242120000000 1.0
C      1  0.4046030000000  0.5819520000000  0.4581980000000 1.0
C      1  0.5276310000000  0.4152870000000  0.5204900000000 1.0
C      1  0.4525540000000  0.6164010000000  0.5034670000000 1.0
C      1  0.4961900000000  0.4919310000000  0.4633700000000 1.0
C      1  0.5398290000000  0.5963940000000  0.5255090000000 1.0
C      1  0.5078300000000  0.3516690000000  0.6268180000000 1.0
C      1  0.5633000000000  0.5606970000000  0.4735400000000 1.0
C      1  0.4717590000000  0.5903520000000  0.4326050000000 1.0
C      1  0.4618040000000  0.4339110000000  0.4410960000000 1.0
C      1  0.5236270000000  0.4108680000000  0.4565890000000 1.0
C      1  0.5231050000000  0.4036680000000  0.5686770000000 1.0
C      1  0.5231650000000  0.4972140000000  0.4719110000000 1.0
C      1  0.4760820000000  0.5334900000000  0.4679400000000 1.0
C      1  0.4899180000000  0.4562280000000  0.4973740000000 1.0
C      1  0.4926480000000  0.5708730000000  0.4923380000000 1.0
C      1  0.4268790000000  0.4717840000000  0.5267630000000 1.0
C      1  0.4426110000000  0.4167520000000  0.4370590000000 1.0
C      1  0.5680640000000  0.5190860000000  0.5615210000000 1.0
C      1  0.4685720000000  0.5687380000000  0.5622260000000 1.0
C      1  0.5449110000000  0.4832980000000  0.4584890000000 1.0
C      1  0.4502290000000  0.5145400000000  0.4093690000000 1.0
C      1  0.4138350000000  0.5489470000000  0.5258010000000 1.0
C      1  0.5921940000000  0.5296210000000  0.5688310000000 1.0
C      1  0.4976750000000  0.3173230000000  0.6653070000000 1.0
C      1  0.5355100000000  0.4665260000000  0.5050840000000 1.0
C      1  0.5128130000000  0.4681310000000  0.4112700000000 1.0
C      1  0.5268380000000  0.5400440000000  0.5765610000000 1.0
C      1  0.5908480000000  0.4966130000000  0.4472940000000 1.0
C      1  0.5267930000000  0.5106390000000  0.4961410000000 1.0
C      1  0.5094760000000  0.4668850000000  0.5155010000000 1.0
C      1  0.4197390000000  0.4795440000000  0.4315060000000 1.0
C      1  0.5463950000000  0.4543090000000  0.4619870000000 1.0
C      1  0.5712160000000  0.4814690000000  0.5328800000000 1.0
C      1  0.4482830000000  0.5626860000000  0.3991790000000 1.0
C      1  0.4839850000000  0.4493840000000  0.4472250000000 1.0
C      1  0.4456700000000  0.5156840000000  0.5106420000000 1.0
C      1  0.5156100000000  0.5426490000000  0.4190260000000 1.0
C      1  0.5633660000000  0.4997850000000  0.4445400000000 1.0
C      1  0.5298090000000  0.5179880000000  0.4114650000000 1.0
C      1  0.4563650000000  0.4283570000000  0.5160140000000 1.0
C      1  0.5636350000000  0.5085350000000  0.5349300000000 1.0
C      1  0.5325010000000  0.5961580000000  0.4996080000000 1.0
C      1  0.5491980000000  0.4473390000000  0.4896510000000 1.0
C      1  0.5038810000000  0.4107920000000  0.5039300000000 1.0
C      1  0.5442190000000  0.5200650000000  0.5172380000000 1.0
C      1  0.5298030000000  0.4366700000000  0.4461590000000 1.0
END
