TITL C-3201373-1215-2085 -6.23718720629381e-08 125000 -522.430239127448 0 0 86 (C1) n - 1
REM
REM in /home/nfs/bkarasulu/CARBON/AIRSS/Generating-Clusters/LCBOP/Higher-Symm/SD-CG/FIRE-CG
REM
REM
REM
REM
REM
REM ./C.cell (b20cbc046b6831c77cfcea5457e17084)
REM AIRSS Version 0.9.1 bugfix July 2018 build 013d7b7c2542+ Fri, 06 Jul 2018 19:26:36 +0100
REM compiler GCC version 9.2.1 20190827 (Red Hat 9.2.1-1)
REM options -cpp -mtune=generic -march=x86-64 -g -O0 -fpre-include=/usr/include/finclude/math-vector-fortran.h
REM seed 572248888 -893775501 -1800598415 -416958268 280462067 1272454507 1448483998 -1252518902 700033783 -1374238009 -1928547139 1539601721 1325238439 491191685 1745833659 1831805920 617395135 1866277018 -1654222884 -2055354843 487699320 -444268619 -289486634 -304406283 663899994 -1753669290 -1925431635 -109599459 -1955613739 -871055930 -1428363340 809036999 1752995929
REM
CELL 1.54180   50.00000   50.00000   50.00000   90.00000   90.00000   90.00000
LATT -1
SFAC C  
C      1  0.5623480000000  0.4369720000000  0.4899580000000 1.0
C      1  0.5227250000000  0.5873560000000  0.4875940000000 1.0
C      1  0.4082600000000  0.4804290000000  0.4871300000000 1.0
C      1  0.4493090000000  0.4991630000000  0.4403800000000 1.0
C      1  0.5267470000000  0.4541140000000  0.4385720000000 1.0
C      1  0.5266360000000  0.5461630000000  0.4385630000000 1.0
C      1  0.5370500000000  0.4818410000000  0.4774970000000 1.0
C      1  0.5061490000000  0.5315760000000  0.4832940000000 1.0
C      1  0.4706570000000  0.4837100000000  0.4856190000000 1.0
C      1  0.4311390000000  0.4974200000000  0.5278580000000 1.0
C      1  0.5337610000000  0.4481330000000  0.5281890000000 1.0
C      1  0.5305860000000  0.5600490000000  0.5272060000000 1.0
C      1  0.4987870000000  0.4024320000000  0.5232640000000 1.0
C      1  0.5834280000000  0.5499220000000  0.5217350000000 1.0
C      1  0.4189420000000  0.5503790000000  0.5213930000000 1.0
C      1  0.4403010000000  0.4533480000000  0.5148760000000 1.0
C      1  0.5631530000000  0.4820380000000  0.5164070000000 1.0
C      1  0.4863230000000  0.5625540000000  0.5157210000000 1.0
C      1  0.5560900000000  0.4461800000000  0.4404060000000 1.0
C      1  0.5154510000000  0.5741160000000  0.4395820000000 1.0
C      1  0.4284240000000  0.4773360000000  0.4408440000000 1.0
C      1  0.5258020000000  0.5196890000000  0.5020080000000 1.0
C      1  0.4707690000000  0.5080650000000  0.5027120000000 1.0
C      1  0.4873470000000  0.4569200000000  0.5238010000000 1.0
C      1  0.4411250000000  0.4754530000000  0.5800410000000 1.0
C      1  0.5631310000000  0.4484700000000  0.5755800000000 1.0
C      1  0.5049680000000  0.5636840000000  0.5805900000000 1.0
C      1  0.4144190000000  0.4680160000000  0.4622740000000 1.0
C      1  0.5706660000000  0.4443600000000  0.4636150000000 1.0
C      1  0.5100680000000  0.5885900000000  0.4621480000000 1.0
C      1  0.5483190000000  0.5037600000000  0.4357210000000 1.0
C      1  0.4771300000000  0.5375610000000  0.4388080000000 1.0
C      1  0.4790100000000  0.4581760000000  0.4404760000000 1.0
C      1  0.4150390000000  0.5379830000000  0.5452890000000 1.0
C      1  0.5120390000000  0.4011140000000  0.5465560000000 1.0
C      1  0.5731970000000  0.5581960000000  0.5456420000000 1.0
C      1  0.5197670000000  0.4148480000000  0.4800650000000 1.0
C      1  0.5643060000000  0.5626220000000  0.4765450000000 1.0
C      1  0.4158860000000  0.5274650000000  0.4762860000000 1.0
C      1  0.5014060000000  0.4580870000000  0.4208520000000 1.0
C      1  0.5351720000000  0.5241250000000  0.4184000000000 1.0
C      1  0.4660000000000  0.5166370000000  0.4207150000000 1.0
C      1  0.5089750000000  0.4778810000000  0.5598730000000 1.0
C      1  0.5171060000000  0.5245640000000  0.5548410000000 1.0
C      1  0.4700460000000  0.5062250000000  0.5550650000000 1.0
C      1  0.4794490000000  0.5383800000000  0.4974090000000 1.0
C      1  0.4674500000000  0.4560050000000  0.5012050000000 1.0
C      1  0.5498930000000  0.5007620000000  0.4967760000000 1.0
C      1  0.4231870000000  0.4759860000000  0.5109380000000 1.0
C      1  0.5558950000000  0.4545440000000  0.5117650000000 1.0
C      1  0.5124040000000  0.5744170000000  0.5108330000000 1.0
C      1  0.5458020000000  0.5620660000000  0.5519610000000 1.0
C      1  0.4231510000000  0.5117430000000  0.5520910000000 1.0
C      1  0.5299000000000  0.4094900000000  0.5647240000000 1.0
C      1  0.5731810000000  0.4864590000000  0.5424000000000 1.0
C      1  0.4747290000000  0.5682860000000  0.5408870000000 1.0
C      1  0.4390720000000  0.4422760000000  0.5411830000000 1.0
C      1  0.5245210000000  0.5311490000000  0.5275560000000 1.0
C      1  0.4597990000000  0.5038400000000  0.5278420000000 1.0
C      1  0.5104440000000  0.4593290000000  0.5388740000000 1.0
C      1  0.3985900000000  0.5069320000000  0.4840940000000 1.0
C      1  0.5461260000000  0.4135310000000  0.4893930000000 1.0
C      1  0.5511360000000  0.5857970000000  0.4852380000000 1.0
C      1  0.5540380000000  0.5481360000000  0.4537810000000 1.0
C      1  0.4341620000000  0.5232010000000  0.4543380000000 1.0
C      1  0.5136540000000  0.4316390000000  0.4574450000000 1.0
C      1  0.4551500000000  0.5500950000000  0.4836140000000 1.0
C      1  0.4763920000000  0.4316070000000  0.4856100000000 1.0
C      1  0.5706730000000  0.5173810000000  0.4828300000000 1.0
C      1  0.5480480000000  0.4262930000000  0.5750950000000 1.0
C      1  0.5266130000000  0.5482710000000  0.5704350000000 1.0
C      1  0.4447770000000  0.5022030000000  0.5707710000000 1.0
C      1  0.4392820000000  0.4521080000000  0.5663880000000 1.0
C      1  0.5724170000000  0.4711820000000  0.5646520000000 1.0
C      1  0.4827660000000  0.5705190000000  0.5665660000000 1.0
C      1  0.4962700000000  0.4131590000000  0.4974950000000 1.0
C      1  0.5770510000000  0.5435800000000  0.4949360000000 1.0
C      1  0.4283640000000  0.5461810000000  0.4952060000000 1.0
C      1  0.5643250000000  0.5199050000000  0.4544600000000 1.0
C      1  0.4550670000000  0.5445550000000  0.4555910000000 1.0
C      1  0.4842210000000  0.4367950000000  0.4585550000000 1.0
C      1  0.5035080000000  0.5298490000000  0.4529260000000 1.0
C      1  0.4741300000000  0.4848860000000  0.4548220000000 1.0
C      1  0.5287980000000  0.4837660000000  0.4491670000000 1.0
C      1  0.5020640000000  0.4988840000000  0.4495950000000 1.0
C      1  0.4982130000000  0.5040850000000  0.5601460000000 1.0
END
