TITL C-3201372-1405-1829 -1.01359710425446e-06 125000 -217.392772013076 0 0 37 (C3) n - 1
REM
REM in /home/nfs/bkarasulu/CARBON/AIRSS/Generating-Clusters/LCBOP/Higher-Symm/SD-CG/FIRE-CG
REM
REM
REM
REM
REM
REM ./C.cell (b20cbc046b6831c77cfcea5457e17084)
REM AIRSS Version 0.9.1 bugfix July 2018 build 013d7b7c2542+ Fri, 06 Jul 2018 19:26:36 +0100
REM compiler GCC version 9.2.1 20190827 (Red Hat 9.2.1-1)
REM options -cpp -mtune=generic -march=x86-64 -g -O0 -fpre-include=/usr/include/finclude/math-vector-fortran.h
REM seed -1242793301 -1326127256 -2086252863 -2066965680 1380307484 -775969510 57608494 688317752 -1112743735 454191088 827712009 -1720751419 1270788869 1635041799 1159200931 427725312 -1570067799 -1844211368 -651181895 1496800102 1763221972 1547426393 -1600767561 -26182761 1888583225 -1600528522 -921480196 898298416 1363847292 848517273 -1343146609 1937199555 -366869197
REM
CELL 1.54180   50.00000   50.00000   50.00000   90.00000   90.00000   90.00000
LATT -1
SFAC C  
C      1  0.5011550000000  0.5566170000000  0.5311310000000 1.0
C      1  0.4506200000000  0.4746390000000  0.5311170000000 1.0
C      1  0.5468830000000  0.4718630000000  0.5311170000000 1.0
C      1  0.5308060000000  0.5281620000000  0.4516240000000 1.0
C      1  0.4604490000000  0.5145660000000  0.4516220000000 1.0
C      1  0.5074020000000  0.4604320000000  0.4516130000000 1.0
C      1  0.4621780000000  0.4861840000000  0.4570240000000 1.0
C      1  0.5311160000000  0.4761190000000  0.4570220000000 1.0
C      1  0.5053630000000  0.5408530000000  0.4570340000000 1.0
C      1  0.5130340000000  0.4465530000000  0.5069780000000 1.0
C      1  0.5400020000000  0.5399640000000  0.5069940000000 1.0
C      1  0.4456210000000  0.5166140000000  0.5069910000000 1.0
C      1  0.4853820000000  0.5254560000000  0.4420460000000 1.0
C      1  0.4855050000000  0.4765820000000  0.4420380000000 1.0
C      1  0.5277700000000  0.5011260000000  0.4420420000000 1.0
C      1  0.5261070000000  0.5817320000000  0.5717330000000 1.0
C      1  0.4163880000000  0.4836800000000  0.5717170000000 1.0
C      1  0.5561630000000  0.4376860000000  0.5717080000000 1.0
C      1  0.5137010000000  0.5697570000000  0.5521920000000 1.0
C      1  0.4329640000000  0.4789280000000  0.5521770000000 1.0
C      1  0.5519920000000  0.4544220000000  0.5521720000000 1.0
C      1  0.4559310000000  0.4742790000000  0.4818720000000 1.0
C      1  0.5445460000000  0.4766550000000  0.4818720000000 1.0
C      1  0.4981810000000  0.5522100000000  0.4818850000000 1.0
C      1  0.4481300000000  0.4886410000000  0.5058740000000 1.0
C      1  0.5360050000000  0.4627120000000  0.5058700000000 1.0
C      1  0.5145230000000  0.5517790000000  0.5058850000000 1.0
C      1  0.5543650000000  0.5161350000000  0.5098110000000 1.0
C      1  0.4590770000000  0.5409670000000  0.5098150000000 1.0
C      1  0.4852160000000  0.4460280000000  0.5097990000000 1.0
C      1  0.5599360000000  0.5001860000000  0.4870130000000 1.0
C      1  0.4701060000000  0.5537710000000  0.4870230000000 1.0
C      1  0.4686150000000  0.4491840000000  0.4870050000000 1.0
C      1  0.4742840000000  0.5474210000000  0.5328650000000 1.0
C      1  0.4720190000000  0.4559650000000  0.5328500000000 1.0
C      1  0.5523550000000  0.4997310000000  0.5328570000000 1.0
C      1  0.4995520000000  0.5010560000000  0.4319810000000 1.0
END
