TITL C-3201379-3821-1540 13.5509008853612 125000 -417.464453510855 0 0 68 (S4) n - 1
REM
REM in /home/nfs/bkarasulu/CARBON/AIRSS/Generating-Clusters/LCBOP/Higher-Symm/SD-CG/FIRE-CG
REM
REM
REM
REM
REM
REM ./C.cell (b20cbc046b6831c77cfcea5457e17084)
REM AIRSS Version 0.9.1 bugfix July 2018 build 013d7b7c2542+ Fri, 06 Jul 2018 19:26:36 +0100
REM compiler GCC version 9.2.1 20190827 (Red Hat 9.2.1-1)
REM options -cpp -mtune=generic -march=x86-64 -g -O0 -fpre-include=/usr/include/finclude/math-vector-fortran.h
REM seed 117971033 -353762049 -1167394077 1605976753 979077589 -645696606 1021445933 -749650568 1508893604 -801925940 -907160010 -672980685 -847763161 -2083305195 -1477163811 1849844213 1354046799 -1546042754 544992428 953056989 563944178 409375994 -705542053 727484714 832047982 2072782819 -974025438 -241538208 1242524265 39926082 -1595673593 1789944810 -1702710619
REM
CELL 1.54180   50.00000   50.00000   50.00000   90.00000   90.00000   90.00000
LATT -1
SFAC C  
C      1  0.5268590000000  0.5774520000000  0.4636450000000 1.0
C      1  0.4225640000000  0.5268810000000  0.5363730000000 1.0
C      1  0.4731030000000  0.4225420000000  0.4636860000000 1.0
C      1  0.5774740000000  0.4731250000000  0.5362960000000 1.0
C      1  0.5939760000000  0.4675210000000  0.5161470000000 1.0
C      1  0.5324710000000  0.5939660000000  0.4837810000000 1.0
C      1  0.4060410000000  0.5324810000000  0.5162410000000 1.0
C      1  0.4675120000000  0.4060310000000  0.4838310000000 1.0
C      1  0.4037660000000  0.5334060000000  0.4896520000000 1.0
C      1  0.4665980000000  0.4037720000000  0.5104220000000 1.0
C      1  0.5962230000000  0.4665920000000  0.4895560000000 1.0
C      1  0.5334120000000  0.5962290000000  0.5103710000000 1.0
C      1  0.5057230000000  0.4650900000000  0.6974190000000 1.0
C      1  0.5348230000000  0.5056030000000  0.3025620000000 1.0
C      1  0.4944860000000  0.5349440000000  0.6974190000000 1.0
C      1  0.4649690000000  0.4943650000000  0.3026000000000 1.0
C      1  0.4780050000000  0.4697870000000  0.3770390000000 1.0
C      1  0.5302670000000  0.4780800000000  0.6229610000000 1.0
C      1  0.5218650000000  0.5301920000000  0.3770110000000 1.0
C      1  0.4698630000000  0.5219400000000  0.6229890000000 1.0
C      1  0.4854730000000  0.5303600000000  0.4853210000000 1.0
C      1  0.4696460000000  0.4854820000000  0.5147020000000 1.0
C      1  0.5145120000000  0.4696370000000  0.4853100000000 1.0
C      1  0.5303690000000  0.5145210000000  0.5146670000000 1.0
C      1  0.5569470000000  0.4798050000000  0.4615470000000 1.0
C      1  0.5202120000000  0.5569700000000  0.5384090000000 1.0
C      1  0.4430120000000  0.5201890000000  0.4616040000000 1.0
C      1  0.4798280000000  0.4430360000000  0.5384400000000 1.0
C      1  0.4813020000000  0.4477280000000  0.4544980000000 1.0
C      1  0.5522920000000  0.4813300000000  0.5454900000000 1.0
C      1  0.5186500000000  0.5522640000000  0.4544700000000 1.0
C      1  0.4477560000000  0.5186780000000  0.5455420000000 1.0
C      1  0.4695700000000  0.4856260000000  0.4853540000000 1.0
C      1  0.5143810000000  0.4695780000000  0.5146580000000 1.0
C      1  0.5304150000000  0.5143720000000  0.4853190000000 1.0
C      1  0.4856350000000  0.5304240000000  0.5146680000000 1.0
C      1  0.4184040000000  0.5285790000000  0.4678040000000 1.0
C      1  0.4714350000000  0.4184230000000  0.5322580000000 1.0
C      1  0.5815620000000  0.4714150000000  0.4677230000000 1.0
C      1  0.5285990000000  0.5815820000000  0.5322140000000 1.0
C      1  0.5465200000000  0.4822430000000  0.5727500000000 1.0
C      1  0.5177240000000  0.5464760000000  0.4272140000000 1.0
C      1  0.4535560000000  0.5177690000000  0.5727960000000 1.0
C      1  0.4821990000000  0.4535120000000  0.4272400000000 1.0
C      1  0.5266980000000  0.5224830000000  0.3521230000000 1.0
C      1  0.4775830000000  0.5267880000000  0.6478710000000 1.0
C      1  0.4731460000000  0.4774920000000  0.3521550000000 1.0
C      1  0.5225740000000  0.4732370000000  0.6478510000000 1.0
C      1  0.4968120000000  0.4626480000000  0.7217960000000 1.0
C      1  0.5372540000000  0.4966760000000  0.2781890000000 1.0
C      1  0.5034230000000  0.5373900000000  0.7217860000000 1.0
C      1  0.4625120000000  0.5032880000000  0.2782280000000 1.0
C      1  0.5384190000000  0.4812660000000  0.5979490000000 1.0
C      1  0.5186900000000  0.5383590000000  0.4020190000000 1.0
C      1  0.4616840000000  0.5187500000000  0.5979870000000 1.0
C      1  0.4812060000000  0.4616240000000  0.4020450000000 1.0
C      1  0.5115890000000  0.5326190000000  0.4734870000000 1.0
C      1  0.4673930000000  0.5116050000000  0.5265200000000 1.0
C      1  0.4883830000000  0.4673770000000  0.4735050000000 1.0
C      1  0.5326350000000  0.4883990000000  0.5264870000000 1.0
C      1  0.5119200000000  0.5334870000000  0.5258910000000 1.0
C      1  0.4665020000000  0.5119040000000  0.4741160000000 1.0
C      1  0.4881070000000  0.4665170000000  0.5259100000000 1.0
C      1  0.5334710000000  0.4880910000000  0.4740830000000 1.0
C      1  0.5144900000000  0.4685110000000  0.6726410000000 1.0
C      1  0.5314120000000  0.5143840000000  0.3273370000000 1.0
C      1  0.4856930000000  0.5315180000000  0.6726500000000 1.0
C      1  0.4684050000000  0.4855870000000  0.3273720000000 1.0
END
