TITL C-3201376-6384-1307 2184.7784906772 125000 -939.206054309883 0 0 153 (C1) n - 1
REM
REM in /home/nfs/bkarasulu/CARBON/AIRSS/Generating-Clusters/LCBOP/Higher-Symm/SD-CG/FIRE-CG
REM
REM
REM
REM
REM
REM ./C.cell (b20cbc046b6831c77cfcea5457e17084)
REM AIRSS Version 0.9.1 bugfix July 2018 build 013d7b7c2542+ Fri, 06 Jul 2018 19:26:36 +0100
REM compiler GCC version 9.2.1 20190827 (Red Hat 9.2.1-1)
REM options -cpp -mtune=generic -march=x86-64 -g -O0 -fpre-include=/usr/include/finclude/math-vector-fortran.h
REM seed 1034819220 -1999970912 -176508587 20258899 324226839 909681775 -775107640 -2040848497 -1881943505 9486768 -1723376246 1176770446 -749206110 -1984668537 1187093620 1870665804 -1027817596 -1598880296 1198005748 262951219 941266695 -477844500 755931228 -287125291 1854244608 -324491550 830976786 -1639906325 1624905254 -646247284 -2008286615 -1343957072 -592917179
REM
CELL 1.54180   50.00000   50.00000   50.00000   90.00000   90.00000   90.00000
LATT -1
SFAC C  
C      1  0.4441130000000  0.5682780000000  0.5111250000000 1.0
C      1  0.4932840000000  0.5666060000000  0.5675200000000 1.0
C      1  0.5508330000000  0.5624250000000  0.5202370000000 1.0
C      1  0.5356060000000  0.5684270000000  0.4480300000000 1.0
C      1  0.4706310000000  0.5653310000000  0.4475360000000 1.0
C      1  0.4456960000000  0.4338860000000  0.5094170000000 1.0
C      1  0.4933580000000  0.4370990000000  0.5679520000000 1.0
C      1  0.5537700000000  0.4272580000000  0.5261890000000 1.0
C      1  0.5424520000000  0.4298110000000  0.4479960000000 1.0
C      1  0.4721600000000  0.4334430000000  0.4456930000000 1.0
C      1  0.5103570000000  0.5286690000000  0.5916190000000 1.0
C      1  0.5870400000000  0.5290750000000  0.5190630000000 1.0
C      1  0.5436440000000  0.5339720000000  0.4166960000000 1.0
C      1  0.4435930000000  0.5311090000000  0.4265960000000 1.0
C      1  0.4172910000000  0.5320380000000  0.5352570000000 1.0
C      1  0.5118910000000  0.4694170000000  0.5981280000000 1.0
C      1  0.5852750000000  0.4652720000000  0.5193100000000 1.0
C      1  0.5496260000000  0.4721970000000  0.4182260000000 1.0
C      1  0.4456680000000  0.4682890000000  0.4251280000000 1.0
C      1  0.4145370000000  0.4692700000000  0.5302080000000 1.0
C      1  0.4895970000000  0.4188570000000  0.4265300000000 1.0
C      1  0.4349100000000  0.4218770000000  0.4861310000000 1.0
C      1  0.4684250000000  0.4238780000000  0.5599790000000 1.0
C      1  0.5468200000000  0.4162880000000  0.5517510000000 1.0
C      1  0.5600600000000  0.4152850000000  0.4671780000000 1.0
C      1  0.4863900000000  0.5805440000000  0.4284330000000 1.0
C      1  0.4327760000000  0.5804480000000  0.4880320000000 1.0
C      1  0.4705290000000  0.5850630000000  0.5626270000000 1.0
C      1  0.5492740000000  0.5771730000000  0.5452190000000 1.0
C      1  0.5572110000000  0.5803600000000  0.4625430000000 1.0
C      1  0.4547600000000  0.4854270000000  0.4951190000000 1.0
C      1  0.4676960000000  0.4848950000000  0.5530020000000 1.0
C      1  0.5395670000000  0.4800490000000  0.5286550000000 1.0
C      1  0.5452680000000  0.4828620000000  0.4681490000000 1.0
C      1  0.4900340000000  0.4843100000000  0.4558420000000 1.0
C      1  0.4496440000000  0.5131090000000  0.4961840000000 1.0
C      1  0.4657600000000  0.5126990000000  0.5549920000000 1.0
C      1  0.5430850000000  0.5081590000000  0.5275150000000 1.0
C      1  0.5420870000000  0.5111950000000  0.4696420000000 1.0
C      1  0.4855000000000  0.5113400000000  0.4549240000000 1.0
C      1  0.5820540000000  0.4801600000000  0.5453740000000 1.0
C      1  0.5721310000000  0.4900210000000  0.4249180000000 1.0
C      1  0.4636500000000  0.4820540000000  0.4069410000000 1.0
C      1  0.4067110000000  0.4838940000000  0.5069090000000 1.0
C      1  0.4933630000000  0.4860560000000  0.6127830000000 1.0
C      1  0.5845020000000  0.5165240000000  0.5456000000000 1.0
C      1  0.5689080000000  0.5250020000000  0.4263490000000 1.0
C      1  0.4619560000000  0.5184660000000  0.4074270000000 1.0
C      1  0.4062330000000  0.5195020000000  0.5101160000000 1.0
C      1  0.4875710000000  0.5143050000000  0.6030380000000 1.0
C      1  0.4366060000000  0.4856080000000  0.4452030000000 1.0
C      1  0.4210050000000  0.4847190000000  0.5544750000000 1.0
C      1  0.5244500000000  0.4839890000000  0.5772730000000 1.0
C      1  0.5865400000000  0.4818570000000  0.4958570000000 1.0
C      1  0.5255910000000  0.4873620000000  0.4192440000000 1.0
C      1  0.4335920000000  0.5127590000000  0.4455180000000 1.0
C      1  0.4219490000000  0.5139630000000  0.5586730000000 1.0
C      1  0.5266610000000  0.5112620000000  0.5764790000000 1.0
C      1  0.5852780000000  0.5102150000000  0.4976750000000 1.0
C      1  0.5231950000000  0.5147730000000  0.4192220000000 1.0
C      1  0.6113460000000  0.5256710000000  0.4497360000000 1.0
C      1  0.4979620000000  0.5152890000000  0.3769000000000 1.0
C      1  0.3868300000000  0.5159950000000  0.4664050000000 1.0
C      1  0.4431630000000  0.5110650000000  0.6228350000000 1.0
C      1  0.5750700000000  0.5131020000000  0.5919550000000 1.0
C      1  0.6125430000000  0.4983440000000  0.4491180000000 1.0
C      1  0.4993980000000  0.4876340000000  0.3770450000000 1.0
C      1  0.3887920000000  0.4884760000000  0.4640690000000 1.0
C      1  0.4514810000000  0.4897960000000  0.6376730000000 1.0
C      1  0.5727090000000  0.4855740000000  0.5916220000000 1.0
C      1  0.3998840000000  0.5354860000000  0.4840600000000 1.0
C      1  0.4581630000000  0.5202730000000  0.6004010000000 1.0
C      1  0.5747190000000  0.5330310000000  0.5703990000000 1.0
C      1  0.5867730000000  0.5398740000000  0.4459140000000 1.0
C      1  0.4849560000000  0.5343660000000  0.3948670000000 1.0
C      1  0.4035590000000  0.4688650000000  0.4801100000000 1.0
C      1  0.4751820000000  0.4773130000000  0.6328450000000 1.0
C      1  0.5693150000000  0.4656640000000  0.5701780000000 1.0
C      1  0.5892550000000  0.4820170000000  0.4463220000000 1.0
C      1  0.4879150000000  0.4675780000000  0.3950380000000 1.0
C      1  0.5349010000000  0.6018020000000  0.5379790000000 1.0
C      1  0.5487130000000  0.6034800000000  0.4767480000000 1.0
C      1  0.4953780000000  0.6042000000000  0.4437030000000 1.0
C      1  0.4491650000000  0.6042850000000  0.4837670000000 1.0
C      1  0.4761340000000  0.6066680000000  0.5442200000000 1.0
C      1  0.5295080000000  0.3934070000000  0.5431370000000 1.0
C      1  0.5466050000000  0.3920400000000  0.4782940000000 1.0
C      1  0.4960830000000  0.3939020000000  0.4430290000000 1.0
C      1  0.4482130000000  0.3968640000000  0.4818890000000 1.0
C      1  0.4714030000000  0.4003440000000  0.5428130000000 1.0
C      1  0.5137700000000  0.3861050000000  0.5191130000000 1.0
C      1  0.5214120000000  0.3850470000000  0.4896910000000 1.0
C      1  0.4969630000000  0.3860230000000  0.4719180000000 1.0
C      1  0.4739080000000  0.3878130000000  0.4908300000000 1.0
C      1  0.4838200000000  0.3887180000000  0.5193240000000 1.0
C      1  0.5176260000000  0.6114660000000  0.5166750000000 1.0
C      1  0.5237890000000  0.6115220000000  0.4876550000000 1.0
C      1  0.4985360000000  0.6117840000000  0.4716050000000 1.0
C      1  0.4759330000000  0.6123790000000  0.4912320000000 1.0
C      1  0.4879030000000  0.6129690000000  0.5189560000000 1.0
C      1  0.5049980000000  0.4756400000000  0.4340720000000 1.0
C      1  0.4451860000000  0.4767860000000  0.4705570000000 1.0
C      1  0.4458240000000  0.4701180000000  0.5635560000000 1.0
C      1  0.5262240000000  0.4708090000000  0.5521320000000 1.0
C      1  0.5740600000000  0.4750490000000  0.4699080000000 1.0
C      1  0.5001530000000  0.5226510000000  0.4336640000000 1.0
C      1  0.4385980000000  0.5211720000000  0.4719090000000 1.0
C      1  0.4464960000000  0.5209240000000  0.5739850000000 1.0
C      1  0.5378320000000  0.5197000000000  0.5527020000000 1.0
C      1  0.5667840000000  0.5200310000000  0.4787420000000 1.0
C      1  0.5161500000000  0.5558010000000  0.5825530000000 1.0
C      1  0.5748240000000  0.5539400000000  0.5065340000000 1.0
C      1  0.5309210000000  0.5596020000000  0.4206890000000 1.0
C      1  0.4441100000000  0.5558830000000  0.4429850000000 1.0
C      1  0.4322430000000  0.5584720000000  0.5355610000000 1.0
C      1  0.5147900000000  0.4421740000000  0.5873630000000 1.0
C      1  0.5769150000000  0.4375740000000  0.5129020000000 1.0
C      1  0.5389120000000  0.4441470000000  0.4221680000000 1.0
C      1  0.4459250000000  0.4430640000000  0.4403940000000 1.0
C      1  0.4302800000000  0.4437020000000  0.5310010000000 1.0
C      1  0.4916430000000  0.5505780000000  0.5441050000000 1.0
C      1  0.5246050000000  0.5519900000000  0.5149810000000 1.0
C      1  0.5167110000000  0.5583960000000  0.4656450000000 1.0
C      1  0.4895450000000  0.5551850000000  0.4665620000000 1.0
C      1  0.4718610000000  0.5616420000000  0.5064890000000 1.0
C      1  0.5019030000000  0.4552380000000  0.5446430000000 1.0
C      1  0.5292210000000  0.4358650000000  0.5135270000000 1.0
C      1  0.5172890000000  0.4293570000000  0.4619110000000 1.0
C      1  0.4916920000000  0.4404680000000  0.4661800000000 1.0
C      1  0.4741260000000  0.4398830000000  0.5097770000000 1.0
C      1  0.4794930000000  0.5256200000000  0.5332090000000 1.0
C      1  0.5222830000000  0.5214860000000  0.5115480000000 1.0
C      1  0.5193720000000  0.5222550000000  0.4826850000000 1.0
C      1  0.4888900000000  0.5274630000000  0.4792050000000 1.0
C      1  0.4706000000000  0.5313670000000  0.5042430000000 1.0
C      1  0.4868270000000  0.4781860000000  0.5311490000000 1.0
C      1  0.5345120000000  0.4628930000000  0.5072450000000 1.0
C      1  0.5252100000000  0.4704710000000  0.4828870000000 1.0
C      1  0.4951770000000  0.4675130000000  0.4790870000000 1.0
C      1  0.4776470000000  0.4697760000000  0.5039020000000 1.0
C      1  0.4223890000000  0.4403060000000  0.4673950000000 1.0
C      1  0.4455040000000  0.4419880000000  0.5563720000000 1.0
C      1  0.5466380000000  0.4375460000000  0.5729910000000 1.0
C      1  0.5786940000000  0.4274120000000  0.4856130000000 1.0
C      1  0.5057510000000  0.4397570000000  0.4096600000000 1.0
C      1  0.4214340000000  0.5609140000000  0.4697210000000 1.0
C      1  0.4444810000000  0.5719360000000  0.5584750000000 1.0
C      1  0.5490810000000  0.5590360000000  0.5689170000000 1.0
C      1  0.5768330000000  0.5615270000000  0.4716480000000 1.0
C      1  0.5018380000000  0.5620320000000  0.4106410000000 1.0
C      1  0.5013300000000  0.4345530000000  0.5213760000000 1.0
C      1  0.4983970000000  0.5639590000000  0.5194410000000 1.0
C      1  0.4994250000000  0.5056900000000  0.5250830000000 1.0
END
