TITL C-3201379-3821-1059 0.000394874022164266 125000 -113.371930192307 0 0 22 (C2) n - 1
REM
REM in /home/nfs/bkarasulu/CARBON/AIRSS/Generating-Clusters/LCBOP/Higher-Symm/SD-CG/FIRE-CG
REM
REM
REM
REM
REM
REM ./C.cell (b20cbc046b6831c77cfcea5457e17084)
REM AIRSS Version 0.9.1 bugfix July 2018 build 013d7b7c2542+ Fri, 06 Jul 2018 19:26:36 +0100
REM compiler GCC version 9.2.1 20190827 (Red Hat 9.2.1-1)
REM options -cpp -mtune=generic -march=x86-64 -g -O0 -fpre-include=/usr/include/finclude/math-vector-fortran.h
REM seed 836924613 -1609495196 2014897620 1853353997 -1048922889 -823360703 -1075640774 978542660 -688010482 -1655583399 -2016580416 1941747316 2082679533 1288378631 2112088492 -1083133746 1985971209 -1213579003 -170086802 1194772432 1490038549 1664396995 161845761 1678842746 1743206372 406868480 8973626 2108502950 -1106781013 -1956449266 -1919803543 1010449550 343906631
REM
CELL 1.54180   50.00000   50.00000   50.00000   90.00000   90.00000   90.00000
LATT -1
SFAC C  
C      1  0.4530900000000  0.4589710000000  0.5274480000000 1.0
C      1  0.5469140000000  0.4589760000000  0.4725500000000 1.0
C      1  0.5165040000000  0.4699840000000  0.5330160000000 1.0
C      1  0.4834990000000  0.4699840000000  0.4669830000000 1.0
C      1  0.4793360000000  0.5505480000000  0.4701610000000 1.0
C      1  0.5206590000000  0.5505500000000  0.5298400000000 1.0
C      1  0.5773260000000  0.5170410000000  0.5020330000000 1.0
C      1  0.4226730000000  0.5170340000000  0.4979680000000 1.0
C      1  0.5358100000000  0.4671980000000  0.5502950000000 1.0
C      1  0.4641930000000  0.4671970000000  0.4497030000000 1.0
C      1  0.4494290000000  0.5198190000000  0.5029760000000 1.0
C      1  0.5505690000000  0.5198240000000  0.4970250000000 1.0
C      1  0.5345310000000  0.5355340000000  0.5136800000000 1.0
C      1  0.4654660000000  0.5355310000000  0.4863210000000 1.0
C      1  0.4967720000000  0.4748660000000  0.5138430000000 1.0
C      1  0.5032300000000  0.4748670000000  0.4861560000000 1.0
C      1  0.4700660000000  0.4798060000000  0.5222470000000 1.0
C      1  0.5299350000000  0.4798100000000  0.4777520000000 1.0
C      1  0.5360820000000  0.5195720000000  0.4507840000000 1.0
C      1  0.4639170000000  0.5195670000000  0.5492170000000 1.0
C      1  0.5387480000000  0.5066630000000  0.4747690000000 1.0
C      1  0.4612510000000  0.5066590000000  0.5252320000000 1.0
END
