TITL C-3201379-3821-1437 3.55663892607542e-05 125000 -985.967915759253 0 0 158 (C1) n - 1
REM
REM in /home/nfs/bkarasulu/CARBON/AIRSS/Generating-Clusters/LCBOP/Higher-Symm/SD-CG/FIRE-CG
REM
REM
REM
REM
REM
REM ./C.cell (b20cbc046b6831c77cfcea5457e17084)
REM AIRSS Version 0.9.1 bugfix July 2018 build 013d7b7c2542+ Fri, 06 Jul 2018 19:26:36 +0100
REM compiler GCC version 9.2.1 20190827 (Red Hat 9.2.1-1)
REM options -cpp -mtune=generic -march=x86-64 -g -O0 -fpre-include=/usr/include/finclude/math-vector-fortran.h
REM seed 1121191237 889454534 -605469879 197165150 -221535473 1004408083 1148787007 -1756621644 -189286016 1583366146 1929915641 -799393061 1682111859 -2040660326 -1953883639 1094347713 -1468748429 -1182847643 189752405 1133913324 508982299 -1593550450 1257362903 -1864264258 1460021184 -1099249436 -845208068 -1956153424 -1128890796 1596461365 1091000902 963686731 -925079477
REM
CELL 1.54180   50.00000   50.00000   50.00000   90.00000   90.00000   90.00000
LATT -1
SFAC C  
C      1  0.4597110000000  0.5349480000000  0.5957000000000 1.0
C      1  0.4337060000000  0.5279630000000  0.4124830000000 1.0
C      1  0.5985810000000  0.5244820000000  0.4861540000000 1.0
C      1  0.5018620000000  0.3981760000000  0.4602340000000 1.0
C      1  0.5417380000000  0.4068530000000  0.5253990000000 1.0
C      1  0.4650300000000  0.4043200000000  0.5244450000000 1.0
C      1  0.6095530000000  0.4804290000000  0.4393660000000 1.0
C      1  0.4899160000000  0.4813230000000  0.6276550000000 1.0
C      1  0.3946340000000  0.4769340000000  0.4262450000000 1.0
C      1  0.5783650000000  0.5730810000000  0.4452640000000 1.0
C      1  0.5049510000000  0.5842380000000  0.5939300000000 1.0
C      1  0.4161930000000  0.5827660000000  0.4467260000000 1.0
C      1  0.4973880000000  0.6113480000000  0.4671360000000 1.0
C      1  0.5303290000000  0.6171930000000  0.5033540000000 1.0
C      1  0.4824750000000  0.6155590000000  0.5140040000000 1.0
C      1  0.4875210000000  0.5428790000000  0.4563820000000 1.0
C      1  0.5393260000000  0.5516690000000  0.5133110000000 1.0
C      1  0.4630320000000  0.5551360000000  0.5284760000000 1.0
C      1  0.4719100000000  0.4955800000000  0.5720290000000 1.0
C      1  0.4499430000000  0.5019090000000  0.4478220000000 1.0
C      1  0.5632100000000  0.4906920000000  0.4840800000000 1.0
C      1  0.5119440000000  0.4418360000000  0.3901880000000 1.0
C      1  0.6102360000000  0.3784690000000  0.5429820000000 1.0
C      1  0.4118170000000  0.3753540000000  0.5712280000000 1.0
C      1  0.4600610000000  0.5624090000000  0.5855340000000 1.0
C      1  0.4444170000000  0.5548270000000  0.4151270000000 1.0
C      1  0.5930930000000  0.5526330000000  0.4895740000000 1.0
C      1  0.5454810000000  0.5689240000000  0.5757390000000 1.0
C      1  0.4099480000000  0.5688850000000  0.4914910000000 1.0
C      1  0.5334520000000  0.5712770000000  0.4258150000000 1.0
C      1  0.4273060000000  0.5049090000000  0.5283040000000 1.0
C      1  0.5052970000000  0.4935960000000  0.4352250000000 1.0
C      1  0.5510690000000  0.5011520000000  0.5428530000000 1.0
C      1  0.4510150000000  0.5993420000000  0.4734000000000 1.0
C      1  0.5473770000000  0.6036710000000  0.4615910000000 1.0
C      1  0.5115030000000  0.6032390000000  0.5512910000000 1.0
C      1  0.4738700000000  0.4491560000000  0.4263890000000 1.0
C      1  0.6023760000000  0.4018910000000  0.4947240000000 1.0
C      1  0.4560180000000  0.3973250000000  0.5937290000000 1.0
C      1  0.5261290000000  0.5138570000000  0.5364690000000 1.0
C      1  0.4432830000000  0.5177530000000  0.5072490000000 1.0
C      1  0.5215440000000  0.5079340000000  0.4560690000000 1.0
C      1  0.4720540000000  0.5544570000000  0.4079790000000 1.0
C      1  0.5893110000000  0.5581620000000  0.5173910000000 1.0
C      1  0.4368090000000  0.5673440000000  0.5692560000000 1.0
C      1  0.5059760000000  0.5778410000000  0.4305460000000 1.0
C      1  0.5607580000000  0.5920570000000  0.5296710000000 1.0
C      1  0.4417570000000  0.5975050000000  0.5336080000000 1.0
C      1  0.4261240000000  0.4377910000000  0.4252450000000 1.0
C      1  0.6054310000000  0.4330180000000  0.4577890000000 1.0
C      1  0.4833490000000  0.4318360000000  0.6140700000000 1.0
C      1  0.4337290000000  0.3852470000000  0.5857460000000 1.0
C      1  0.4861840000000  0.4440010000000  0.4016020000000 1.0
C      1  0.6091520000000  0.3892710000000  0.5170910000000 1.0
C      1  0.4432640000000  0.5706020000000  0.5420460000000 1.0
C      1  0.4886680000000  0.5548760000000  0.4305730000000 1.0
C      1  0.5626260000000  0.5645740000000  0.5237490000000 1.0
C      1  0.4969380000000  0.5024040000000  0.4093680000000 1.0
C      1  0.5769700000000  0.5110490000000  0.5476110000000 1.0
C      1  0.4123730000000  0.5160900000000  0.5494030000000 1.0
C      1  0.4657910000000  0.6112810000000  0.5369020000000 1.0
C      1  0.4895360000000  0.5984800000000  0.4426440000000 1.0
C      1  0.5573620000000  0.6084320000000  0.5073810000000 1.0
C      1  0.4761090000000  0.4039710000000  0.4649340000000 1.0
C      1  0.5482290000000  0.4136500000000  0.5002850000000 1.0
C      1  0.4819810000000  0.4057950000000  0.5453920000000 1.0
C      1  0.4665950000000  0.4556930000000  0.5038270000000 1.0
C      1  0.5097740000000  0.4582850000000  0.4887180000000 1.0
C      1  0.5082130000000  0.4473860000000  0.5316340000000 1.0
C      1  0.3920780000000  0.3612080000000  0.5837830000000 1.0
C      1  0.5177410000000  0.4508800000000  0.3651540000000 1.0
C      1  0.6323850000000  0.3649700000000  0.5515800000000 1.0
C      1  0.5056780000000  0.4532920000000  0.4618830000000 1.0
C      1  0.5317930000000  0.4568860000000  0.5440990000000 1.0
C      1  0.4407260000000  0.4576170000000  0.5173470000000 1.0
C      1  0.4954100000000  0.4127660000000  0.5698450000000 1.0
C      1  0.4529340000000  0.4204600000000  0.4629210000000 1.0
C      1  0.5612100000000  0.4200000000000  0.4757610000000 1.0
C      1  0.5687590000000  0.5982820000000  0.4824010000000 1.0
C      1  0.4818170000000  0.6022360000000  0.5595330000000 1.0
C      1  0.4603490000000  0.5936220000000  0.4442120000000 1.0
C      1  0.4751150000000  0.6109560000000  0.4866300000000 1.0
C      1  0.5241430000000  0.6142980000000  0.4750130000000 1.0
C      1  0.5105250000000  0.6136910000000  0.5233140000000 1.0
C      1  0.5656160000000  0.4733380000000  0.5072040000000 1.0
C      1  0.4665710000000  0.4873680000000  0.5463750000000 1.0
C      1  0.4660830000000  0.4824360000000  0.4589090000000 1.0
C      1  0.4883870000000  0.4692320000000  0.4441660000000 1.0
C      1  0.5516570000000  0.4739420000000  0.5325080000000 1.0
C      1  0.4402590000000  0.4793590000000  0.5358930000000 1.0
C      1  0.4824490000000  0.4975600000000  0.5250140000000 1.0
C      1  0.4653660000000  0.4786890000000  0.4861360000000 1.0
C      1  0.5189440000000  0.4840120000000  0.4961480000000 1.0
C      1  0.5537070000000  0.5208920000000  0.4166770000000 1.0
C      1  0.5414560000000  0.5198580000000  0.5945660000000 1.0
C      1  0.3944800000000  0.5184640000000  0.4858340000000 1.0
C      1  0.5317240000000  0.4704290000000  0.5904880000000 1.0
C      1  0.4063110000000  0.4686760000000  0.4836610000000 1.0
C      1  0.5549320000000  0.4699960000000  0.4242310000000 1.0
C      1  0.5897860000000  0.4180760000000  0.4755230000000 1.0
C      1  0.4790400000000  0.4134790000000  0.5933350000000 1.0
C      1  0.4510050000000  0.4352920000000  0.4380060000000 1.0
C      1  0.5880480000000  0.3818600000000  0.5598120000000 1.0
C      1  0.4105300000000  0.3802330000000  0.5436180000000 1.0
C      1  0.5312180000000  0.4295440000000  0.4068550000000 1.0
C      1  0.4787520000000  0.5133110000000  0.5929720000000 1.0
C      1  0.4269810000000  0.5120000000000  0.4352630000000 1.0
C      1  0.5834410000000  0.5059570000000  0.4708060000000 1.0
C      1  0.4661160000000  0.5014000000000  0.5020500000000 1.0
C      1  0.5361470000000  0.4947840000000  0.4767310000000 1.0
C      1  0.5097230000000  0.4975960000000  0.5197610000000 1.0
C      1  0.5852120000000  0.5747770000000  0.4732230000000 1.0
C      1  0.4786420000000  0.5840660000000  0.5830540000000 1.0
C      1  0.4388910000000  0.5783940000000  0.4301150000000 1.0
C      1  0.5253450000000  0.4034090000000  0.4458580000000 1.0
C      1  0.5417970000000  0.4046800000000  0.5538500000000 1.0
C      1  0.4408540000000  0.4045080000000  0.5090170000000 1.0
C      1  0.5531220000000  0.5860070000000  0.4395250000000 1.0
C      1  0.5251450000000  0.5882490000000  0.5733360000000 1.0
C      1  0.4236790000000  0.5869170000000  0.4746040000000 1.0
C      1  0.5655120000000  0.4966180000000  0.4262850000000 1.0
C      1  0.5252160000000  0.4971740000000  0.5989160000000 1.0
C      1  0.3996820000000  0.4942730000000  0.4717900000000 1.0
C      1  0.5195430000000  0.5417150000000  0.5336840000000 1.0
C      1  0.4537560000000  0.5438830000000  0.5027920000000 1.0
C      1  0.5145510000000  0.5342220000000  0.4646610000000 1.0
C      1  0.6100750000000  0.5630130000000  0.5344860000000 1.0
C      1  0.4124460000000  0.5740190000000  0.5796260000000 1.0
C      1  0.4808550000000  0.5583980000000  0.3824490000000 1.0
C      1  0.5234850000000  0.4204620000000  0.5699860000000 1.0
C      1  0.4356450000000  0.4229740000000  0.4866570000000 1.0
C      1  0.5460200000000  0.4240680000000  0.4519000000000 1.0
C      1  0.4987010000000  0.5013600000000  0.6097590000000 1.0
C      1  0.4036320000000  0.4974860000000  0.4432050000000 1.0
C      1  0.5882940000000  0.4982990000000  0.4438550000000 1.0
C      1  0.5246820000000  0.4034470000000  0.4170820000000 1.0
C      1  0.5634640000000  0.3907650000000  0.5648520000000 1.0
C      1  0.4197160000000  0.3900150000000  0.5206030000000 1.0
C      1  0.4488830000000  0.5125380000000  0.3932260000000 1.0
C      1  0.6103940000000  0.5128510000000  0.5096220000000 1.0
C      1  0.4326260000000  0.5246700000000  0.5957150000000 1.0
C      1  0.3983520000000  0.5444590000000  0.4919050000000 1.0
C      1  0.5420320000000  0.5454120000000  0.4160770000000 1.0
C      1  0.5487400000000  0.5442270000000  0.5860150000000 1.0
C      1  0.5313040000000  0.4490090000000  0.5719320000000 1.0
C      1  0.4226330000000  0.4484830000000  0.4958660000000 1.0
C      1  0.5469830000000  0.4430110000000  0.4281320000000 1.0
C      1  0.4737200000000  0.5500950000000  0.4815540000000 1.0
C      1  0.5231970000000  0.5500200000000  0.4882460000000 1.0
C      1  0.4928560000000  0.5538930000000  0.5271140000000 1.0
C      1  0.4747810000000  0.5043920000000  0.3940170000000 1.0
C      1  0.6005810000000  0.5098340000000  0.5346330000000 1.0
C      1  0.4149580000000  0.5189150000000  0.5760810000000 1.0
C      1  0.6143290000000  0.4548330000000  0.4454270000000 1.0
C      1  0.4849980000000  0.4550200000000  0.6270960000000 1.0
C      1  0.4048270000000  0.4529640000000  0.4199610000000 1.0
C      1  0.4929130000000  0.4473250000000  0.5084620000000 1.0
C      1  0.4967950000000  0.5592950000000  0.4981260000000 1.0
END
