TITL C-3201375-1262-1573 -1.04328350947284e-07 125000 -18.9723641415035 0 0 4 (D(inf)h) n - 1
REM
REM in /home/nfs/bkarasulu/CARBON/AIRSS/Generating-Clusters/LCBOP/Higher-Symm/SD-CG/FIRE-CG
REM
REM
REM
REM
REM
REM ./C.cell (b20cbc046b6831c77cfcea5457e17084)
REM AIRSS Version 0.9.1 bugfix July 2018 build 013d7b7c2542+ Fri, 06 Jul 2018 19:26:36 +0100
REM compiler GCC version 9.2.1 20190827 (Red Hat 9.2.1-1)
REM options -cpp -mtune=generic -march=x86-64 -g -O0 -fpre-include=/usr/include/finclude/math-vector-fortran.h
REM seed 1831001842 1044302495 -2039652884 -1302163496 -859825039 -2110024271 978280998 -819172805 -560425842 -816896774 -1093475860 -162151473 -560215216 1721523044 -1572713851 -339865943 125360825 -424080467 -1524361474 2037590430 -2077386991 1114340087 -100676166 -1482229699 -1020537298 515687941 -1944539424 -913694566 1007914439 1140225436 306205598 -1839396624 1107971991
REM
CELL 1.54180   50.00000   50.00000   50.00000   90.00000   90.00000   90.00000
LATT -1
SFAC C  
C      1  0.5393270000000  0.5005120000000  0.4947640000000 1.0
C      1  0.4606730000000  0.5005120000000  0.4947640000000 1.0
C      1  0.5132570000000  0.5005120000000  0.4947640000000 1.0
C      1  0.4867430000000  0.5005120000000  0.4947640000000 1.0
END
