TITL C-3201372-1405-182 4897335.94449047 125000 -1003.52617635663 0 0 168 (C1) n - 1
REM
REM in /home/nfs/bkarasulu/CARBON/AIRSS/Generating-Clusters/LCBOP/Higher-Symm/SD-CG/FIRE-CG
REM
REM
REM
REM
REM
REM ./C.cell (b20cbc046b6831c77cfcea5457e17084)
REM AIRSS Version 0.9.1 bugfix July 2018 build 013d7b7c2542+ Fri, 06 Jul 2018 19:26:36 +0100
REM compiler GCC version 9.2.1 20190827 (Red Hat 9.2.1-1)
REM options -cpp -mtune=generic -march=x86-64 -g -O0 -fpre-include=/usr/include/finclude/math-vector-fortran.h
REM seed 1876566019 602123679 -1537533802 1952963757 -945812683 2097833441 2080886297 -1202614256 -1577634014 1141789396 -1090844861 266013303 -475048221 -995369256 -1461758139 691671619 -506232628 845942251 -1672579114 995021083 -1236176346 -531531608 884838173 1020173063 1973275342 1390776961 -1557503169 -1584815674 -1956724316 -1744660325 1929421628 -1682054480 -656270253
REM
CELL 1.54180   50.00000   50.00000   50.00000   90.00000   90.00000   90.00000
LATT -1
SFAC C  
C      1  0.5498620000000  0.4206490000000  0.5625730000000 1.0
C      1  0.5668400000000  0.4234050000000  0.4726740000000 1.0
C      1  0.4864590000000  0.4075580000000  0.4304650000000 1.0
C      1  0.4252530000000  0.3971990000000  0.4897900000000 1.0
C      1  0.4567680000000  0.4229650000000  0.5641120000000 1.0
C      1  0.4748060000000  0.6010350000000  0.4547350000000 1.0
C      1  0.4395020000000  0.5923740000000  0.5129120000000 1.0
C      1  0.4845650000000  0.5886090000000  0.5608010000000 1.0
C      1  0.5536870000000  0.5855590000000  0.5340680000000 1.0
C      1  0.5455170000000  0.6028500000000  0.4740440000000 1.0
C      1  0.4693150000000  0.5499120000000  0.5949340000000 1.0
C      1  0.5767960000000  0.5397590000000  0.5579060000000 1.0
C      1  0.5874520000000  0.5405290000000  0.4343810000000 1.0
C      1  0.4701070000000  0.5516770000000  0.4056800000000 1.0
C      1  0.4005920000000  0.5506860000000  0.4950840000000 1.0
C      1  0.5153660000000  0.4608000000000  0.5635440000000 1.0
C      1  0.5963600000000  0.4403000000000  0.5052450000000 1.0
C      1  0.5178220000000  0.4538440000000  0.4251340000000 1.0
C      1  0.4383040000000  0.4523310000000  0.4630580000000 1.0
C      1  0.4297070000000  0.4559510000000  0.5235940000000 1.0
C      1  0.5449070000000  0.4715690000000  0.4798770000000 1.0
C      1  0.5012920000000  0.4708880000000  0.4451820000000 1.0
C      1  0.4537650000000  0.4691980000000  0.4820530000000 1.0
C      1  0.4772960000000  0.4682180000000  0.5352810000000 1.0
C      1  0.5285880000000  0.4679710000000  0.5350600000000 1.0
C      1  0.5899050000000  0.4415380000000  0.4779600000000 1.0
C      1  0.4871240000000  0.4072000000000  0.4012500000000 1.0
C      1  0.3990940000000  0.3945630000000  0.4771240000000 1.0
C      1  0.4360940000000  0.4429720000000  0.5714380000000 1.0
C      1  0.5529750000000  0.4392260000000  0.5861980000000 1.0
C      1  0.6041540000000  0.5238390000000  0.4622800000000 1.0
C      1  0.4975190000000  0.5409630000000  0.3972530000000 1.0
C      1  0.3985740000000  0.5346740000000  0.4702430000000 1.0
C      1  0.4410770000000  0.5313040000000  0.5846030000000 1.0
C      1  0.5637930000000  0.5244270000000  0.5798710000000 1.0
C      1  0.5242620000000  0.4541700000000  0.4865550000000 1.0
C      1  0.5003540000000  0.4551630000000  0.4707520000000 1.0
C      1  0.4782790000000  0.4532210000000  0.4888650000000 1.0
C      1  0.4880890000000  0.4508760000000  0.5157620000000 1.0
C      1  0.5170560000000  0.4498230000000  0.5141910000000 1.0
C      1  0.5635840000000  0.4601360000000  0.4103580000000 1.0
C      1  0.4281460000000  0.4507420000000  0.4164610000000 1.0
C      1  0.3857440000000  0.4437920000000  0.5320750000000 1.0
C      1  0.4966810000000  0.4604280000000  0.6103040000000 1.0
C      1  0.6121590000000  0.4574900000000  0.5464380000000 1.0
C      1  0.4558350000000  0.5093070000000  0.5428530000000 1.0
C      1  0.5262240000000  0.5136270000000  0.5396520000000 1.0
C      1  0.5695000000000  0.5078460000000  0.4924940000000 1.0
C      1  0.5159860000000  0.5170680000000  0.4342310000000 1.0
C      1  0.4512930000000  0.5211950000000  0.4750880000000 1.0
C      1  0.5113560000000  0.5695280000000  0.5200900000000 1.0
C      1  0.5619160000000  0.5840700000000  0.4896660000000 1.0
C      1  0.5114920000000  0.5758030000000  0.4706350000000 1.0
C      1  0.4732030000000  0.5744860000000  0.4925380000000 1.0
C      1  0.4641230000000  0.5737340000000  0.5455140000000 1.0
C      1  0.4853630000000  0.4944850000000  0.5809620000000 1.0
C      1  0.5774370000000  0.4896970000000  0.5420350000000 1.0
C      1  0.5639460000000  0.4965870000000  0.4368630000000 1.0
C      1  0.4627230000000  0.4925150000000  0.4206680000000 1.0
C      1  0.4140070000000  0.4964290000000  0.4980070000000 1.0
C      1  0.4626510000000  0.4899430000000  0.5225820000000 1.0
C      1  0.5147860000000  0.4944680000000  0.5238070000000 1.0
C      1  0.5570690000000  0.4843730000000  0.5008840000000 1.0
C      1  0.5197440000000  0.4937030000000  0.4483580000000 1.0
C      1  0.4676440000000  0.4958340000000  0.4724280000000 1.0
C      1  0.4197280000000  0.4947230000000  0.4425920000000 1.0
C      1  0.4084640000000  0.4911440000000  0.5470530000000 1.0
C      1  0.5296110000000  0.4941410000000  0.5979800000000 1.0
C      1  0.6112130000000  0.4882520000000  0.5080640000000 1.0
C      1  0.5337000000000  0.4976340000000  0.3985630000000 1.0
C      1  0.5964580000000  0.4960940000000  0.4775930000000 1.0
C      1  0.5110680000000  0.5156470000000  0.4057820000000 1.0
C      1  0.4082320000000  0.5063700000000  0.4700100000000 1.0
C      1  0.4393290000000  0.4989370000000  0.5664350000000 1.0
C      1  0.5573440000000  0.4959920000000  0.5873690000000 1.0
C      1  0.5535090000000  0.5560510000000  0.4874080000000 1.0
C      1  0.5037810000000  0.5475900000000  0.4647630000000 1.0
C      1  0.4727840000000  0.5481840000000  0.5047230000000 1.0
C      1  0.4752570000000  0.5508250000000  0.5338700000000 1.0
C      1  0.5195970000000  0.5451360000000  0.5106460000000 1.0
C      1  0.5578020000000  0.5103040000000  0.4118410000000 1.0
C      1  0.4385490000000  0.5075230000000  0.4199040000000 1.0
C      1  0.4007690000000  0.5082250000000  0.5231040000000 1.0
C      1  0.5031680000000  0.5095670000000  0.5986090000000 1.0
C      1  0.5997730000000  0.5047220000000  0.5310290000000 1.0
C      1  0.4761390000000  0.4864150000000  0.4443720000000 1.0
C      1  0.4388970000000  0.4785280000000  0.5059720000000 1.0
C      1  0.4892000000000  0.4756320000000  0.5598300000000 1.0
C      1  0.5566950000000  0.4765500000000  0.5282760000000 1.0
C      1  0.5453930000000  0.4867010000000  0.4559550000000 1.0
C      1  0.5285450000000  0.4292490000000  0.4388490000000 1.0
C      1  0.4488060000000  0.4254990000000  0.4599890000000 1.0
C      1  0.4378240000000  0.4287980000000  0.5234030000000 1.0
C      1  0.5053170000000  0.4318690000000  0.5659860000000 1.0
C      1  0.5753690000000  0.4240750000000  0.5186430000000 1.0
C      1  0.5123130000000  0.4040300000000  0.5269710000000 1.0
C      1  0.5272650000000  0.4044010000000  0.5003970000000 1.0
C      1  0.5055910000000  0.4030340000000  0.4778580000000 1.0
C      1  0.4779950000000  0.4010070000000  0.4915640000000 1.0
C      1  0.4820830000000  0.4041380000000  0.5212940000000 1.0
C      1  0.4603400000000  0.4197580000000  0.4353490000000 1.0
C      1  0.4180870000000  0.4115420000000  0.5141100000000 1.0
C      1  0.4797500000000  0.4304660000000  0.5791220000000 1.0
C      1  0.5729600000000  0.4279700000000  0.5466750000000 1.0
C      1  0.5560690000000  0.4306800000000  0.4473180000000 1.0
C      1  0.3792760000000  0.4082940000000  0.4913460000000 1.0
C      1  0.4475940000000  0.4675320000000  0.5830850000000 1.0
C      1  0.5700850000000  0.4632530000000  0.5806830000000 1.0
C      1  0.5902890000000  0.4647540000000  0.4600090000000 1.0
C      1  0.4655410000000  0.4211560000000  0.3904060000000 1.0
C      1  0.4934140000000  0.6116230000000  0.5357180000000 1.0
C      1  0.5272790000000  0.6093950000000  0.5251270000000 1.0
C      1  0.5244840000000  0.6176140000000  0.4919040000000 1.0
C      1  0.4909470000000  0.6209440000000  0.4817920000000 1.0
C      1  0.4696830000000  0.6138820000000  0.5101960000000 1.0
C      1  0.4060210000000  0.5488530000000  0.4465100000000 1.0
C      1  0.4212060000000  0.5451550000000  0.5704960000000 1.0
C      1  0.5420340000000  0.5429040000000  0.5875220000000 1.0
C      1  0.6079040000000  0.5430230000000  0.4859060000000 1.0
C      1  0.5184710000000  0.5613050000000  0.4008750000000 1.0
C      1  0.4770770000000  0.5718140000000  0.4301540000000 1.0
C      1  0.4254100000000  0.5653120000000  0.4953210000000 1.0
C      1  0.4744470000000  0.5789430000000  0.5889800000000 1.0
C      1  0.5546120000000  0.5566720000000  0.5449750000000 1.0
C      1  0.5747930000000  0.5597530000000  0.4499440000000 1.0
C      1  0.6120500000000  0.4605820000000  0.5177700000000 1.0
C      1  0.5357440000000  0.4684430000000  0.4060880000000 1.0
C      1  0.4242730000000  0.4649850000000  0.4412990000000 1.0
C      1  0.4060450000000  0.4632830000000  0.5387750000000 1.0
C      1  0.5196200000000  0.4673500000000  0.5939790000000 1.0
C      1  0.5640810000000  0.5345720000000  0.5044870000000 1.0
C      1  0.5271900000000  0.5414380000000  0.4459970000000 1.0
C      1  0.4532880000000  0.5409660000000  0.4553810000000 1.0
C      1  0.4394280000000  0.5292230000000  0.5279860000000 1.0
C      1  0.5072510000000  0.5251520000000  0.5562690000000 1.0
C      1  0.5231530000000  0.4139780000000  0.5523920000000 1.0
C      1  0.5553270000000  0.4135830000000  0.4980940000000 1.0
C      1  0.5083210000000  0.4105340000000  0.4490360000000 1.0
C      1  0.4510920000000  0.4049860000000  0.4797920000000 1.0
C      1  0.4599790000000  0.4161800000000  0.5366300000000 1.0
C      1  0.5312140000000  0.5868960000000  0.4530560000000 1.0
C      1  0.4588920000000  0.5876140000000  0.4720770000000 1.0
C      1  0.4389230000000  0.5801210000000  0.5375890000000 1.0
C      1  0.5097160000000  0.5711380000000  0.5567680000000 1.0
C      1  0.5755680000000  0.5835250000000  0.5143100000000 1.0
C      1  0.4324010000000  0.5484700000000  0.4369770000000 1.0
C      1  0.4196150000000  0.5482610000000  0.5407510000000 1.0
C      1  0.5148510000000  0.5473050000000  0.5751140000000 1.0
C      1  0.5909110000000  0.5490190000000  0.5120240000000 1.0
C      1  0.5355450000000  0.5602140000000  0.4238530000000 1.0
C      1  0.4433450000000  0.5363460000000  0.4126840000000 1.0
C      1  0.3960220000000  0.5388040000000  0.5222900000000 1.0
C      1  0.4958040000000  0.5379390000000  0.5979220000000 1.0
C      1  0.5969370000000  0.5331020000000  0.5372210000000 1.0
C      1  0.5656070000000  0.5373800000000  0.4139700000000 1.0
C      1  0.4724100000000  0.4541440000000  0.5965380000000 1.0
C      1  0.5882350000000  0.4504070000000  0.5600920000000 1.0
C      1  0.5734810000000  0.4526990000000  0.4363000000000 1.0
C      1  0.4479470000000  0.4311460000000  0.4110500000000 1.0
C      1  0.3899430000000  0.4208200000000  0.5152800000000 1.0
C      1  0.4801590000000  0.5267320000000  0.5479910000000 1.0
C      1  0.5420720000000  0.5342900000000  0.5258070000000 1.0
C      1  0.5515990000000  0.5470660000000  0.4619840000000 1.0
C      1  0.4784730000000  0.5518340000000  0.4501580000000 1.0
C      1  0.4469160000000  0.5361830000000  0.5003330000000 1.0
C      1  0.4887920000000  0.5017390000000  0.5007360000000 1.0
C      1  0.5006250000000  0.5816700000000  0.4969770000000 1.0
C      1  0.4979540000000  0.5327370000000  0.4929970000000 1.0
END
