TITL C-3201376-6384-1978 -9.87870553355217e-07 125000 -822.158242334538 0 0 129 (D3h) n - 1
REM
REM in /home/nfs/bkarasulu/CARBON/AIRSS/Generating-Clusters/LCBOP/Higher-Symm/SD-CG/FIRE-CG
REM
REM
REM
REM
REM
REM ./C.cell (b20cbc046b6831c77cfcea5457e17084)
REM AIRSS Version 0.9.1 bugfix July 2018 build 013d7b7c2542+ Fri, 06 Jul 2018 19:26:36 +0100
REM compiler GCC version 9.2.1 20190827 (Red Hat 9.2.1-1)
REM options -cpp -mtune=generic -march=x86-64 -g -O0 -fpre-include=/usr/include/finclude/math-vector-fortran.h
REM seed -111420748 -161709651 -1598163547 596280214 -685947005 366598173 -864573775 2121701028 -1932438110 -589579706 -1063079837 -1932711846 1875416598 359196612 2133641354 -398395078 55569302 -410018200 1989669973 671820146 -1354487609 -1082763871 886102525 1048038513 1692770900 -1770535126 -585495264 2105658653 -1428383838 1994112419 -236571856 -1685641068 1312744431
REM
CELL 1.54180   50.00000   50.00000   50.00000   90.00000   90.00000   90.00000
LATT -1
SFAC C  
C      1  0.5267810000000  0.4854210000000  0.5412480000000 1.0
C      1  0.5223310000000  0.4854180000000  0.4561840000000 1.0
C      1  0.4508880000000  0.4854200000000  0.5025700000000 1.0
C      1  0.5267810000000  0.5140330000000  0.5412470000000 1.0
C      1  0.5223310000000  0.5140290000000  0.4561820000000 1.0
C      1  0.4508880000000  0.5140310000000  0.5025690000000 1.0
C      1  0.4732190000000  0.4854210000000  0.5412480000000 1.0
C      1  0.4776690000000  0.4854180000000  0.4561840000000 1.0
C      1  0.5491120000000  0.4854200000000  0.5025700000000 1.0
C      1  0.4732190000000  0.5140330000000  0.5412470000000 1.0
C      1  0.4776690000000  0.5140290000000  0.4561820000000 1.0
C      1  0.5491120000000  0.5140310000000  0.5025690000000 1.0
C      1  0.5726990000000  0.5568900000000  0.4753140000000 1.0
C      1  0.4422740000000  0.5568880000000  0.4493800000000 1.0
C      1  0.4850270000000  0.5568940000000  0.5752980000000 1.0
C      1  0.5726990000000  0.4425590000000  0.4753190000000 1.0
C      1  0.4422740000000  0.4425580000000  0.4493850000000 1.0
C      1  0.4850270000000  0.4425630000000  0.5753030000000 1.0
C      1  0.4273010000000  0.5568890000000  0.4753140000000 1.0
C      1  0.5577260000000  0.5568880000000  0.4493800000000 1.0
C      1  0.5149730000000  0.5568940000000  0.5752980000000 1.0
C      1  0.4273010000000  0.4425590000000  0.4753190000000 1.0
C      1  0.5577260000000  0.4425580000000  0.4493850000000 1.0
C      1  0.5149730000000  0.4425630000000  0.5753030000000 1.0
C      1  0.5368600000000  0.4234840000000  0.4454010000000 1.0
C      1  0.4342830000000  0.4234860000000  0.4953830000000 1.0
C      1  0.5288570000000  0.4234890000000  0.5592260000000 1.0
C      1  0.5368590000000  0.5759620000000  0.4453940000000 1.0
C      1  0.4342830000000  0.5759650000000  0.4953770000000 1.0
C      1  0.5288570000000  0.5759680000000  0.5592190000000 1.0
C      1  0.4631410000000  0.4234830000000  0.4454010000000 1.0
C      1  0.5657170000000  0.4234860000000  0.4953830000000 1.0
C      1  0.4711430000000  0.4234890000000  0.5592260000000 1.0
C      1  0.4631400000000  0.5759620000000  0.4453940000000 1.0
C      1  0.5657170000000  0.5759650000000  0.4953760000000 1.0
C      1  0.4711430000000  0.5759670000000  0.5592190000000 1.0
C      1  0.5674280000000  0.4275640000000  0.5233800000000 1.0
C      1  0.4865310000000  0.4275590000000  0.4299200000000 1.0
C      1  0.4460410000000  0.4275640000000  0.5467090000000 1.0
C      1  0.5674280000000  0.5718890000000  0.5233740000000 1.0
C      1  0.4865310000000  0.5718850000000  0.4299140000000 1.0
C      1  0.4460400000000  0.5718900000000  0.5467030000000 1.0
C      1  0.4325720000000  0.4275630000000  0.5233810000000 1.0
C      1  0.5134690000000  0.4275590000000  0.4299200000000 1.0
C      1  0.5539600000000  0.4275650000000  0.5467090000000 1.0
C      1  0.4325720000000  0.5718890000000  0.5233740000000 1.0
C      1  0.5134690000000  0.5718850000000  0.4299140000000 1.0
C      1  0.5539590000000  0.5718900000000  0.5467030000000 1.0
C      1  0.4466580000000  0.5222630000000  0.5511300000000 1.0
C      1  0.5709520000000  0.5222610000000  0.5206300000000 1.0
C      1  0.4823910000000  0.5222570000000  0.4282380000000 1.0
C      1  0.4466580000000  0.4771920000000  0.5511320000000 1.0
C      1  0.5709520000000  0.4771910000000  0.5206320000000 1.0
C      1  0.4823910000000  0.4771870000000  0.4282400000000 1.0
C      1  0.5533430000000  0.5222630000000  0.5511300000000 1.0
C      1  0.4290480000000  0.5222610000000  0.5206300000000 1.0
C      1  0.5176090000000  0.5222570000000  0.4282380000000 1.0
C      1  0.5533430000000  0.4771930000000  0.5511320000000 1.0
C      1  0.4290480000000  0.4771910000000  0.5206320000000 1.0
C      1  0.5176090000000  0.4771870000000  0.4282400000000 1.0
C      1  0.5456540000000  0.4838010000000  0.4181850000000 1.0
C      1  0.4063190000000  0.4838050000000  0.5013710000000 1.0
C      1  0.5480270000000  0.4838090000000  0.5804460000000 1.0
C      1  0.5456540000000  0.5156420000000  0.4181840000000 1.0
C      1  0.4063190000000  0.5156460000000  0.5013690000000 1.0
C      1  0.5480270000000  0.5156500000000  0.5804450000000 1.0
C      1  0.4543460000000  0.4838010000000  0.4181850000000 1.0
C      1  0.5936810000000  0.4838050000000  0.5013700000000 1.0
C      1  0.4519730000000  0.4838080000000  0.5804460000000 1.0
C      1  0.4543460000000  0.5156420000000  0.4181840000000 1.0
C      1  0.5936810000000  0.5156460000000  0.5013690000000 1.0
C      1  0.4519730000000  0.5156490000000  0.5804450000000 1.0
C      1  0.4646060000000  0.5985650000000  0.4631840000000 1.0
C      1  0.4858170000000  0.5985690000000  0.5490530000000 1.0
C      1  0.5495770000000  0.5985670000000  0.4877500000000 1.0
C      1  0.4646070000000  0.4008820000000  0.4631930000000 1.0
C      1  0.4858170000000  0.4008860000000  0.5490620000000 1.0
C      1  0.5495770000000  0.4008830000000  0.4877590000000 1.0
C      1  0.5353930000000  0.5985650000000  0.4631840000000 1.0
C      1  0.5141830000000  0.5985690000000  0.5490530000000 1.0
C      1  0.4504230000000  0.5985660000000  0.4877500000000 1.0
C      1  0.5353940000000  0.4008820000000  0.4631920000000 1.0
C      1  0.5141830000000  0.4008860000000  0.5490620000000 1.0
C      1  0.4504230000000  0.4008830000000  0.4877590000000 1.0
C      1  0.4721330000000  0.3834970000000  0.5315490000000 1.0
C      1  0.5412520000000  0.3834960000000  0.5083670000000 1.0
C      1  0.4866160000000  0.3834940000000  0.4600990000000 1.0
C      1  0.4721320000000  0.6159570000000  0.5315390000000 1.0
C      1  0.5412510000000  0.6159560000000  0.5083570000000 1.0
C      1  0.4866160000000  0.6159530000000  0.4600890000000 1.0
C      1  0.5278680000000  0.3834970000000  0.5315490000000 1.0
C      1  0.4587490000000  0.3834960000000  0.5083670000000 1.0
C      1  0.5133840000000  0.3834940000000  0.4600990000000 1.0
C      1  0.5278670000000  0.6159570000000  0.5315390000000 1.0
C      1  0.4587480000000  0.6159550000000  0.5083570000000 1.0
C      1  0.5133840000000  0.6159530000000  0.4600890000000 1.0
C      1  0.4860000000000  0.5315280000000  0.4761550000000 1.0
C      1  0.4863510000000  0.5315300000000  0.5240450000000 1.0
C      1  0.5276490000000  0.5315290000000  0.4997960000000 1.0
C      1  0.4860000000000  0.4679200000000  0.4761580000000 1.0
C      1  0.4863510000000  0.4679220000000  0.5240480000000 1.0
C      1  0.5276490000000  0.4679210000000  0.4997990000000 1.0
C      1  0.5140000000000  0.5315280000000  0.4761550000000 1.0
C      1  0.5136490000000  0.5315310000000  0.5240450000000 1.0
C      1  0.4723510000000  0.5315290000000  0.4997960000000 1.0
C      1  0.5140000000000  0.4679200000000  0.4761580000000 1.0
C      1  0.5136490000000  0.4679220000000  0.5240480000000 1.0
C      1  0.4723510000000  0.4679210000000  0.4997990000000 1.0
C      1  0.5902760000000  0.5327500000000  0.4765090000000 1.0
C      1  0.4345200000000  0.5327480000000  0.4335620000000 1.0
C      1  0.4752040000000  0.5327550000000  0.5899250000000 1.0
C      1  0.5902760000000  0.4666980000000  0.4765120000000 1.0
C      1  0.4345200000000  0.4666960000000  0.4335650000000 1.0
C      1  0.4752040000000  0.4667030000000  0.5899280000000 1.0
C      1  0.4097240000000  0.5327500000000  0.4765100000000 1.0
C      1  0.5654800000000  0.5327480000000  0.4335610000000 1.0
C      1  0.5247960000000  0.5327550000000  0.5899250000000 1.0
C      1  0.4097240000000  0.4666980000000  0.4765130000000 1.0
C      1  0.5654800000000  0.4666960000000  0.4335640000000 1.0
C      1  0.5247960000000  0.4667030000000  0.5899280000000 1.0
C      1  0.5000000000000  0.4761270000000  0.6031060000000 1.0
C      1  0.4107080000000  0.5233260000000  0.4484460000000 1.0
C      1  0.5000000000000  0.5233330000000  0.6031040000000 1.0
C      1  0.5892920000000  0.4761200000000  0.4484480000000 1.0
C      1  0.5892920000000  0.5233260000000  0.4484460000000 1.0
C      1  0.4107080000000  0.4761200000000  0.4484480000000 1.0
C      1  0.3980860000000  0.4997230000000  0.4411600000000 1.0
C      1  0.6019140000000  0.4997230000000  0.4411600000000 1.0
C      1  0.5000000000000  0.4997310000000  0.6176800000000 1.0
END
