TITL C-3201379-3821-2287 0.00379278723460589 125000 -636.582353256384 0 0 105 (C1) n - 1
REM
REM in /home/nfs/bkarasulu/CARBON/AIRSS/Generating-Clusters/LCBOP/Higher-Symm/SD-CG/FIRE-CG
REM
REM
REM
REM
REM
REM ./C.cell (b20cbc046b6831c77cfcea5457e17084)
REM AIRSS Version 0.9.1 bugfix July 2018 build 013d7b7c2542+ Fri, 06 Jul 2018 19:26:36 +0100
REM compiler GCC version 9.2.1 20190827 (Red Hat 9.2.1-1)
REM options -cpp -mtune=generic -march=x86-64 -g -O0 -fpre-include=/usr/include/finclude/math-vector-fortran.h
REM seed -1443856346 -507331956 -1273883688 -1343297594 -800166116 1106678383 -283779585 -1105634746 -1424315764 -1906103519 -898155757 1265900442 -983513677 -649403818 1812626744 -1762949848 -365954188 309512477 461371165 -1187983730 1720523877 579360785 679780024 2125915376 -1928171885 1964173418 1336827745 356900839 798346431 817512663 -1019020418 1966663839 1858614650
REM
CELL 1.54180   50.00000   50.00000   50.00000   90.00000   90.00000   90.00000
LATT -1
SFAC C  
C      1  0.5557470000000  0.4739460000000  0.4359490000000 1.0
C      1  0.4478060000000  0.5295250000000  0.4360680000000 1.0
C      1  0.5501810000000  0.5290960000000  0.5611790000000 1.0
C      1  0.4453270000000  0.4635820000000  0.5611750000000 1.0
C      1  0.5069110000000  0.5364500000000  0.3921460000000 1.0
C      1  0.4942530000000  0.4616030000000  0.3914700000000 1.0
C      1  0.5065050000000  0.4575480000000  0.6053210000000 1.0
C      1  0.4900960000000  0.5509180000000  0.6075100000000 1.0
C      1  0.4533290000000  0.5629460000000  0.4890040000000 1.0
C      1  0.5511240000000  0.4372360000000  0.4874580000000 1.0
C      1  0.4517960000000  0.4319530000000  0.5078580000000 1.0
C      1  0.5439050000000  0.5618540000000  0.5110260000000 1.0
C      1  0.5243850000000  0.4312100000000  0.5453900000000 1.0
C      1  0.4802250000000  0.5643570000000  0.5440150000000 1.0
C      1  0.5154060000000  0.5580310000000  0.4552780000000 1.0
C      1  0.4797820000000  0.4364100000000  0.4515920000000 1.0
C      1  0.4275950000000  0.5371840000000  0.4557120000000 1.0
C      1  0.5768980000000  0.4641400000000  0.4538080000000 1.0
C      1  0.4239820000000  0.4546920000000  0.5433920000000 1.0
C      1  0.5723110000000  0.5389490000000  0.5445230000000 1.0
C      1  0.5135860000000  0.5474970000000  0.5921040000000 1.0
C      1  0.4816000000000  0.4497220000000  0.5940260000000 1.0
C      1  0.5197540000000  0.4577870000000  0.4033150000000 1.0
C      1  0.4836540000000  0.5449620000000  0.4055980000000 1.0
C      1  0.5082920000000  0.4595470000000  0.6326450000000 1.0
C      1  0.4885710000000  0.5386740000000  0.6320110000000 1.0
C      1  0.5064940000000  0.5334810000000  0.3649340000000 1.0
C      1  0.4923320000000  0.4615410000000  0.3641080000000 1.0
C      1  0.5634870000000  0.4498690000000  0.5537030000000 1.0
C      1  0.4406800000000  0.5840250000000  0.5589050000000 1.0
C      1  0.5581960000000  0.5496440000000  0.4431330000000 1.0
C      1  0.4394520000000  0.4521360000000  0.4432470000000 1.0
C      1  0.4215170000000  0.4980710000000  0.5188260000000 1.0
C      1  0.5740630000000  0.5007360000000  0.5143170000000 1.0
C      1  0.4233970000000  0.4985100000000  0.4902210000000 1.0
C      1  0.5742220000000  0.5011490000000  0.4860530000000 1.0
C      1  0.5716330000000  0.4397910000000  0.4680910000000 1.0
C      1  0.4325320000000  0.5619060000000  0.4697410000000 1.0
C      1  0.5661300000000  0.5619300000000  0.5286060000000 1.0
C      1  0.4300320000000  0.4326430000000  0.5260030000000 1.0
C      1  0.4560480000000  0.5782480000000  0.5362300000000 1.0
C      1  0.5513720000000  0.4284530000000  0.5367010000000 1.0
C      1  0.4529460000000  0.4300990000000  0.4582820000000 1.0
C      1  0.5428550000000  0.5663300000000  0.4606970000000 1.0
C      1  0.4575080000000  0.4895620000000  0.5524610000000 1.0
C      1  0.5411640000000  0.4981220000000  0.5543760000000 1.0
C      1  0.4598770000000  0.5019430000000  0.4367340000000 1.0
C      1  0.5426440000000  0.5012760000000  0.4450810000000 1.0
C      1  0.5152870000000  0.4652270000000  0.4650840000000 1.0
C      1  0.4831870000000  0.5252200000000  0.4720210000000 1.0
C      1  0.5085170000000  0.5267740000000  0.5325970000000 1.0
C      1  0.4873410000000  0.4588380000000  0.5342570000000 1.0
C      1  0.4861530000000  0.4858670000000  0.5489460000000 1.0
C      1  0.5105130000000  0.5024570000000  0.5486420000000 1.0
C      1  0.4850900000000  0.5045640000000  0.4511530000000 1.0
C      1  0.5127650000000  0.4920840000000  0.4496210000000 1.0
C      1  0.4861600000000  0.4597140000000  0.4672370000000 1.0
C      1  0.5091610000000  0.5356550000000  0.4707690000000 1.0
C      1  0.4828340000000  0.5380250000000  0.5355550000000 1.0
C      1  0.5165680000000  0.4563040000000  0.5320830000000 1.0
C      1  0.4089370000000  0.4761540000000  0.5319620000000 1.0
C      1  0.5874600000000  0.5191080000000  0.5310070000000 1.0
C      1  0.4143070000000  0.5174310000000  0.4713510000000 1.0
C      1  0.5895940000000  0.4842930000000  0.4694120000000 1.0
C      1  0.5290120000000  0.5245880000000  0.4873490000000 1.0
C      1  0.4713660000000  0.4728110000000  0.4886740000000 1.0
C      1  0.5324630000000  0.4713170000000  0.5143390000000 1.0
C      1  0.4625070000000  0.5266160000000  0.5195070000000 1.0
C      1  0.5088160000000  0.5898270000000  0.4855920000000 1.0
C      1  0.4944910000000  0.4093590000000  0.4844950000000 1.0
C      1  0.5104300000000  0.4085890000000  0.5088170000000 1.0
C      1  0.4929290000000  0.5902200000000  0.5094260000000 1.0
C      1  0.5280690000000  0.5368730000000  0.5129970000000 1.0
C      1  0.4692550000000  0.4545250000000  0.5111780000000 1.0
C      1  0.5337890000000  0.4607990000000  0.4885000000000 1.0
C      1  0.4650810000000  0.5362270000000  0.4922370000000 1.0
C      1  0.5504440000000  0.4899760000000  0.5259990000000 1.0
C      1  0.4453720000000  0.5073770000000  0.5323710000000 1.0
C      1  0.5498130000000  0.5100060000000  0.4741060000000 1.0
C      1  0.4447450000000  0.4825630000000  0.4813130000000 1.0
C      1  0.4706660000000  0.4655870000000  0.4067390000000 1.0
C      1  0.5305430000000  0.5308080000000  0.4064220000000 1.0
C      1  0.4680190000000  0.5662820000000  0.5986140000000 1.0
C      1  0.5296280000000  0.4635420000000  0.5898800000000 1.0
C      1  0.4740130000000  0.5743970000000  0.4431740000000 1.0
C      1  0.5237120000000  0.4398670000000  0.4477910000000 1.0
C      1  0.4803920000000  0.4321490000000  0.5494880000000 1.0
C      1  0.5250910000000  0.5738030000000  0.5533400000000 1.0
C      1  0.4968960000000  0.5796120000000  0.4598150000000 1.0
C      1  0.5031850000000  0.4202040000000  0.4573440000000 1.0
C      1  0.5017470000000  0.4147210000000  0.5377050000000 1.0
C      1  0.5030080000000  0.5807400000000  0.5364540000000 1.0
C      1  0.5452770000000  0.4191430000000  0.5087090000000 1.0
C      1  0.4627990000000  0.5832070000000  0.5076710000000 1.0
C      1  0.5378760000000  0.5786440000000  0.4877980000000 1.0
C      1  0.4587170000000  0.4171130000000  0.4846870000000 1.0
C      1  0.4652160000000  0.4439010000000  0.5715660000000 1.0
C      1  0.5312500000000  0.5504930000000  0.5701490000000 1.0
C      1  0.4661950000000  0.5511690000000  0.4270770000000 1.0
C      1  0.5366620000000  0.4537230000000  0.4255930000000 1.0
C      1  0.5470670000000  0.5266410000000  0.4289290000000 1.0
C      1  0.4532930000000  0.4744780000000  0.4279200000000 1.0
C      1  0.5480280000000  0.4712760000000  0.5692560000000 1.0
C      1  0.4485110000000  0.5778010000000  0.5841420000000 1.0
C      1  0.4895950000000  0.4939020000000  0.4996820000000 1.0
END
