TITL C-3201377-4638-894 24638.9114422385 125000 -888.931317512932 0 0 149 (C1) n - 1
REM
REM in /home/nfs/bkarasulu/CARBON/AIRSS/Generating-Clusters/LCBOP/Higher-Symm/SD-CG/FIRE-CG
REM
REM
REM
REM
REM
REM ./C.cell (b20cbc046b6831c77cfcea5457e17084)
REM AIRSS Version 0.9.1 bugfix July 2018 build 013d7b7c2542+ Fri, 06 Jul 2018 19:26:36 +0100
REM compiler GCC version 9.2.1 20190827 (Red Hat 9.2.1-1)
REM options -cpp -mtune=generic -march=x86-64 -g -O0 -fpre-include=/usr/include/finclude/math-vector-fortran.h
REM seed 1802879385 -562484459 462692732 -1292423255 204660647 358715638 -2104078743 1048980633 -92293287 -1844368439 -365284351 778234322 -303842628 -1022542869 -429133570 1998776361 623229028 894296882 -831055316 1703172329 -1784588103 1151303618 -612049935 842389074 -1501451139 1191912182 201017153 354637510 2044262184 459490921 -1714932977 663782538 -2136493922
REM
CELL 1.54180   50.00000   50.00000   50.00000   90.00000   90.00000   90.00000
LATT -1
SFAC C  
C      1  0.4589310000000  0.4010180000000  0.5030630000000 1.0
C      1  0.4630800000000  0.5495080000000  0.4159180000000 1.0
C      1  0.4599330000000  0.5537440000000  0.5844710000000 1.0
C      1  0.5316530000000  0.6013280000000  0.4991380000000 1.0
C      1  0.5364950000000  0.4535500000000  0.4061070000000 1.0
C      1  0.5346750000000  0.4443780000000  0.5856180000000 1.0
C      1  0.4913060000000  0.5538420000000  0.4094020000000 1.0
C      1  0.4875280000000  0.5616420000000  0.5898970000000 1.0
C      1  0.4861550000000  0.3909350000000  0.5051920000000 1.0
C      1  0.5075200000000  0.4518220000000  0.4033280000000 1.0
C      1  0.5060690000000  0.4419000000000  0.5923290000000 1.0
C      1  0.5037180000000  0.6100880000000  0.5000700000000 1.0
C      1  0.4722070000000  0.4319010000000  0.4415650000000 1.0
C      1  0.4709520000000  0.5819230000000  0.4690420000000 1.0
C      1  0.4716040000000  0.4845400000000  0.5905450000000 1.0
C      1  0.5280060000000  0.5693680000000  0.4467450000000 1.0
C      1  0.5241560000000  0.4060820000000  0.4710640000000 1.0
C      1  0.5260680000000  0.5247280000000  0.5931550000000 1.0
C      1  0.6035590000000  0.4916020000000  0.5270160000000 1.0
C      1  0.6042850000000  0.4799370000000  0.4770770000000 1.0
C      1  0.6014870000000  0.5297040000000  0.4896020000000 1.0
C      1  0.3944090000000  0.5006590000000  0.5289080000000 1.0
C      1  0.3951240000000  0.5245820000000  0.4851300000000 1.0
C      1  0.3953760000000  0.4750770000000  0.4858300000000 1.0
C      1  0.4910770000000  0.4760980000000  0.3944490000000 1.0
C      1  0.4873590000000  0.6078080000000  0.5257260000000 1.0
C      1  0.4883570000000  0.4219230000000  0.5774270000000 1.0
C      1  0.5077790000000  0.5317580000000  0.3971020000000 1.0
C      1  0.5029390000000  0.3950800000000  0.5298530000000 1.0
C      1  0.5031560000000  0.5806640000000  0.5721740000000 1.0
C      1  0.4151400000000  0.4811620000000  0.5302510000000 1.0
C      1  0.4160280000000  0.4833130000000  0.4680960000000 1.0
C      1  0.4154570000000  0.5348460000000  0.5021430000000 1.0
C      1  0.5913530000000  0.5153150000000  0.5388150000000 1.0
C      1  0.5880600000000  0.5238520000000  0.4647130000000 1.0
C      1  0.5926590000000  0.4581290000000  0.4925250000000 1.0
C      1  0.4415550000000  0.4903330000000  0.5357010000000 1.0
C      1  0.4427280000000  0.4743830000000  0.4742160000000 1.0
C      1  0.4421540000000  0.5343210000000  0.4925080000000 1.0
C      1  0.5633200000000  0.5158870000000  0.5410390000000 1.0
C      1  0.5615710000000  0.5146920000000  0.4655550000000 1.0
C      1  0.5645130000000  0.4557750000000  0.4937660000000 1.0
C      1  0.5450460000000  0.5360900000000  0.5337290000000 1.0
C      1  0.5466880000000  0.4497400000000  0.5151150000000 1.0
C      1  0.5472390000000  0.5023240000000  0.4445310000000 1.0
C      1  0.4584050000000  0.4678640000000  0.5346690000000 1.0
C      1  0.4587710000000  0.5452390000000  0.5123590000000 1.0
C      1  0.4594310000000  0.4864810000000  0.4551500000000 1.0
C      1  0.4460270000000  0.5111720000000  0.4454520000000 1.0
C      1  0.4446020000000  0.5419980000000  0.5381110000000 1.0
C      1  0.4449970000000  0.4470450000000  0.5184300000000 1.0
C      1  0.5608190000000  0.4919770000000  0.4211860000000 1.0
C      1  0.5567770000000  0.4419930000000  0.5406310000000 1.0
C      1  0.5534770000000  0.5601440000000  0.5212390000000 1.0
C      1  0.5569580000000  0.5622760000000  0.5741460000000 1.0
C      1  0.5566190000000  0.3998420000000  0.5101970000000 1.0
C      1  0.5612410000000  0.5452290000000  0.4218460000000 1.0
C      1  0.4371270000000  0.4509760000000  0.5750130000000 1.0
C      1  0.4365590000000  0.5881270000000  0.5045410000000 1.0
C      1  0.4390130000000  0.4618850000000  0.4192010000000 1.0
C      1  0.4158980000000  0.5763390000000  0.5227300000000 1.0
C      1  0.4161640000000  0.4420870000000  0.5554150000000 1.0
C      1  0.4175940000000  0.4825360000000  0.4213720000000 1.0
C      1  0.5825830000000  0.4113840000000  0.5215960000000 1.0
C      1  0.5811490000000  0.5671120000000  0.5551720000000 1.0
C      1  0.5863700000000  0.5285320000000  0.4199350000000 1.0
C      1  0.4408640000000  0.5790520000000  0.4752550000000 1.0
C      1  0.4415630000000  0.4807880000000  0.5835810000000 1.0
C      1  0.4425520000000  0.4395290000000  0.4410630000000 1.0
C      1  0.5503940000000  0.3993750000000  0.4814410000000 1.0
C      1  0.5522310000000  0.5379430000000  0.5906180000000 1.0
C      1  0.5571950000000  0.5641890000000  0.4453130000000 1.0
C      1  0.5263490000000  0.4598430000000  0.4652570000000 1.0
C      1  0.5245250000000  0.5418170000000  0.4911710000000 1.0
C      1  0.5264540000000  0.4879880000000  0.5536360000000 1.0
C      1  0.4805510000000  0.5307820000000  0.4663240000000 1.0
C      1  0.4808960000000  0.4509060000000  0.4897000000000 1.0
C      1  0.4798220000000  0.5130370000000  0.5489790000000 1.0
C      1  0.5052060000000  0.5238280000000  0.5027970000000 1.0
C      1  0.5099450000000  0.4839380000000  0.5282200000000 1.0
C      1  0.5106060000000  0.4826420000000  0.4775990000000 1.0
C      1  0.5003360000000  0.4694320000000  0.5025560000000 1.0
C      1  0.4974020000000  0.5105540000000  0.5264610000000 1.0
C      1  0.4972570000000  0.5096540000000  0.4781510000000 1.0
C      1  0.5816960000000  0.5642130000000  0.5248740000000 1.0
C      1  0.5851980000000  0.4373010000000  0.5368200000000 1.0
C      1  0.5885340000000  0.4992850000000  0.4262440000000 1.0
C      1  0.4153060000000  0.4511310000000  0.5246680000000 1.0
C      1  0.4150120000000  0.5454380000000  0.5307040000000 1.0
C      1  0.4164550000000  0.5036720000000  0.4449480000000 1.0
C      1  0.4409640000000  0.5639820000000  0.4285410000000 1.0
C      1  0.4402300000000  0.5326250000000  0.5910960000000 1.0
C      1  0.4395690000000  0.4062270000000  0.4817010000000 1.0
C      1  0.5578000000000  0.4424710000000  0.4234370000000 1.0
C      1  0.5586380000000  0.4618010000000  0.5887440000000 1.0
C      1  0.5546180000000  0.5976030000000  0.4810200000000 1.0
C      1  0.4537220000000  0.4565330000000  0.4923000000000 1.0
C      1  0.4529490000000  0.5278160000000  0.4681860000000 1.0
C      1  0.4526890000000  0.5144290000000  0.5435000000000 1.0
C      1  0.5474720000000  0.5272630000000  0.4856000000000 1.0
C      1  0.5540470000000  0.4587800000000  0.4679990000000 1.0
C      1  0.5540570000000  0.4919990000000  0.5521570000000 1.0
C      1  0.5153970000000  0.5025400000000  0.5768500000000 1.0
C      1  0.5150540000000  0.4328220000000  0.4637350000000 1.0
C      1  0.5154540000000  0.5604140000000  0.4708950000000 1.0
C      1  0.4870180000000  0.5029760000000  0.5744550000000 1.0
C      1  0.4876480000000  0.5581870000000  0.4669430000000 1.0
C      1  0.4869770000000  0.4357120000000  0.4661730000000 1.0
C      1  0.4645240000000  0.4381980000000  0.5711560000000 1.0
C      1  0.4666550000000  0.4724240000000  0.4108500000000 1.0
C      1  0.4637810000000  0.5924460000000  0.5171220000000 1.0
C      1  0.5283720000000  0.5681080000000  0.5654190000000 1.0
C      1  0.5333950000000  0.5333760000000  0.4124930000000 1.0
C      1  0.5289130000000  0.4054320000000  0.5218250000000 1.0
C      1  0.4039030000000  0.5212610000000  0.5490340000000 1.0
C      1  0.4046830000000  0.4478370000000  0.4943040000000 1.0
C      1  0.4051700000000  0.5311480000000  0.4576040000000 1.0
C      1  0.5950420000000  0.4658040000000  0.5438490000000 1.0
C      1  0.5912440000000  0.5576770000000  0.4968640000000 1.0
C      1  0.5950160000000  0.4781960000000  0.4477580000000 1.0
C      1  0.4558670000000  0.5221340000000  0.4198820000000 1.0
C      1  0.4518600000000  0.5616580000000  0.5585140000000 1.0
C      1  0.4524950000000  0.4191690000000  0.5238130000000 1.0
C      1  0.5477230000000  0.4792240000000  0.4001410000000 1.0
C      1  0.5417120000000  0.4309790000000  0.5614280000000 1.0
C      1  0.5375550000000  0.5828590000000  0.5196730000000 1.0
C      1  0.4902470000000  0.4327450000000  0.4180140000000 1.0
C      1  0.4865480000000  0.6053310000000  0.4768300000000 1.0
C      1  0.4892460000000  0.4639980000000  0.6022680000000 1.0
C      1  0.5090210000000  0.5718050000000  0.4245440000000 1.0
C      1  0.5024790000000  0.3894210000000  0.4813150000000 1.0
C      1  0.5049370000000  0.5423970000000  0.6027890000000 1.0
C      1  0.5709240000000  0.5739580000000  0.4716320000000 1.0
C      1  0.5725870000000  0.4744420000000  0.5656340000000 1.0
C      1  0.5717600000000  0.4564550000000  0.4453820000000 1.0
C      1  0.4252570000000  0.4294180000000  0.4705530000000 1.0
C      1  0.4247400000000  0.5109970000000  0.5770370000000 1.0
C      1  0.4255200000000  0.5610120000000  0.4540490000000 1.0
C      1  0.5257420000000  0.5170750000000  0.4354620000000 1.0
C      1  0.5230490000000  0.5447580000000  0.5489620000000 1.0
C      1  0.5244430000000  0.4327890000000  0.5128680000000 1.0
C      1  0.4779520000000  0.4779090000000  0.4370510000000 1.0
C      1  0.4762170000000  0.4567190000000  0.5521460000000 1.0
C      1  0.4760140000000  0.5664110000000  0.5134750000000 1.0
C      1  0.4951120000000  0.6012230000000  0.5530750000000 1.0
C      1  0.4950100000000  0.4022240000000  0.5570290000000 1.0
C      1  0.4992200000000  0.5042340000000  0.3896400000000 1.0
C      1  0.3865260000000  0.4999360000000  0.4998070000000 1.0
C      1  0.6087370000000  0.5011610000000  0.4983610000000 1.0
END
