TITL C-3201378-2706-1719 3150.5329155068 125000 -1201.94179772482 0 0 194 (C1) n - 1
REM
REM in /home/nfs/bkarasulu/CARBON/AIRSS/Generating-Clusters/LCBOP/Higher-Symm/SD-CG/FIRE-CG
REM
REM
REM
REM
REM
REM ./C.cell (b20cbc046b6831c77cfcea5457e17084)
REM AIRSS Version 0.9.1 bugfix July 2018 build 013d7b7c2542+ Fri, 06 Jul 2018 19:26:36 +0100
REM compiler GCC version 9.2.1 20190827 (Red Hat 9.2.1-1)
REM options -cpp -mtune=generic -march=x86-64 -g -O0 -fpre-include=/usr/include/finclude/math-vector-fortran.h
REM seed -180082343 428323083 -2030469143 -1392507014 1022440783 1994774636 1439989532 256189199 -214485928 -988628505 -1643911507 -1378419153 1117083015 -11883595 -1186985312 -1246239679 -1874955068 2126528965 -2065411128 -508346363 -2059599953 -25798945 -569638419 -1271396137 -345713752 1983665463 2058177782 577578965 -1958773540 545973696 1169699721 -372268186 -1379121767
REM
CELL 1.54180   50.00000   50.00000   50.00000   90.00000   90.00000   90.00000
LATT -1
SFAC C  
C      1  0.3893520000000  0.5478290000000  0.4387690000000 1.0
C      1  0.5023240000000  0.5472960000000  0.6266630000000 1.0
C      1  0.6077840000000  0.5479000000000  0.4349140000000 1.0
C      1  0.3892840000000  0.4542480000000  0.5607680000000 1.0
C      1  0.5021450000000  0.4533190000000  0.3736570000000 1.0
C      1  0.6083420000000  0.4531440000000  0.5654170000000 1.0
C      1  0.3980970000000  0.5072620000000  0.4879730000000 1.0
C      1  0.5401860000000  0.5071620000000  0.5950930000000 1.0
C      1  0.5611600000000  0.5078260000000  0.4177170000000 1.0
C      1  0.3995100000000  0.4938230000000  0.5122680000000 1.0
C      1  0.5401410000000  0.4940050000000  0.4054990000000 1.0
C      1  0.5614460000000  0.4932990000000  0.5830360000000 1.0
C      1  0.5645570000000  0.5360590000000  0.4556630000000 1.0
C      1  0.4281400000000  0.5355180000000  0.4656680000000 1.0
C      1  0.5058720000000  0.5355540000000  0.5782450000000 1.0
C      1  0.5650290000000  0.4647280000000  0.5453570000000 1.0
C      1  0.4291080000000  0.4645740000000  0.5342750000000 1.0
C      1  0.5057310000000  0.4656500000000  0.4214350000000 1.0
C      1  0.4513900000000  0.5584590000000  0.6017890000000 1.0
C      1  0.6117460000000  0.5585060000000  0.4916810000000 1.0
C      1  0.4354330000000  0.5583130000000  0.4048950000000 1.0
C      1  0.4507840000000  0.4424810000000  0.3979810000000 1.0
C      1  0.6126470000000  0.4427200000000  0.5084700000000 1.0
C      1  0.4359200000000  0.4427820000000  0.5936050000000 1.0
C      1  0.5811180000000  0.4470040000000  0.4115350000000 1.0
C      1  0.3824950000000  0.4467960000000  0.4738420000000 1.0
C      1  0.5360240000000  0.4456840000000  0.6158770000000 1.0
C      1  0.5812810000000  0.5542810000000  0.5888770000000 1.0
C      1  0.3835460000000  0.5544800000000  0.5265720000000 1.0
C      1  0.5360550000000  0.5541900000000  0.3847810000000 1.0
C      1  0.5517080000000  0.5586580000000  0.5828550000000 1.0
C      1  0.5451320000000  0.5590040000000  0.4134850000000 1.0
C      1  0.4033320000000  0.5586010000000  0.5038090000000 1.0
C      1  0.5516150000000  0.4426090000000  0.4177080000000 1.0
C      1  0.5457580000000  0.4412870000000  0.5871860000000 1.0
C      1  0.4026450000000  0.4422160000000  0.4962930000000 1.0
C      1  0.4564490000000  0.5337650000000  0.6160290000000 1.0
C      1  0.6216240000000  0.5340050000000  0.4799400000000 1.0
C      1  0.4204400000000  0.5335160000000  0.4033850000000 1.0
C      1  0.4561370000000  0.4670920000000  0.3837280000000 1.0
C      1  0.6221470000000  0.4673320000000  0.5204100000000 1.0
C      1  0.4211460000000  0.4676290000000  0.5956090000000 1.0
C      1  0.5690920000000  0.5770410000000  0.4155870000000 1.0
C      1  0.3930660000000  0.5767740000000  0.4820740000000 1.0
C      1  0.5379230000000  0.5766640000000  0.6025610000000 1.0
C      1  0.5699680000000  0.4235930000000  0.5849280000000 1.0
C      1  0.3921110000000  0.4244070000000  0.5181340000000 1.0
C      1  0.5378700000000  0.4243870000000  0.3981490000000 1.0
C      1  0.3870760000000  0.5681630000000  0.4566480000000 1.0
C      1  0.5187980000000  0.5678670000000  0.6202010000000 1.0
C      1  0.5938930000000  0.5683120000000  0.4236110000000 1.0
C      1  0.3863460000000  0.4335410000000  0.5434280000000 1.0
C      1  0.5187380000000  0.4329210000000  0.3803820000000 1.0
C      1  0.5946210000000  0.4326250000000  0.5767580000000 1.0
C      1  0.5025960000000  0.4244360000000  0.4530340000000 1.0
C      1  0.4581210000000  0.4233190000000  0.5212470000000 1.0
C      1  0.5392560000000  0.4237850000000  0.5258530000000 1.0
C      1  0.5021070000000  0.5769990000000  0.5471250000000 1.0
C      1  0.4568190000000  0.5791210000000  0.4771660000000 1.0
C      1  0.5370180000000  0.5746470000000  0.4747200000000 1.0
C      1  0.5113360000000  0.5471540000000  0.3754530000000 1.0
C      1  0.3882490000000  0.5475560000000  0.5525240000000 1.0
C      1  0.6014380000000  0.5473610000000  0.5717420000000 1.0
C      1  0.5110510000000  0.4527430000000  0.6246170000000 1.0
C      1  0.3869670000000  0.4535450000000  0.4477480000000 1.0
C      1  0.6013990000000  0.4539410000000  0.4284770000000 1.0
C      1  0.4666550000000  0.4004150000000  0.4793440000000 1.0
C      1  0.4992370000000  0.3998310000000  0.5391250000000 1.0
C      1  0.5344510000000  0.4011020000000  0.4810720000000 1.0
C      1  0.4669970000000  0.6008000000000  0.5195930000000 1.0
C      1  0.4991960000000  0.6009230000000  0.4601350000000 1.0
C      1  0.5343820000000  0.5991130000000  0.5187710000000 1.0
C      1  0.4907720000000  0.6019350000000  0.5377820000000 1.0
C      1  0.5372010000000  0.5997710000000  0.4890830000000 1.0
C      1  0.4717570000000  0.6035210000000  0.4721070000000 1.0
C      1  0.4908520000000  0.3993860000000  0.4616690000000 1.0
C      1  0.5376920000000  0.3991570000000  0.5107520000000 1.0
C      1  0.4718910000000  0.3984290000000  0.5268490000000 1.0
C      1  0.4805440000000  0.4668820000000  0.4354380000000 1.0
C      1  0.4536870000000  0.4658380000000  0.5491800000000 1.0
C      1  0.5655640000000  0.4663240000000  0.5165140000000 1.0
C      1  0.4808890000000  0.5342910000000  0.5638260000000 1.0
C      1  0.4514670000000  0.5357530000000  0.4491990000000 1.0
C      1  0.5641110000000  0.5333890000000  0.4844640000000 1.0
C      1  0.5334560000000  0.5336670000000  0.5867890000000 1.0
C      1  0.5574880000000  0.5343230000000  0.4277520000000 1.0
C      1  0.4082940000000  0.5337120000000  0.4861620000000 1.0
C      1  0.5333940000000  0.4674430000000  0.4135710000000 1.0
C      1  0.5580260000000  0.4665620000000  0.5733580000000 1.0
C      1  0.4087890000000  0.4670090000000  0.5140760000000 1.0
C      1  0.5796190000000  0.5149430000000  0.5033270000000 1.0
C      1  0.4614240000000  0.5159090000000  0.4277800000000 1.0
C      1  0.4579140000000  0.5150350000000  0.5680520000000 1.0
C      1  0.5800740000000  0.4854270000000  0.4973520000000 1.0
C      1  0.4627030000000  0.4852130000000  0.5713450000000 1.0
C      1  0.4567580000000  0.4860510000000  0.4314560000000 1.0
C      1  0.4686040000000  0.4447830000000  0.5365990000000 1.0
C      1  0.5469180000000  0.4457150000000  0.5095290000000 1.0
C      1  0.4841400000000  0.4459240000000  0.4548310000000 1.0
C      1  0.4656470000000  0.5580400000000  0.4604640000000 1.0
C      1  0.5440810000000  0.5525970000000  0.4912730000000 1.0
C      1  0.4837880000000  0.5552930000000  0.5443160000000 1.0
C      1  0.4369730000000  0.4879650000000  0.3791540000000 1.0
C      1  0.4266910000000  0.4886320000000  0.6143500000000 1.0
C      1  0.6352160000000  0.4885860000000  0.5061820000000 1.0
C      1  0.4372120000000  0.5129360000000  0.6203830000000 1.0
C      1  0.4261620000000  0.5121970000000  0.3850120000000 1.0
C      1  0.6350170000000  0.5129810000000  0.4941900000000 1.0
C      1  0.4958350000000  0.4478210000000  0.5318910000000 1.0
C      1  0.5291260000000  0.4492790000000  0.4883470000000 1.0
C      1  0.4750750000000  0.4482200000000  0.4810490000000 1.0
C      1  0.4924180000000  0.5533700000000  0.4656270000000 1.0
C      1  0.5276990000000  0.5506710000000  0.5134730000000 1.0
C      1  0.4765160000000  0.5532100000000  0.5168090000000 1.0
C      1  0.4471430000000  0.5725420000000  0.5785170000000 1.0
C      1  0.5937560000000  0.5722810000000  0.5072570000000 1.0
C      1  0.4579210000000  0.5726460000000  0.4118740000000 1.0
C      1  0.4461710000000  0.4285170000000  0.4212350000000 1.0
C      1  0.5948100000000  0.4287650000000  0.4928130000000 1.0
C      1  0.4582670000000  0.4283600000000  0.5864480000000 1.0
C      1  0.4742980000000  0.5210680000000  0.4007560000000 1.0
C      1  0.4285480000000  0.5210020000000  0.5708420000000 1.0
C      1  0.5971200000000  0.5206480000000  0.5275230000000 1.0
C      1  0.4746260000000  0.4795970000000  0.5988240000000 1.0
C      1  0.4271220000000  0.4801330000000  0.4287120000000 1.0
C      1  0.5973060000000  0.4803200000000  0.4728250000000 1.0
C      1  0.4736680000000  0.6189850000000  0.4966940000000 1.0
C      1  0.5116610000000  0.6177050000000  0.5248160000000 1.0
C      1  0.5168880000000  0.6174130000000  0.4778240000000 1.0
C      1  0.4731670000000  0.3824810000000  0.5024770000000 1.0
C      1  0.5113100000000  0.3831530000000  0.4746210000000 1.0
C      1  0.5163710000000  0.3825010000000  0.5216050000000 1.0
C      1  0.4924050000000  0.5008820000000  0.6075590000000 1.0
C      1  0.5956140000000  0.5017440000000  0.4532920000000 1.0
C      1  0.4108380000000  0.5013570000000  0.4399980000000 1.0
C      1  0.4922300000000  0.4996430000000  0.3929190000000 1.0
C      1  0.5958860000000  0.4993850000000  0.5473100000000 1.0
C      1  0.4126440000000  0.4999770000000  0.5591130000000 1.0
C      1  0.5527240000000  0.4421500000000  0.4498630000000 1.0
C      1  0.4299160000000  0.4413820000000  0.4789140000000 1.0
C      1  0.5168500000000  0.4406590000000  0.5721250000000 1.0
C      1  0.5528250000000  0.5591630000000  0.5506320000000 1.0
C      1  0.4313010000000  0.5595650000000  0.5204000000000 1.0
C      1  0.5165600000000  0.5598810000000  0.4280370000000 1.0
C      1  0.5158400000000  0.5080900000000  0.4073530000000 1.0
C      1  0.4144600000000  0.5081380000000  0.5313640000000 1.0
C      1  0.5718590000000  0.5075310000000  0.5610880000000 1.0
C      1  0.5164000000000  0.4923420000000  0.5940370000000 1.0
C      1  0.4116180000000  0.4931280000000  0.4677360000000 1.0
C      1  0.5714190000000  0.4936760000000  0.4397720000000 1.0
C      1  0.4842050000000  0.4745050000000  0.3807890000000 1.0
C      1  0.4050550000000  0.4751860000000  0.5724360000000 1.0
C      1  0.6107430000000  0.4744300000000  0.5463240000000 1.0
C      1  0.4844090000000  0.5261750000000  0.6193270000000 1.0
C      1  0.4041910000000  0.5264290000000  0.4266610000000 1.0
C      1  0.6103150000000  0.5267260000000  0.4540860000000 1.0
C      1  0.5830590000000  0.4359170000000  0.4677550000000 1.0
C      1  0.4302080000000  0.4355430000000  0.4438550000000 1.0
C      1  0.4860580000000  0.4347410000000  0.5890770000000 1.0
C      1  0.5826790000000  0.5651470000000  0.5325330000000 1.0
C      1  0.4316150000000  0.5655540000000  0.5554290000000 1.0
C      1  0.4856820000000  0.5658060000000  0.4100590000000 1.0
C      1  0.5519710000000  0.5234890000000  0.5470170000000 1.0
C      1  0.5131430000000  0.5243320000000  0.4313140000000 1.0
C      1  0.4367950000000  0.5245380000000  0.5211590000000 1.0
C      1  0.5515480000000  0.4780010000000  0.4537810000000 1.0
C      1  0.5139380000000  0.4755630000000  0.5702690000000 1.0
C      1  0.4339600000000  0.4771850000000  0.4776120000000 1.0
C      1  0.4874790000000  0.4550350000000  0.6086050000000 1.0
C      1  0.5992520000000  0.4560310000000  0.4568140000000 1.0
C      1  0.4125300000000  0.4556620000000  0.4352950000000 1.0
C      1  0.4874940000000  0.5453050000000  0.3910150000000 1.0
C      1  0.5990920000000  0.5451100000000  0.5433990000000 1.0
C      1  0.4140060000000  0.5454330000000  0.5643970000000 1.0
C      1  0.4861390000000  0.5269820000000  0.5047900000000 1.0
C      1  0.5135630000000  0.5266690000000  0.5190730000000 1.0
C      1  0.4970510000000  0.5278530000000  0.4762870000000 1.0
C      1  0.4781460000000  0.4724170000000  0.4927500000000 1.0
C      1  0.5180420000000  0.4740460000000  0.4861380000000 1.0
C      1  0.5039750000000  0.4725490000000  0.5242630000000 1.0
C      1  0.5278640000000  0.5113650000000  0.5375220000000 1.0
C      1  0.5127920000000  0.5126410000000  0.4577450000000 1.0
C      1  0.4587980000000  0.5125020000000  0.5067420000000 1.0
C      1  0.5280790000000  0.4898860000000  0.4656410000000 1.0
C      1  0.5157710000000  0.4872850000000  0.5445480000000 1.0
C      1  0.4559570000000  0.4887110000000  0.4919090000000 1.0
C      1  0.5307230000000  0.4289710000000  0.4659420000000 1.0
C      1  0.4548100000000  0.4279270000000  0.4903750000000 1.0
C      1  0.5142940000000  0.4275210000000  0.5444280000000 1.0
C      1  0.5304470000000  0.5719750000000  0.5347570000000 1.0
C      1  0.4553750000000  0.5732490000000  0.5080000000000 1.0
C      1  0.5128810000000  0.5725290000000  0.4551250000000 1.0
C      1  0.5011290000000  0.6287320000000  0.4998270000000 1.0
C      1  0.5003570000000  0.3720330000000  0.4994200000000 1.0
END
