TITL C-3201372-1405-939 74.909814694454 125000 -544.136515015011 0 0 92 (C1) n - 1
REM
REM in /home/nfs/bkarasulu/CARBON/AIRSS/Generating-Clusters/LCBOP/Higher-Symm/SD-CG/FIRE-CG
REM
REM
REM
REM
REM
REM ./C.cell (b20cbc046b6831c77cfcea5457e17084)
REM AIRSS Version 0.9.1 bugfix July 2018 build 013d7b7c2542+ Fri, 06 Jul 2018 19:26:36 +0100
REM compiler GCC version 9.2.1 20190827 (Red Hat 9.2.1-1)
REM options -cpp -mtune=generic -march=x86-64 -g -O0 -fpre-include=/usr/include/finclude/math-vector-fortran.h
REM seed 1310174094 367934130 -1231009603 -1728429884 -1099377280 511393443 1419298091 2100828735 1388119728 755283363 849817242 193756153 -1016785292 -1607377748 -1687040637 1432679152 1586618175 -325906951 -2065985142 21040821 1221148551 1556105536 -551904126 939247891 1290263936 -869186783 -1480081517 -661871586 656403811 -914388692 -2062843117 1313510284 163607224
REM
CELL 1.54180   50.00000   50.00000   50.00000   90.00000   90.00000   90.00000
LATT -1
SFAC C  
C      1  0.5058910000000  0.5659140000000  0.5539090000000 1.0
C      1  0.5075580000000  0.4200520000000  0.5294280000000 1.0
C      1  0.5069520000000  0.5137550000000  0.4164540000000 1.0
C      1  0.4531390000000  0.4297310000000  0.5416090000000 1.0
C      1  0.4522600000000  0.5013200000000  0.4183230000000 1.0
C      1  0.4491830000000  0.5679400000000  0.5373580000000 1.0
C      1  0.5273150000000  0.4738360000000  0.4394100000000 1.0
C      1  0.5294300000000  0.5662790000000  0.5077050000000 1.0
C      1  0.5300870000000  0.4604830000000  0.5531570000000 1.0
C      1  0.5167370000000  0.4660210000000  0.5790670000000 1.0
C      1  0.5131520000000  0.4488140000000  0.4316630000000 1.0
C      1  0.5168110000000  0.5862660000000  0.4896940000000 1.0
C      1  0.4417380000000  0.4859320000000  0.5363180000000 1.0
C      1  0.4363870000000  0.4756860000000  0.4759250000000 1.0
C      1  0.4395830000000  0.5400580000000  0.4895560000000 1.0
C      1  0.5236310000000  0.4288880000000  0.4802700000000 1.0
C      1  0.5246590000000  0.5530140000000  0.4472650000000 1.0
C      1  0.5236840000000  0.5197290000000  0.5717420000000 1.0
C      1  0.4146980000000  0.5177740000000  0.4527310000000 1.0
C      1  0.4148080000000  0.5246540000000  0.5294830000000 1.0
C      1  0.4130500000000  0.4511080000000  0.5123300000000 1.0
C      1  0.4742770000000  0.5480490000000  0.4286430000000 1.0
C      1  0.4701670000000  0.5378050000000  0.5745180000000 1.0
C      1  0.4727160000000  0.4164040000000  0.4943260000000 1.0
C      1  0.4938370000000  0.4646220000000  0.4702350000000 1.0
C      1  0.4955540000000  0.5460090000000  0.4837230000000 1.0
C      1  0.4960250000000  0.4910890000000  0.5469410000000 1.0
C      1  0.5683530000000  0.4598000000000  0.5222940000000 1.0
C      1  0.5670120000000  0.4999260000000  0.4533660000000 1.0
C      1  0.5677080000000  0.5398970000000  0.5235020000000 1.0
C      1  0.5215780000000  0.5196430000000  0.5200180000000 1.0
C      1  0.5229300000000  0.4737630000000  0.5062520000000 1.0
C      1  0.5213620000000  0.5085000000000  0.4735350000000 1.0
C      1  0.5575710000000  0.4664660000000  0.5479810000000 1.0
C      1  0.5551560000000  0.4748360000000  0.4463630000000 1.0
C      1  0.5568500000000  0.5585830000000  0.5048850000000 1.0
C      1  0.5351260000000  0.4214680000000  0.5075370000000 1.0
C      1  0.5351420000000  0.5324390000000  0.4275520000000 1.0
C      1  0.5343720000000  0.5469560000000  0.5640910000000 1.0
C      1  0.4169170000000  0.4771210000000  0.4994790000000 1.0
C      1  0.4164010000000  0.5271920000000  0.4784780000000 1.0
C      1  0.4194130000000  0.4972550000000  0.5214830000000 1.0
C      1  0.4600230000000  0.5279000000000  0.5080960000000 1.0
C      1  0.4632610000000  0.4787460000000  0.5179740000000 1.0
C      1  0.4587390000000  0.4960010000000  0.4725610000000 1.0
C      1  0.4804150000000  0.5392310000000  0.5261440000000 1.0
C      1  0.4827280000000  0.4575620000000  0.5196710000000 1.0
C      1  0.4797470000000  0.5048980000000  0.4535070000000 1.0
C      1  0.4495210000000  0.5484330000000  0.4421630000000 1.0
C      1  0.4469690000000  0.5242560000000  0.5658170000000 1.0
C      1  0.4478050000000  0.4287290000000  0.4898630000000 1.0
C      1  0.5799290000000  0.5173770000000  0.5118670000000 1.0
C      1  0.5803920000000  0.4813280000000  0.5087710000000 1.0
C      1  0.5796100000000  0.5005270000000  0.4785050000000 1.0
C      1  0.4516890000000  0.5576500000000  0.4701050000000 1.0
C      1  0.4506810000000  0.4956120000000  0.5614740000000 1.0
C      1  0.4479210000000  0.4495030000000  0.4690470000000 1.0
C      1  0.5062070000000  0.4887960000000  0.4573870000000 1.0
C      1  0.5072680000000  0.5440970000000  0.5111830000000 1.0
C      1  0.5087870000000  0.4686040000000  0.5317650000000 1.0
C      1  0.4757470000000  0.4824780000000  0.5659600000000 1.0
C      1  0.4723750000000  0.4533760000000  0.4539710000000 1.0
C      1  0.4759960000000  0.5671900000000  0.4809020000000 1.0
C      1  0.5144620000000  0.5349490000000  0.4671670000000 1.0
C      1  0.5140460000000  0.5116830000000  0.5459360000000 1.0
C      1  0.5144670000000  0.4554970000000  0.4864300000000 1.0
C      1  0.4859230000000  0.5474910000000  0.5535860000000 1.0
C      1  0.4879000000000  0.4298070000000  0.5135130000000 1.0
C      1  0.4874440000000  0.5237840000000  0.4324130000000 1.0
C      1  0.5610150000000  0.5251830000000  0.4405860000000 1.0
C      1  0.5606960000000  0.5389070000000  0.5516770000000 1.0
C      1  0.5611970000000  0.4361900000000  0.5068270000000 1.0
C      1  0.4331050000000  0.5411880000000  0.5452980000000 1.0
C      1  0.4352300000000  0.4334170000000  0.5163420000000 1.0
C      1  0.4360850000000  0.5226110000000  0.4342190000000 1.0
C      1  0.5223550000000  0.4946610000000  0.5881570000000 1.0
C      1  0.5198950000000  0.4265010000000  0.4508380000000 1.0
C      1  0.5231520000000  0.5798650000000  0.4605270000000 1.0
C      1  0.5720210000000  0.5151840000000  0.5641170000000 1.0
C      1  0.5721100000000  0.4374310000000  0.4799750000000 1.0
C      1  0.5726250000000  0.5474030000000  0.4552260000000 1.0
C      1  0.4796230000000  0.5827250000000  0.5288900000000 1.0
C      1  0.4803680000000  0.4326070000000  0.5562400000000 1.0
C      1  0.4781080000000  0.4855610000000  0.4140880000000 1.0
C      1  0.4876950000000  0.4564590000000  0.5742610000000 1.0
C      1  0.4840290000000  0.4582720000000  0.4266620000000 1.0
C      1  0.4875930000000  0.5870960000000  0.4995860000000 1.0
C      1  0.5695540000000  0.5595840000000  0.4792650000000 1.0
C      1  0.5698910000000  0.4882250000000  0.5619150000000 1.0
C      1  0.5680580000000  0.4517900000000  0.4573390000000 1.0
C      1  0.5273390000000  0.5007940000000  0.4999210000000 1.0
C      1  0.4657190000000  0.5010760000000  0.4999850000000 1.0
END
