TITL C-3201378-2706-2141 0.623453567932456 125000 -731.467937896848 0 0 119 (C1) n - 1
REM
REM in /home/nfs/bkarasulu/CARBON/AIRSS/Generating-Clusters/LCBOP/Higher-Symm/SD-CG/FIRE-CG
REM
REM
REM
REM
REM
REM ./C.cell (b20cbc046b6831c77cfcea5457e17084)
REM AIRSS Version 0.9.1 bugfix July 2018 build 013d7b7c2542+ Fri, 06 Jul 2018 19:26:36 +0100
REM compiler GCC version 9.2.1 20190827 (Red Hat 9.2.1-1)
REM options -cpp -mtune=generic -march=x86-64 -g -O0 -fpre-include=/usr/include/finclude/math-vector-fortran.h
REM seed -305278031 731267814 -1451832774 -1945350100 390360438 -457831186 429699096 2066040430 -1871346915 -1772551679 -140379878 1293160521 -953699624 -1142917948 -1944622588 803114141 -1555950654 2121192105 -470283367 -291348505 1895526612 958033246 -545969104 -1120143928 2103692253 2073605188 -2015947372 1163773321 1880837357 -1259724175 1246610515 -1282930932 263492392
REM
CELL 1.54180   50.00000   50.00000   50.00000   90.00000   90.00000   90.00000
LATT -1
SFAC C  
C      1  0.5048150000000  0.5913030000000  0.4920890000000 1.0
C      1  0.5298860000000  0.3996540000000  0.5057140000000 1.0
C      1  0.6046870000000  0.4645950000000  0.4734680000000 1.0
C      1  0.5976520000000  0.5437310000000  0.4678810000000 1.0
C      1  0.4408470000000  0.4505820000000  0.4292650000000 1.0
C      1  0.4441700000000  0.5602130000000  0.4346060000000 1.0
C      1  0.4934580000000  0.5174330000000  0.5983790000000 1.0
C      1  0.4881800000000  0.4886670000000  0.5979530000000 1.0
C      1  0.5363550000000  0.5247570000000  0.4751760000000 1.0
C      1  0.5453640000000  0.4642480000000  0.4772300000000 1.0
C      1  0.4536470000000  0.5207800000000  0.4034790000000 1.0
C      1  0.4526950000000  0.4912170000000  0.4020730000000 1.0
C      1  0.4253130000000  0.5476540000000  0.5742460000000 1.0
C      1  0.4142090000000  0.4777630000000  0.5912380000000 1.0
C      1  0.4674390000000  0.5176940000000  0.5195950000000 1.0
C      1  0.4840080000000  0.4498410000000  0.5088080000000 1.0
C      1  0.5078450000000  0.4439240000000  0.5813500000000 1.0
C      1  0.5218360000000  0.5544820000000  0.5797730000000 1.0
C      1  0.5769770000000  0.4798210000000  0.5644470000000 1.0
C      1  0.5670610000000  0.5079260000000  0.5680080000000 1.0
C      1  0.4112930000000  0.4928320000000  0.4250500000000 1.0
C      1  0.4123470000000  0.5201140000000  0.4270480000000 1.0
C      1  0.5093290000000  0.3964070000000  0.5247640000000 1.0
C      1  0.4972620000000  0.5900990000000  0.5197940000000 1.0
C      1  0.6462070000000  0.5668730000000  0.4616370000000 1.0
C      1  0.6580330000000  0.4671420000000  0.4655230000000 1.0
C      1  0.4460190000000  0.5424950000000  0.5906830000000 1.0
C      1  0.4395150000000  0.4657170000000  0.5929680000000 1.0
C      1  0.5321090000000  0.5906190000000  0.4836360000000 1.0
C      1  0.5567320000000  0.4076250000000  0.5045150000000 1.0
C      1  0.3989730000000  0.4781640000000  0.4807030000000 1.0
C      1  0.3981740000000  0.5489940000000  0.4918560000000 1.0
C      1  0.4860750000000  0.3954970000000  0.4924690000000 1.0
C      1  0.4714200000000  0.5769370000000  0.5271210000000 1.0
C      1  0.5487670000000  0.5275880000000  0.5014260000000 1.0
C      1  0.5468270000000  0.4682960000000  0.5062760000000 1.0
C      1  0.4874780000000  0.4983090000000  0.5102710000000 1.0
C      1  0.4979210000000  0.4729590000000  0.5135690000000 1.0
C      1  0.4354050000000  0.5358110000000  0.4207690000000 1.0
C      1  0.4331310000000  0.4761540000000  0.4171920000000 1.0
C      1  0.5133480000000  0.4031510000000  0.4818790000000 1.0
C      1  0.4853290000000  0.5774770000000  0.4760130000000 1.0
C      1  0.4830360000000  0.4396780000000  0.4814910000000 1.0
C      1  0.4649850000000  0.5378620000000  0.4972820000000 1.0
C      1  0.5930090000000  0.4407720000000  0.4839240000000 1.0
C      1  0.5753620000000  0.5613210000000  0.4713390000000 1.0
C      1  0.5457180000000  0.5058650000000  0.4556110000000 1.0
C      1  0.5610410000000  0.4840520000000  0.4639980000000 1.0
C      1  0.4477420000000  0.5254760000000  0.4766530000000 1.0
C      1  0.4743030000000  0.4613280000000  0.4644350000000 1.0
C      1  0.4770850000000  0.5597170000000  0.5501910000000 1.0
C      1  0.4634550000000  0.4292660000000  0.5647720000000 1.0
C      1  0.6083910000000  0.5164660000000  0.5416290000000 1.0
C      1  0.6134570000000  0.4895260000000  0.5368160000000 1.0
C      1  0.5679550000000  0.5116270000000  0.5167680000000 1.0
C      1  0.5700310000000  0.4820050000000  0.5167400000000 1.0
C      1  0.4911980000000  0.4274260000000  0.5628960000000 1.0
C      1  0.5015570000000  0.5682600000000  0.5632920000000 1.0
C      1  0.4534110000000  0.5065700000000  0.4592010000000 1.0
C      1  0.4685990000000  0.4854410000000  0.4559300000000 1.0
C      1  0.4687770000000  0.5712340000000  0.4254850000000 1.0
C      1  0.4664870000000  0.4395460000000  0.4218840000000 1.0
C      1  0.5246560000000  0.4921150000000  0.5432890000000 1.0
C      1  0.5208930000000  0.5194740000000  0.5363870000000 1.0
C      1  0.4444390000000  0.4422780000000  0.5782060000000 1.0
C      1  0.4722120000000  0.5323910000000  0.5448930000000 1.0
C      1  0.5125760000000  0.5469510000000  0.4377150000000 1.0
C      1  0.5165560000000  0.4559380000000  0.4333310000000 1.0
C      1  0.4358320000000  0.5703400000000  0.4608490000000 1.0
C      1  0.4290760000000  0.4407340000000  0.4543400000000 1.0
C      1  0.4562820000000  0.5794090000000  0.4797790000000 1.0
C      1  0.4417570000000  0.4186480000000  0.4682670000000 1.0
C      1  0.5972360000000  0.5151640000000  0.4676320000000 1.0
C      1  0.5889130000000  0.4878370000000  0.4674400000000 1.0
C      1  0.5307310000000  0.4267060000000  0.5860310000000 1.0
C      1  0.5464560000000  0.5602960000000  0.5648020000000 1.0
C      1  0.4022110000000  0.4979490000000  0.5467870000000 1.0
C      1  0.3974420000000  0.5244950000000  0.5365070000000 1.0
C      1  0.6227540000000  0.5558730000000  0.4644940000000 1.0
C      1  0.6322780000000  0.4653350000000  0.4690610000000 1.0
C      1  0.4110580000000  0.5630870000000  0.4728720000000 1.0
C      1  0.4106520000000  0.4573290000000  0.4683490000000 1.0
C      1  0.4550090000000  0.5659390000000  0.5062230000000 1.0
C      1  0.4664280000000  0.4140770000000  0.4819010000000 1.0
C      1  0.5132180000000  0.5392620000000  0.4658350000000 1.0
C      1  0.5266890000000  0.4494330000000  0.4601900000000 1.0
C      1  0.5241510000000  0.4728880000000  0.5225720000000 1.0
C      1  0.5339340000000  0.5405760000000  0.5223360000000 1.0
C      1  0.5410360000000  0.5092830000000  0.5822250000000 1.0
C      1  0.5265150000000  0.4868400000000  0.5706540000000 1.0
C      1  0.4441000000000  0.4992900000000  0.5225340000000 1.0
C      1  0.4237780000000  0.4859180000000  0.5332850000000 1.0
C      1  0.4951620000000  0.5671290000000  0.4284900000000 1.0
C      1  0.4935420000000  0.4409220000000  0.4240440000000 1.0
C      1  0.5074660000000  0.4719300000000  0.5849350000000 1.0
C      1  0.5200380000000  0.5283170000000  0.5910730000000 1.0
C      1  0.3940350000000  0.5257710000000  0.5075540000000 1.0
C      1  0.3921480000000  0.5010540000000  0.4930850000000 1.0
C      1  0.5305310000000  0.4050510000000  0.5688000000000 1.0
C      1  0.5391140000000  0.5646820000000  0.5368190000000 1.0
C      1  0.5026660000000  0.4896760000000  0.3984230000000 1.0
C      1  0.5032610000000  0.5191200000000  0.3980860000000 1.0
C      1  0.5157970000000  0.5821410000000  0.5400630000000 1.0
C      1  0.5076330000000  0.4060750000000  0.5507490000000 1.0
C      1  0.5208390000000  0.5273050000000  0.4192820000000 1.0
C      1  0.5210780000000  0.4802480000000  0.4193320000000 1.0
C      1  0.4904330000000  0.5478290000000  0.4801700000000 1.0
C      1  0.5104660000000  0.4299570000000  0.4727970000000 1.0
C      1  0.4700720000000  0.5338280000000  0.5992190000000 1.0
C      1  0.4622280000000  0.4789920000000  0.6030190000000 1.0
C      1  0.5776560000000  0.4217440000000  0.4951680000000 1.0
C      1  0.5554800000000  0.5788710000000  0.4766760000000 1.0
C      1  0.4781160000000  0.5311480000000  0.3933140000000 1.0
C      1  0.4769280000000  0.4795100000000  0.3927080000000 1.0
C      1  0.3980530000000  0.4892920000000  0.5731370000000 1.0
C      1  0.4080140000000  0.5444370000000  0.5537550000000 1.0
C      1  0.5886430000000  0.4741770000000  0.5381120000000 1.0
C      1  0.5795260000000  0.5214660000000  0.5433540000000 1.0
C      1  0.5334720000000  0.5039960000000  0.4304770000000 1.0
END
