TITL C-3201372-1405-1332 -1.22482636165557e-08 125000 -850.824837842069 0 0 134 (C1) n - 1
REM
REM in /home/nfs/bkarasulu/CARBON/AIRSS/Generating-Clusters/LCBOP/Higher-Symm/SD-CG/FIRE-CG
REM
REM
REM
REM
REM
REM ./C.cell (b20cbc046b6831c77cfcea5457e17084)
REM AIRSS Version 0.9.1 bugfix July 2018 build 013d7b7c2542+ Fri, 06 Jul 2018 19:26:36 +0100
REM compiler GCC version 9.2.1 20190827 (Red Hat 9.2.1-1)
REM options -cpp -mtune=generic -march=x86-64 -g -O0 -fpre-include=/usr/include/finclude/math-vector-fortran.h
REM seed 1112081903 -362787914 -1538974330 1465435993 1543094065 -1173795399 382562424 274098480 1465406874 2115565836 1156956494 -579879299 1808885324 -1990582629 231406759 14459702 -1047697783 -1170337068 -215323793 -1567237915 -124018191 -1750061310 1952519544 -676402579 -668993578 -2085999013 263075741 2136217078 957989847 273057417 -1179653527 1852364640 1168784452
REM
CELL 1.54180   50.00000   50.00000   50.00000   90.00000   90.00000   90.00000
LATT -1
SFAC C  
C      1  0.5204970000000  0.5447880000000  0.5058850000000 1.0
C      1  0.4838850000000  0.5455880000000  0.5351610000000 1.0
C      1  0.4674250000000  0.5461200000000  0.4923460000000 1.0
C      1  0.5050430000000  0.5474960000000  0.4597090000000 1.0
C      1  0.5291850000000  0.5485030000000  0.4770340000000 1.0
C      1  0.4539190000000  0.4010780000000  0.4853450000000 1.0
C      1  0.4968090000000  0.4011840000000  0.4489700000000 1.0
C      1  0.5425210000000  0.4046550000000  0.4821420000000 1.0
C      1  0.5315630000000  0.3973930000000  0.5371870000000 1.0
C      1  0.4747730000000  0.3991510000000  0.5393790000000 1.0
C      1  0.5900400000000  0.4946250000000  0.4422570000000 1.0
C      1  0.5845080000000  0.4975390000000  0.5713800000000 1.0
C      1  0.4603910000000  0.4948620000000  0.6018650000000 1.0
C      1  0.3946230000000  0.4955710000000  0.4912650000000 1.0
C      1  0.4725070000000  0.4972460000000  0.3924140000000 1.0
C      1  0.5334250000000  0.5641770000000  0.4192660000000 1.0
C      1  0.5816070000000  0.5609610000000  0.5038730000000 1.0
C      1  0.5182010000000  0.5615820000000  0.5798390000000 1.0
C      1  0.4301170000000  0.5624410000000  0.5426680000000 1.0
C      1  0.4385460000000  0.5638270000000  0.4450800000000 1.0
C      1  0.4788770000000  0.4316740000000  0.5771880000000 1.0
C      1  0.4235010000000  0.4352310000000  0.5019290000000 1.0
C      1  0.4726760000000  0.4364380000000  0.4217990000000 1.0
C      1  0.5598020000000  0.4395740000000  0.4543380000000 1.0
C      1  0.5680160000000  0.4324530000000  0.5439890000000 1.0
C      1  0.5430780000000  0.4913650000000  0.4176560000000 1.0
C      1  0.5907330000000  0.4910050000000  0.5184870000000 1.0
C      1  0.5134790000000  0.4916480000000  0.5962700000000 1.0
C      1  0.4177700000000  0.4907360000000  0.5394000000000 1.0
C      1  0.4340900000000  0.4930170000000  0.4291530000000 1.0
C      1  0.4894550000000  0.4093820000000  0.5620620000000 1.0
C      1  0.4413820000000  0.4140590000000  0.5073700000000 1.0
C      1  0.4716220000000  0.4132910000000  0.4394890000000 1.0
C      1  0.5414600000000  0.4182820000000  0.4573890000000 1.0
C      1  0.5542150000000  0.4134000000000  0.5279660000000 1.0
C      1  0.5706350000000  0.5017420000000  0.4213500000000 1.0
C      1  0.5965450000000  0.5033060000000  0.5450830000000 1.0
C      1  0.4883410000000  0.5026230000000  0.6076530000000 1.0
C      1  0.3986750000000  0.5018900000000  0.5196070000000 1.0
C      1  0.4468660000000  0.5044730000000  0.4048400000000 1.0
C      1  0.5353560000000  0.5118700000000  0.5959400000000 1.0
C      1  0.4232770000000  0.5100420000000  0.5612670000000 1.0
C      1  0.4169860000000  0.5128270000000  0.4425880000000 1.0
C      1  0.5265720000000  0.5109130000000  0.4026260000000 1.0
C      1  0.5978120000000  0.5096540000000  0.4958330000000 1.0
C      1  0.4505930000000  0.5780030000000  0.5537420000000 1.0
C      1  0.4353900000000  0.5779330000000  0.4690220000000 1.0
C      1  0.5098500000000  0.5791870000000  0.4242340000000 1.0
C      1  0.5714630000000  0.5768770000000  0.4831860000000 1.0
C      1  0.5315630000000  0.5706940000000  0.5571600000000 1.0
C      1  0.4827950000000  0.4598540000000  0.5702750000000 1.0
C      1  0.4340430000000  0.4617290000000  0.5018270000000 1.0
C      1  0.4748890000000  0.4648320000000  0.4299850000000 1.0
C      1  0.5506970000000  0.4659610000000  0.4600630000000 1.0
C      1  0.5589640000000  0.4601980000000  0.5436230000000 1.0
C      1  0.5165340000000  0.3822090000000  0.5174390000000 1.0
C      1  0.4870620000000  0.3821440000000  0.5193510000000 1.0
C      1  0.4759750000000  0.3833740000000  0.4915430000000 1.0
C      1  0.4983480000000  0.3837130000000  0.4722190000000 1.0
C      1  0.5232100000000  0.3844780000000  0.4886190000000 1.0
C      1  0.5473300000000  0.5248240000000  0.4734200000000 1.0
C      1  0.5359890000000  0.5165890000000  0.5412030000000 1.0
C      1  0.4770150000000  0.5212100000000  0.5472040000000 1.0
C      1  0.4514740000000  0.5234080000000  0.4864370000000 1.0
C      1  0.4976370000000  0.5233180000000  0.4476490000000 1.0
C      1  0.5323760000000  0.4624850000000  0.5579140000000 1.0
C      1  0.4661610000000  0.4689270000000  0.5432370000000 1.0
C      1  0.4515310000000  0.4698570000000  0.4759450000000 1.0
C      1  0.5020040000000  0.4720860000000  0.4454020000000 1.0
C      1  0.5483160000000  0.4737330000000  0.4920300000000 1.0
C      1  0.4618180000000  0.4972010000000  0.4854180000000 1.0
C      1  0.4987240000000  0.4980560000000  0.4607210000000 1.0
C      1  0.5414710000000  0.5038030000000  0.4920770000000 1.0
C      1  0.5310630000000  0.5184520000000  0.5143660000000 1.0
C      1  0.4818580000000  0.4949760000000  0.5358930000000 1.0
C      1  0.4436360000000  0.5332250000000  0.4091610000000 1.0
C      1  0.5676640000000  0.5306740000000  0.4158860000000 1.0
C      1  0.5975820000000  0.5317350000000  0.5384080000000 1.0
C      1  0.4933580000000  0.5315660000000  0.6076110000000 1.0
C      1  0.3998070000000  0.5305840000000  0.5252530000000 1.0
C      1  0.4079920000000  0.5103060000000  0.4697890000000 1.0
C      1  0.4977790000000  0.5093170000000  0.4008980000000 1.0
C      1  0.5916660000000  0.5095270000000  0.4674960000000 1.0
C      1  0.5602210000000  0.5110830000000  0.5808850000000 1.0
C      1  0.4447250000000  0.5080330000000  0.5807610000000 1.0
C      1  0.5141450000000  0.4240480000000  0.4523560000000 1.0
C      1  0.5459300000000  0.4238910000000  0.5027000000000 1.0
C      1  0.5156020000000  0.4152640000000  0.5527730000000 1.0
C      1  0.4608630000000  0.4204520000000  0.5268600000000 1.0
C      1  0.4592370000000  0.4198980000000  0.4647390000000 1.0
C      1  0.5738520000000  0.5456680000000  0.5475090000000 1.0
C      1  0.4758460000000  0.5456450000000  0.5894030000000 1.0
C      1  0.4116460000000  0.5455220000000  0.5037200000000 1.0
C      1  0.4687330000000  0.5459300000000  0.4153250000000 1.0
C      1  0.5722350000000  0.5468380000000  0.4394220000000 1.0
C      1  0.4288900000000  0.5661920000000  0.5139280000000 1.0
C      1  0.4655820000000  0.5666400000000  0.4349860000000 1.0
C      1  0.5527450000000  0.5686640000000  0.4408630000000 1.0
C      1  0.5648270000000  0.5635830000000  0.5269820000000 1.0
C      1  0.4899890000000  0.5674710000000  0.5765030000000 1.0
C      1  0.4638560000000  0.5270590000000  0.5715250000000 1.0
C      1  0.4239080000000  0.5288910000000  0.4846080000000 1.0
C      1  0.4889590000000  0.5273270000000  0.4212710000000 1.0
C      1  0.5724970000000  0.5302820000000  0.4623760000000 1.0
C      1  0.5545840000000  0.5280960000000  0.5583680000000 1.0
C      1  0.5307200000000  0.4492860000000  0.5005970000000 1.0
C      1  0.5176560000000  0.4423380000000  0.5437520000000 1.0
C      1  0.4759010000000  0.4447800000000  0.5246610000000 1.0
C      1  0.4718630000000  0.4450350000000  0.4739880000000 1.0
C      1  0.5002230000000  0.4474150000000  0.4635620000000 1.0
C      1  0.4156690000000  0.5372110000000  0.5501150000000 1.0
C      1  0.4256020000000  0.5399270000000  0.4325470000000 1.0
C      1  0.5399960000000  0.5379240000000  0.4056850000000 1.0
C      1  0.5986550000000  0.5370020000000  0.5086660000000 1.0
C      1  0.5213390000000  0.5384010000000  0.5982870000000 1.0
C      1  0.5323730000000  0.4752040000000  0.4387090000000 1.0
C      1  0.5678350000000  0.4738050000000  0.5181690000000 1.0
C      1  0.5107500000000  0.4720400000000  0.5759820000000 1.0
C      1  0.4379550000000  0.4734530000000  0.5292550000000 1.0
C      1  0.4502100000000  0.4751010000000  0.4440400000000 1.0
C      1  0.5226840000000  0.5945430000000  0.4843020000000 1.0
C      1  0.5200830000000  0.5929050000000  0.5146460000000 1.0
C      1  0.4906820000000  0.5923860000000  0.5233400000000 1.0
C      1  0.4753260000000  0.5923420000000  0.4970220000000 1.0
C      1  0.4945490000000  0.5926460000000  0.4736620000000 1.0
C      1  0.5356380000000  0.5705980000000  0.5272270000000 1.0
C      1  0.4799190000000  0.5739570000000  0.5479630000000 1.0
C      1  0.4514140000000  0.5734310000000  0.4941380000000 1.0
C      1  0.4917620000000  0.5742220000000  0.4486790000000 1.0
C      1  0.5439700000000  0.5753610000000  0.4705430000000 1.0
C      1  0.4910000000000  0.5453420000000  0.5083810000000 1.0
C      1  0.4984380000000  0.4846500000000  0.5133320000000 1.0
C      1  0.4903910000000  0.4947210000000  0.4878450000000 1.0
C      1  0.5055140000000  0.4534600000000  0.5181520000000 1.0
END
