TITL C-3201374-830-21 4289.939069921 125000 -949.821056642481 0 0 156 (C1) n - 1
REM
REM in /home/nfs/bkarasulu/CARBON/AIRSS/Generating-Clusters/LCBOP/Higher-Symm/SD-CG/FIRE-CG
REM
REM
REM
REM
REM
REM ./C.cell (b20cbc046b6831c77cfcea5457e17084)
REM AIRSS Version 0.9.1 bugfix July 2018 build 013d7b7c2542+ Fri, 06 Jul 2018 19:26:36 +0100
REM compiler GCC version 9.2.1 20190827 (Red Hat 9.2.1-1)
REM options -cpp -mtune=generic -march=x86-64 -g -O0 -fpre-include=/usr/include/finclude/math-vector-fortran.h
REM seed 327387770 -32798870 898232298 337858511 474215488 -333612055 -881620773 555665544 423285161 804268750 149168940 -1262171224 -2070874958 1573579093 804064305 -148255211 -469744066 -191847814 -889472727 2079301155 83098624 1505432580 -649757443 426733044 -1960837549 201318765 1759781217 2142160539 1358785476 1951091562 511808866 -1734719256 1990847011
REM
CELL 1.54180   50.00000   50.00000   50.00000   90.00000   90.00000   90.00000
LATT -1
SFAC C  
C      1  0.4828240000000  0.3978340000000  0.5348910000000 1.0
C      1  0.4762550000000  0.5645400000000  0.4220700000000 1.0
C      1  0.4837790000000  0.5273650000000  0.4624800000000 1.0
C      1  0.5368700000000  0.4290650000000  0.5751740000000 1.0
C      1  0.5804420000000  0.4928770000000  0.4753290000000 1.0
C      1  0.5156110000000  0.3186870000000  0.4957070000000 1.0
C      1  0.5255200000000  0.6222660000000  0.5424400000000 1.0
C      1  0.4232840000000  0.4455370000000  0.5112600000000 1.0
C      1  0.5154500000000  0.4180640000000  0.4902300000000 1.0
C      1  0.5461480000000  0.6138140000000  0.4906130000000 1.0
C      1  0.4672370000000  0.4593420000000  0.5303260000000 1.0
C      1  0.4081030000000  0.4977690000000  0.5670940000000 1.0
C      1  0.4674280000000  0.4684770000000  0.5810700000000 1.0
C      1  0.5141250000000  0.5737690000000  0.5653550000000 1.0
C      1  0.5213870000000  0.5075700000000  0.4866590000000 1.0
C      1  0.5887230000000  0.5175690000000  0.4137160000000 1.0
C      1  0.5661630000000  0.4500570000000  0.4298360000000 1.0
C      1  0.5939830000000  0.4499810000000  0.5159570000000 1.0
C      1  0.5078130000000  0.4304330000000  0.4254020000000 1.0
C      1  0.5289150000000  0.5269370000000  0.5561330000000 1.0
C      1  0.4866440000000  0.4472600000000  0.5889710000000 1.0
C      1  0.4235100000000  0.5589540000000  0.5006880000000 1.0
C      1  0.5401120000000  0.5288000000000  0.3920940000000 1.0
C      1  0.5185830000000  0.4814530000000  0.5029200000000 1.0
C      1  0.4916890000000  0.4327520000000  0.4499100000000 1.0
C      1  0.5109680000000  0.4049720000000  0.5375340000000 1.0
C      1  0.4589500000000  0.5157410000000  0.5203710000000 1.0
C      1  0.3963510000000  0.4684300000000  0.4564640000000 1.0
C      1  0.4378640000000  0.5682200000000  0.5549550000000 1.0
C      1  0.5828100000000  0.4370480000000  0.4145790000000 1.0
C      1  0.4645000000000  0.5921410000000  0.5169010000000 1.0
C      1  0.5355420000000  0.4612020000000  0.5265710000000 1.0
C      1  0.5359740000000  0.5193140000000  0.6067780000000 1.0
C      1  0.4671240000000  0.6022570000000  0.4898120000000 1.0
C      1  0.4407170000000  0.5734680000000  0.5250460000000 1.0
C      1  0.4989810000000  0.4909100000000  0.3792900000000 1.0
C      1  0.5665090000000  0.5214200000000  0.3971080000000 1.0
C      1  0.4912140000000  0.5910320000000  0.5293470000000 1.0
C      1  0.5610410000000  0.4822700000000  0.4917630000000 1.0
C      1  0.5073370000000  0.5716750000000  0.5155700000000 1.0
C      1  0.5521500000000  0.5151220000000  0.4405490000000 1.0
C      1  0.4764360000000  0.5989280000000  0.4642320000000 1.0
C      1  0.4919350000000  0.5515920000000  0.5041350000000 1.0
C      1  0.4888140000000  0.5502820000000  0.4768830000000 1.0
C      1  0.4627170000000  0.5206470000000  0.3979040000000 1.0
C      1  0.4973890000000  0.4644160000000  0.4929110000000 1.0
C      1  0.5371750000000  0.5333060000000  0.4842210000000 1.0
C      1  0.3966690000000  0.5142520000000  0.4786620000000 1.0
C      1  0.3891110000000  0.4850020000000  0.4815050000000 1.0
C      1  0.4607740000000  0.4961930000000  0.5013120000000 1.0
C      1  0.6111130000000  0.5213310000000  0.4931840000000 1.0
C      1  0.5409910000000  0.5976040000000  0.4459280000000 1.0
C      1  0.4655880000000  0.5828830000000  0.4428360000000 1.0
C      1  0.4259220000000  0.4313820000000  0.5338690000000 1.0
C      1  0.4682430000000  0.4112140000000  0.5564850000000 1.0
C      1  0.5361820000000  0.4558980000000  0.5839020000000 1.0
C      1  0.3774540000000  0.4758390000000  0.5052080000000 1.0
C      1  0.3990390000000  0.5164510000000  0.4494700000000 1.0
C      1  0.4504100000000  0.3920360000000  0.4982800000000 1.0
C      1  0.4367180000000  0.4057870000000  0.4799260000000 1.0
C      1  0.4035110000000  0.5357760000000  0.4994790000000 1.0
C      1  0.5036830000000  0.4922850000000  0.5923400000000 1.0
C      1  0.4307430000000  0.5139150000000  0.5671200000000 1.0
C      1  0.5146910000000  0.4154350000000  0.5643810000000 1.0
C      1  0.5584290000000  0.5720380000000  0.5278110000000 1.0
C      1  0.4017950000000  0.4903030000000  0.4363430000000 1.0
C      1  0.4902570000000  0.5170890000000  0.3874490000000 1.0
C      1  0.4632320000000  0.5173520000000  0.6040720000000 1.0
C      1  0.6155290000000  0.4991730000000  0.5136250000000 1.0
C      1  0.3847040000000  0.5368450000000  0.5209080000000 1.0
C      1  0.4968880000000  0.3360120000000  0.5029300000000 1.0
C      1  0.5120580000000  0.5320720000000  0.6134720000000 1.0
C      1  0.5085200000000  0.4428850000000  0.4750340000000 1.0
C      1  0.6139510000000  0.5119690000000  0.5395530000000 1.0
C      1  0.4730180000000  0.4705650000000  0.5053420000000 1.0
C      1  0.5742340000000  0.4300830000000  0.5208930000000 1.0
C      1  0.4712540000000  0.3822180000000  0.5144080000000 1.0
C      1  0.3891760000000  0.4839720000000  0.5544670000000 1.0
C      1  0.4392750000000  0.4754380000000  0.4672400000000 1.0
C      1  0.5509180000000  0.4782040000000  0.5727150000000 1.0
C      1  0.5994410000000  0.5727000000000  0.5036590000000 1.0
C      1  0.5811560000000  0.2816390000000  0.4719040000000 1.0
C      1  0.5637810000000  0.5632710000000  0.4247050000000 1.0
C      1  0.5246480000000  0.6321620000000  0.4950820000000 1.0
C      1  0.5100360000000  0.5994540000000  0.5507670000000 1.0
C      1  0.4417610000000  0.4191250000000  0.5517380000000 1.0
C      1  0.4458630000000  0.5571380000000  0.5819450000000 1.0
C      1  0.5493820000000  0.4652890000000  0.4458430000000 1.0
C      1  0.5104000000000  0.5069040000000  0.5670710000000 1.0
C      1  0.4437770000000  0.4728570000000  0.4392260000000 1.0
C      1  0.4790320000000  0.5357280000000  0.5223060000000 1.0
C      1  0.4463540000000  0.5175830000000  0.5444160000000 1.0
C      1  0.6057150000000  0.5457740000000  0.5095110000000 1.0
C      1  0.5997490000000  0.5123410000000  0.4676670000000 1.0
C      1  0.5541100000000  0.6221770000000  0.5378710000000 1.0
C      1  0.5365860000000  0.3044530000000  0.4879390000000 1.0
C      1  0.4879830000000  0.4227390000000  0.5747620000000 1.0
C      1  0.6096910000000  0.4715440000000  0.5123080000000 1.0
C      1  0.4428460000000  0.5342690000000  0.4389240000000 1.0
C      1  0.5442590000000  0.5197890000000  0.5326670000000 1.0
C      1  0.5113750000000  0.4435410000000  0.4016200000000 1.0
C      1  0.4601010000000  0.4117600000000  0.4193800000000 1.0
C      1  0.5391590000000  0.4906470000000  0.4381350000000 1.0
C      1  0.3667020000000  0.5428630000000  0.5387730000000 1.0
C      1  0.4263400000000  0.4866660000000  0.4208760000000 1.0
C      1  0.5981050000000  0.5532930000000  0.5843670000000 1.0
C      1  0.4587140000000  0.5421050000000  0.4168730000000 1.0
C      1  0.5615490000000  0.5613370000000  0.5534330000000 1.0
C      1  0.4741290000000  0.5601430000000  0.5918890000000 1.0
C      1  0.4944270000000  0.4795080000000  0.4238390000000 1.0
C      1  0.4406220000000  0.5287970000000  0.5890650000000 1.0
C      1  0.4409050000000  0.5009530000000  0.4000290000000 1.0
C      1  0.4489290000000  0.4999530000000  0.4764890000000 1.0
C      1  0.5590190000000  0.4975970000000  0.5236110000000 1.0
C      1  0.5511260000000  0.5015390000000  0.5913040000000 1.0
C      1  0.4697430000000  0.4703300000000  0.4310920000000 1.0
C      1  0.4726640000000  0.4739000000000  0.5532580000000 1.0
C      1  0.4115340000000  0.4417190000000  0.4538060000000 1.0
C      1  0.5109310000000  0.4637000000000  0.5944680000000 1.0
C      1  0.5359090000000  0.5543420000000  0.5642540000000 1.0
C      1  0.4816790000000  0.3567620000000  0.5092750000000 1.0
C      1  0.5035970000000  0.5077680000000  0.4632940000000 1.0
C      1  0.6031160000000  0.5385180000000  0.5383380000000 1.0
C      1  0.4567690000000  0.5206180000000  0.4593750000000 1.0
C      1  0.5828390000000  0.4043840000000  0.5255330000000 1.0
C      1  0.5428190000000  0.5907030000000  0.4730170000000 1.0
C      1  0.4927470000000  0.4938400000000  0.5488800000000 1.0
C      1  0.5142970000000  0.6369550000000  0.5200200000000 1.0
C      1  0.5112550000000  0.4930960000000  0.4408550000000 1.0
C      1  0.4368260000000  0.4248840000000  0.4587510000000 1.0
C      1  0.4627830000000  0.4244860000000  0.4443210000000 1.0
C      1  0.5654130000000  0.6129530000000  0.5125630000000 1.0
C      1  0.5588270000000  0.2924730000000  0.4798960000000 1.0
C      1  0.5877050000000  0.5509380000000  0.5591330000000 1.0
C      1  0.5261030000000  0.4155450000000  0.5161000000000 1.0
C      1  0.5407270000000  0.5630150000000  0.4847750000000 1.0
C      1  0.5035270000000  0.4705900000000  0.3982440000000 1.0
C      1  0.5117480000000  0.5360970000000  0.3952950000000 1.0
C      1  0.5349320000000  0.5691550000000  0.5125700000000 1.0
C      1  0.5787240000000  0.5878870000000  0.5149400000000 1.0
C      1  0.5520830000000  0.4775250000000  0.5433230000000 1.0
C      1  0.4741570000000  0.4921760000000  0.5972040000000 1.0
C      1  0.4783180000000  0.5426610000000  0.5487070000000 1.0
C      1  0.5458930000000  0.4352580000000  0.5216050000000 1.0
C      1  0.4891550000000  0.5602250000000  0.5679800000000 1.0
C      1  0.4305460000000  0.4586370000000  0.4889570000000 1.0
C      1  0.6009400000000  0.5169420000000  0.4388190000000 1.0
C      1  0.4263310000000  0.5722400000000  0.4753440000000 1.0
C      1  0.5018310000000  0.5594010000000  0.4097480000000 1.0
C      1  0.5421620000000  0.4586110000000  0.4719100000000 1.0
C      1  0.4150430000000  0.5365310000000  0.4388160000000 1.0
C      1  0.4836320000000  0.5383690000000  0.6094350000000 1.0
C      1  0.4382120000000  0.5789740000000  0.4520120000000 1.0
C      1  0.5540700000000  0.5881010000000  0.4246850000000 1.0
C      1  0.5578780000000  0.5409830000000  0.4381600000000 1.0
C      1  0.3775840000000  0.4759970000000  0.5318520000000 1.0
END
