TITL C-3201375-1262-1602 746162.42937222 125000 -958.43102382805 0 0 158 (C1) n - 1
REM
REM in /home/nfs/bkarasulu/CARBON/AIRSS/Generating-Clusters/LCBOP/Higher-Symm/SD-CG/FIRE-CG
REM
REM
REM
REM
REM
REM ./C.cell (b20cbc046b6831c77cfcea5457e17084)
REM AIRSS Version 0.9.1 bugfix July 2018 build 013d7b7c2542+ Fri, 06 Jul 2018 19:26:36 +0100
REM compiler GCC version 9.2.1 20190827 (Red Hat 9.2.1-1)
REM options -cpp -mtune=generic -march=x86-64 -g -O0 -fpre-include=/usr/include/finclude/math-vector-fortran.h
REM seed -155179800 -2108034855 -1608177977 151740274 1624494585 777347208 693737753 1240906057 -233685630 506304114 -1931581882 -673120162 -1947788497 1236448738 1551613348 -591159255 424809208 1983171270 -1796985905 -140536427 -716764709 2029393239 293437460 913153491 1055869590 1915221860 1186497497 -698598172 1133417816 1581597545 -913904943 718481232 169080665
REM
CELL 1.54180   50.00000   50.00000   50.00000   90.00000   90.00000   90.00000
LATT -1
SFAC C  
C      1  0.5645620000000  0.5840520000000  0.4802590000000 1.0
C      1  0.5044340000000  0.5758210000000  0.4356310000000 1.0
C      1  0.4396880000000  0.5755170000000  0.4710080000000 1.0
C      1  0.4406750000000  0.5746150000000  0.5415460000000 1.0
C      1  0.5273180000000  0.5868940000000  0.5718880000000 1.0
C      1  0.5722640000000  0.4691520000000  0.6757310000000 1.0
C      1  0.6882250000000  0.4696670000000  0.4918020000000 1.0
C      1  0.5483430000000  0.4741630000000  0.3207900000000 1.0
C      1  0.3384970000000  0.4763340000000  0.4017340000000 1.0
C      1  0.3513390000000  0.4720310000000  0.6132310000000 1.0
C      1  0.5127300000000  0.4125270000000  0.5212530000000 1.0
C      1  0.5249130000000  0.4187380000000  0.4953840000000 1.0
C      1  0.5061420000000  0.4124510000000  0.4728480000000 1.0
C      1  0.4803040000000  0.4170620000000  0.4872160000000 1.0
C      1  0.4828260000000  0.4115500000000  0.5158050000000 1.0
C      1  0.4861320000000  0.5142310000000  0.4925240000000 1.0
C      1  0.4784930000000  0.5253440000000  0.5179280000000 1.0
C      1  0.5016300000000  0.5262230000000  0.5340210000000 1.0
C      1  0.5225670000000  0.5158770000000  0.5191250000000 1.0
C      1  0.5142640000000  0.5065330000000  0.4941780000000 1.0
C      1  0.5086510000000  0.5032940000000  0.5698690000000 1.0
C      1  0.5715260000000  0.5031260000000  0.5142940000000 1.0
C      1  0.5324790000000  0.5020540000000  0.4342190000000 1.0
C      1  0.4565680000000  0.5056090000000  0.4536990000000 1.0
C      1  0.4424940000000  0.5024200000000  0.5269630000000 1.0
C      1  0.4492540000000  0.5212800000000  0.5501070000000 1.0
C      1  0.5388380000000  0.5218170000000  0.5680600000000 1.0
C      1  0.5743810000000  0.5211640000000  0.4830230000000 1.0
C      1  0.5066640000000  0.5222120000000  0.4292520000000 1.0
C      1  0.4381360000000  0.5218740000000  0.4716190000000 1.0
C      1  0.4468160000000  0.4733100000000  0.5255430000000 1.0
C      1  0.5060290000000  0.4753060000000  0.5635020000000 1.0
C      1  0.5593350000000  0.4762970000000  0.5127960000000 1.0
C      1  0.5306430000000  0.4732130000000  0.4420240000000 1.0
C      1  0.4608820000000  0.4771960000000  0.4543920000000 1.0
C      1  0.6372760000000  0.4157910000000  0.5463710000000 1.0
C      1  0.5881350000000  0.4177160000000  0.3836490000000 1.0
C      1  0.4108900000000  0.4269540000000  0.3751020000000 1.0
C      1  0.3628240000000  0.4145360000000  0.5412070000000 1.0
C      1  0.4959310000000  0.4225540000000  0.6529090000000 1.0
C      1  0.5135000000000  0.4316920000000  0.5421600000000 1.0
C      1  0.5263400000000  0.4475920000000  0.4937210000000 1.0
C      1  0.5092990000000  0.4282320000000  0.4489110000000 1.0
C      1  0.4777630000000  0.4456480000000  0.4846700000000 1.0
C      1  0.4735760000000  0.4302710000000  0.5348950000000 1.0
C      1  0.3462880000000  0.4195440000000  0.5613690000000 1.0
C      1  0.5128410000000  0.4256250000000  0.6731410000000 1.0
C      1  0.6625670000000  0.4197500000000  0.5393230000000 1.0
C      1  0.5870570000000  0.4225630000000  0.3575680000000 1.0
C      1  0.3856410000000  0.4312920000000  0.3681320000000 1.0
C      1  0.6500520000000  0.4891690000000  0.4628430000000 1.0
C      1  0.5089490000000  0.4957360000000  0.3467220000000 1.0
C      1  0.3562230000000  0.4902780000000  0.4483340000000 1.0
C      1  0.3986020000000  0.4928510000000  0.6170510000000 1.0
C      1  0.5869140000000  0.4865560000000  0.6291480000000 1.0
C      1  0.4885910000000  0.5644400000000  0.6052980000000 1.0
C      1  0.6025580000000  0.5710690000000  0.5269700000000 1.0
C      1  0.5582580000000  0.5697240000000  0.4089760000000 1.0
C      1  0.4365620000000  0.5618370000000  0.4129950000000 1.0
C      1  0.3931490000000  0.5578700000000  0.5215340000000 1.0
C      1  0.5512330000000  0.4643080000000  0.5390970000000 1.0
C      1  0.5532550000000  0.4655010000000  0.4599780000000 1.0
C      1  0.4800550000000  0.4660570000000  0.4348060000000 1.0
C      1  0.4370310000000  0.4630910000000  0.4996360000000 1.0
C      1  0.4782840000000  0.4655350000000  0.5661640000000 1.0
C      1  0.3928800000000  0.4732320000000  0.4817070000000 1.0
C      1  0.4464430000000  0.4793670000000  0.6007310000000 1.0
C      1  0.5780550000000  0.4740990000000  0.5790270000000 1.0
C      1  0.6005770000000  0.4754250000000  0.4525560000000 1.0
C      1  0.4808160000000  0.4826670000000  0.3887490000000 1.0
C      1  0.4737200000000  0.6042410000000  0.5105010000000 1.0
C      1  0.5022420000000  0.6079850000000  0.5247590000000 1.0
C      1  0.5227440000000  0.6066620000000  0.5025110000000 1.0
C      1  0.5090230000000  0.6049010000000  0.4765150000000 1.0
C      1  0.4800500000000  0.6037230000000  0.4806980000000 1.0
C      1  0.5488880000000  0.4635310000000  0.4885900000000 1.0
C      1  0.5070240000000  0.4560300000000  0.4406560000000 1.0
C      1  0.4557390000000  0.4614000000000  0.4779020000000 1.0
C      1  0.4639830000000  0.4558890000000  0.5428110000000 1.0
C      1  0.5243630000000  0.4573480000000  0.5491640000000 1.0
C      1  0.3429900000000  0.4872780000000  0.4255160000000 1.0
C      1  0.3728590000000  0.4865880000000  0.6187350000000 1.0
C      1  0.5833410000000  0.4814150000000  0.6549430000000 1.0
C      1  0.6729210000000  0.4835360000000  0.4750960000000 1.0
C      1  0.5281450000000  0.4889210000000  0.3297010000000 1.0
C      1  0.5439380000000  0.5366800000000  0.5230110000000 1.0
C      1  0.5274280000000  0.5191450000000  0.4738760000000 1.0
C      1  0.4848760000000  0.5371270000000  0.4714180000000 1.0
C      1  0.4715200000000  0.5535450000000  0.5166330000000 1.0
C      1  0.5076940000000  0.5525090000000  0.5435840000000 1.0
C      1  0.4329630000000  0.5468290000000  0.5485960000000 1.0
C      1  0.5314830000000  0.5533070000000  0.5829520000000 1.0
C      1  0.5854690000000  0.5548700000000  0.4834880000000 1.0
C      1  0.5136880000000  0.5508190000000  0.4216080000000 1.0
C      1  0.4312210000000  0.5488850000000  0.4606450000000 1.0
C      1  0.3741710000000  0.4851080000000  0.4671730000000 1.0
C      1  0.4240480000000  0.4900000000000  0.6101080000000 1.0
C      1  0.5842290000000  0.4838220000000  0.6028990000000 1.0
C      1  0.6246850000000  0.4859630000000  0.4557670000000 1.0
C      1  0.4929160000000  0.4933750000000  0.3677310000000 1.0
C      1  0.4839160000000  0.4282300000000  0.6299430000000 1.0
C      1  0.6115600000000  0.4215740000000  0.5494800000000 1.0
C      1  0.5850500000000  0.4227340000000  0.4095270000000 1.0
C      1  0.4340560000000  0.4315210000000  0.3872120000000 1.0
C      1  0.3819940000000  0.4195920000000  0.5235570000000 1.0
C      1  0.4469410000000  0.5915510000000  0.5179970000000 1.0
C      1  0.5065000000000  0.6011720000000  0.5543350000000 1.0
C      1  0.5492900000000  0.5946240000000  0.5051410000000 1.0
C      1  0.5220090000000  0.5921180000000  0.4538340000000 1.0
C      1  0.4631810000000  0.5903010000000  0.4609660000000 1.0
C      1  0.5807470000000  0.4367890000000  0.4316050000000 1.0
C      1  0.4536420000000  0.4443260000000  0.3996850000000 1.0
C      1  0.3988900000000  0.4339090000000  0.5089500000000 1.0
C      1  0.4755370000000  0.4417800000000  0.6087520000000 1.0
C      1  0.5894560000000  0.4360770000000  0.5516260000000 1.0
C      1  0.5665360000000  0.4549140000000  0.3227620000000 1.0
C      1  0.3451260000000  0.4601450000000  0.3817320000000 1.0
C      1  0.3385840000000  0.4525780000000  0.6004000000000 1.0
C      1  0.5546130000000  0.4527050000000  0.6868510000000 1.0
C      1  0.6917420000000  0.4509090000000  0.5102910000000 1.0
C      1  0.4752960000000  0.5158010000000  0.5668530000000 1.0
C      1  0.5612120000000  0.5197030000000  0.5386710000000 1.0
C      1  0.5491110000000  0.5135860000000  0.4585020000000 1.0
C      1  0.4803920000000  0.5209630000000  0.4457380000000 1.0
C      1  0.4350340000000  0.5143220000000  0.4999980000000 1.0
C      1  0.6053030000000  0.5599760000000  0.5024740000000 1.0
C      1  0.5362430000000  0.5547760000000  0.4047120000000 1.0
C      1  0.4234530000000  0.5496590000000  0.4332240000000 1.0
C      1  0.4052150000000  0.5438600000000  0.5414490000000 1.0
C      1  0.5126830000000  0.5521120000000  0.6039680000000 1.0
C      1  0.4761650000000  0.5826890000000  0.4359350000000 1.0
C      1  0.4284750000000  0.5848090000000  0.4958900000000 1.0
C      1  0.4816000000000  0.5863430000000  0.5607190000000 1.0
C      1  0.5536740000000  0.5817880000000  0.5311930000000 1.0
C      1  0.5513820000000  0.5895130000000  0.4546860000000 1.0
C      1  0.5806810000000  0.5805140000000  0.5397280000000 1.0
C      1  0.5646250000000  0.5849680000000  0.4302270000000 1.0
C      1  0.4593120000000  0.5762400000000  0.4142360000000 1.0
C      1  0.4026540000000  0.5757650000000  0.5036270000000 1.0
C      1  0.4753590000000  0.5798440000000  0.5874060000000 1.0
C      1  0.3371050000000  0.4333810000000  0.5820970000000 1.0
C      1  0.5334680000000  0.4366630000000  0.6857110000000 1.0
C      1  0.6823370000000  0.4325470000000  0.5270370000000 1.0
C      1  0.5799440000000  0.4360890000000  0.3358490000000 1.0
C      1  0.3620990000000  0.4434670000000  0.3699050000000 1.0
C      1  0.5783470000000  0.4590150000000  0.4483970000000 1.0
C      1  0.4713580000000  0.4644030000000  0.4076740000000 1.0
C      1  0.4097040000000  0.4564350000000  0.4964340000000 1.0
C      1  0.4667630000000  0.4623190000000  0.5919380000000 1.0
C      1  0.5729310000000  0.4580250000000  0.5567500000000 1.0
C      1  0.4829670000000  0.5662410000000  0.5403950000000 1.0
C      1  0.5347880000000  0.5603470000000  0.5386190000000 1.0
C      1  0.5452020000000  0.5496670000000  0.4978580000000 1.0
C      1  0.5132470000000  0.5432050000000  0.4682010000000 1.0
C      1  0.4730830000000  0.5578150000000  0.4889540000000 1.0
C      1  0.5003270000000  0.4591530000000  0.4960370000000 1.0
C      1  0.4951120000000  0.4757590000000  0.5166460000000 1.0
C      1  0.5268740000000  0.5615320000000  0.4829330000000 1.0
END
