TITL C-3201376-6384-1949 -4.13713909233576e-07 125000 -922.361437847111 0 0 148 (C1) n - 1
REM
REM in /home/nfs/bkarasulu/CARBON/AIRSS/Generating-Clusters/LCBOP/Higher-Symm/SD-CG/FIRE-CG
REM
REM
REM
REM
REM
REM ./C.cell (b20cbc046b6831c77cfcea5457e17084)
REM AIRSS Version 0.9.1 bugfix July 2018 build 013d7b7c2542+ Fri, 06 Jul 2018 19:26:36 +0100
REM compiler GCC version 9.2.1 20190827 (Red Hat 9.2.1-1)
REM options -cpp -mtune=generic -march=x86-64 -g -O0 -fpre-include=/usr/include/finclude/math-vector-fortran.h
REM seed -1728162055 1420176000 2010822630 -1579627761 -1128188200 347069621 1554542313 -1134366120 -783777846 248604069 36294045 19906749 1736290079 1309041565 -2025510900 -1297237423 -130876487 -1262557852 -1919528399 221045511 -1519856282 -1143478517 1233222816 -1017508256 1143361167 875822520 -1542253170 623746235 -1900988390 -251310008 850809059 -38740631 -140902922
REM
CELL 1.54180   50.00000   50.00000   50.00000   90.00000   90.00000   90.00000
LATT -1
SFAC C  
C      1  0.3543100000000  0.4652970000000  0.4628580000000 1.0
C      1  0.5804370000000  0.4794870000000  0.3785460000000 1.0
C      1  0.5257630000000  0.4800060000000  0.6741480000000 1.0
C      1  0.5607220000000  0.3954180000000  0.4459650000000 1.0
C      1  0.5121430000000  0.4136410000000  0.5755870000000 1.0
C      1  0.4284570000000  0.4035600000000  0.4784320000000 1.0
C      1  0.4626920000000  0.4033490000000  0.5178700000000 1.0
C      1  0.5133310000000  0.4010440000000  0.4620560000000 1.0
C      1  0.5308010000000  0.4064520000000  0.5260450000000 1.0
C      1  0.5444010000000  0.5127770000000  0.5137000000000 1.0
C      1  0.4394520000000  0.5092390000000  0.5359940000000 1.0
C      1  0.4966480000000  0.4952600000000  0.4205480000000 1.0
C      1  0.4363830000000  0.5601170000000  0.5431440000000 1.0
C      1  0.4922060000000  0.5547220000000  0.4193230000000 1.0
C      1  0.5795260000000  0.5655520000000  0.5276670000000 1.0
C      1  0.4584290000000  0.4140420000000  0.5442340000000 1.0
C      1  0.4883500000000  0.4077460000000  0.4495830000000 1.0
C      1  0.5570710000000  0.4158050000000  0.5171350000000 1.0
C      1  0.5127380000000  0.5950030000000  0.4582490000000 1.0
C      1  0.5715450000000  0.5760510000000  0.5526480000000 1.0
C      1  0.4370150000000  0.5783370000000  0.5209990000000 1.0
C      1  0.4899200000000  0.4598260000000  0.6434050000000 1.0
C      1  0.3818700000000  0.4478930000000  0.4263150000000 1.0
C      1  0.6033090000000  0.4517350000000  0.4149180000000 1.0
C      1  0.4943350000000  0.4548950000000  0.4598660000000 1.0
C      1  0.5433070000000  0.4622320000000  0.5063210000000 1.0
C      1  0.4723230000000  0.4593760000000  0.5295300000000 1.0
C      1  0.5322230000000  0.5242770000000  0.4072400000000 1.0
C      1  0.5784270000000  0.5193720000000  0.5463400000000 1.0
C      1  0.3979600000000  0.5116970000000  0.5043510000000 1.0
C      1  0.4662260000000  0.4464250000000  0.5043810000000 1.0
C      1  0.5215170000000  0.4460190000000  0.4625910000000 1.0
C      1  0.5219880000000  0.4515390000000  0.5239210000000 1.0
C      1  0.4774580000000  0.4493150000000  0.5969250000000 1.0
C      1  0.4283570000000  0.4397090000000  0.4383390000000 1.0
C      1  0.5915200000000  0.4372370000000  0.4601710000000 1.0
C      1  0.3658710000000  0.4849070000000  0.4766880000000 1.0
C      1  0.5673340000000  0.5026390000000  0.3794400000000 1.0
C      1  0.5422210000000  0.5008450000000  0.6730640000000 1.0
C      1  0.5654430000000  0.5442380000000  0.5872990000000 1.0
C      1  0.4016410000000  0.5587230000000  0.4904660000000 1.0
C      1  0.5407690000000  0.5665560000000  0.4286180000000 1.0
C      1  0.4569630000000  0.5734820000000  0.4568600000000 1.0
C      1  0.5430780000000  0.5908900000000  0.5034630000000 1.0
C      1  0.4806460000000  0.5800150000000  0.5620240000000 1.0
C      1  0.4283120000000  0.5084750000000  0.4276060000000 1.0
C      1  0.6011500000000  0.5035180000000  0.4624880000000 1.0
C      1  0.4697940000000  0.5153320000000  0.5972720000000 1.0
C      1  0.5516080000000  0.5324770000000  0.4648000000000 1.0
C      1  0.5082890000000  0.5403390000000  0.5711990000000 1.0
C      1  0.4612190000000  0.5267370000000  0.4769220000000 1.0
C      1  0.5231810000000  0.4032530000000  0.5532530000000 1.0
C      1  0.4423450000000  0.3952740000000  0.5000100000000 1.0
C      1  0.5352240000000  0.3879380000000  0.4502210000000 1.0
C      1  0.5221230000000  0.5506510000000  0.5283150000000 1.0
C      1  0.4995070000000  0.5456500000000  0.5120670000000 1.0
C      1  0.5056230000000  0.5431190000000  0.4837910000000 1.0
C      1  0.4725860000000  0.5520550000000  0.3989910000000 1.0
C      1  0.5911340000000  0.5385260000000  0.5257570000000 1.0
C      1  0.4282770000000  0.5629930000000  0.5698220000000 1.0
C      1  0.5392630000000  0.4613400000000  0.4474420000000 1.0
C      1  0.5216980000000  0.4670670000000  0.5483990000000 1.0
C      1  0.4452570000000  0.4593060000000  0.4911640000000 1.0
C      1  0.5535720000000  0.5213880000000  0.6606290000000 1.0
C      1  0.3848820000000  0.5050570000000  0.4791120000000 1.0
C      1  0.5582100000000  0.5239220000000  0.3949120000000 1.0
C      1  0.4845350000000  0.5378580000000  0.4661940000000 1.0
C      1  0.5440910000000  0.5419660000000  0.5118350000000 1.0
C      1  0.4757330000000  0.5387090000000  0.5246260000000 1.0
C      1  0.5278470000000  0.5535630000000  0.5560550000000 1.0
C      1  0.4450880000000  0.5448390000000  0.4899840000000 1.0
C      1  0.5297640000000  0.5498900000000  0.4703600000000 1.0
C      1  0.6126150000000  0.4408270000000  0.5037160000000 1.0
C      1  0.4398700000000  0.4740360000000  0.5731110000000 1.0
C      1  0.4628390000000  0.4619470000000  0.4118650000000 1.0
C      1  0.4705100000000  0.5911080000000  0.4852930000000 1.0
C      1  0.5168700000000  0.6023330000000  0.5046710000000 1.0
C      1  0.4804720000000  0.5947100000000  0.5371710000000 1.0
C      1  0.4658980000000  0.5437860000000  0.5952880000000 1.0
C      1  0.4303540000000  0.5374980000000  0.4238660000000 1.0
C      1  0.5996620000000  0.5320450000000  0.4698080000000 1.0
C      1  0.4516090000000  0.4952450000000  0.5581270000000 1.0
C      1  0.4706250000000  0.4864500000000  0.4239900000000 1.0
C      1  0.5817070000000  0.4858730000000  0.5008980000000 1.0
C      1  0.5319500000000  0.4897650000000  0.5014050000000 1.0
C      1  0.4867310000000  0.4830990000000  0.5221630000000 1.0
C      1  0.4916910000000  0.4788990000000  0.4743880000000 1.0
C      1  0.5519030000000  0.5067040000000  0.5412400000000 1.0
C      1  0.4239640000000  0.5004620000000  0.5119700000000 1.0
C      1  0.5236750000000  0.5017920000000  0.4226150000000 1.0
C      1  0.5639130000000  0.4408020000000  0.5030400000000 1.0
C      1  0.4645010000000  0.4413410000000  0.5510460000000 1.0
C      1  0.4775550000000  0.4344330000000  0.4477140000000 1.0
C      1  0.6049780000000  0.4560760000000  0.4426970000000 1.0
C      1  0.4782070000000  0.4675690000000  0.6191720000000 1.0
C      1  0.4082520000000  0.4578270000000  0.4274460000000 1.0
C      1  0.5299730000000  0.5735540000000  0.4537240000000 1.0
C      1  0.5526190000000  0.5617950000000  0.5684780000000 1.0
C      1  0.4274380000000  0.5650840000000  0.4984160000000 1.0
C      1  0.5767990000000  0.5452500000000  0.4556980000000 1.0
C      1  0.4859510000000  0.5569710000000  0.5788230000000 1.0
C      1  0.4271230000000  0.5563320000000  0.4467530000000 1.0
C      1  0.5938720000000  0.4606000000000  0.3916470000000 1.0
C      1  0.5069360000000  0.4647380000000  0.6632280000000 1.0
C      1  0.3599330000000  0.4502260000000  0.4414850000000 1.0
C      1  0.4145640000000  0.4742530000000  0.5830160000000 1.0
C      1  0.4623450000000  0.4576620000000  0.3850040000000 1.0
C      1  0.6348520000000  0.4417540000000  0.5172710000000 1.0
C      1  0.4616470000000  0.5915430000000  0.5147510000000 1.0
C      1  0.4986770000000  0.5995450000000  0.4821230000000 1.0
C      1  0.5044820000000  0.6074440000000  0.5293740000000 1.0
C      1  0.3905720000000  0.5393710000000  0.5087220000000 1.0
C      1  0.5210240000000  0.5500970000000  0.4143880000000 1.0
C      1  0.5822480000000  0.5254770000000  0.5740290000000 1.0
C      1  0.5536450000000  0.5042770000000  0.4623900000000 1.0
C      1  0.5046390000000  0.5117290000000  0.5653560000000 1.0
C      1  0.4507070000000  0.5020690000000  0.4692780000000 1.0
C      1  0.5214700000000  0.4228350000000  0.4796030000000 1.0
C      1  0.5122310000000  0.4247000000000  0.5097890000000 1.0
C      1  0.4818450000000  0.4218070000000  0.5061980000000 1.0
C      1  0.4225650000000  0.4198090000000  0.4578270000000 1.0
C      1  0.5798170000000  0.4138710000000  0.4492340000000 1.0
C      1  0.4977710000000  0.4299310000000  0.5915780000000 1.0
C      1  0.4797250000000  0.5573560000000  0.4455440000000 1.0
C      1  0.5586050000000  0.5674610000000  0.5081010000000 1.0
C      1  0.4499020000000  0.5358590000000  0.5354780000000 1.0
C      1  0.4025520000000  0.5504750000000  0.4625950000000 1.0
C      1  0.5689130000000  0.5570830000000  0.4296940000000 1.0
C      1  0.5622000000000  0.5449260000000  0.6148190000000 1.0
C      1  0.4704780000000  0.4949590000000  0.6166310000000 1.0
C      1  0.4115530000000  0.4860240000000  0.4218020000000 1.0
C      1  0.6144910000000  0.4819990000000  0.4504500000000 1.0
C      1  0.5889140000000  0.4405910000000  0.4886250000000 1.0
C      1  0.4581910000000  0.4525680000000  0.5760430000000 1.0
C      1  0.4558700000000  0.4424460000000  0.4312110000000 1.0
C      1  0.4380960000000  0.4866190000000  0.4900050000000 1.0
C      1  0.5400100000000  0.4892290000000  0.4426300000000 1.0
C      1  0.5275490000000  0.4949550000000  0.5554830000000 1.0
C      1  0.5761290000000  0.5430520000000  0.4060430000000 1.0
C      1  0.5595370000000  0.5369640000000  0.6399790000000 1.0
C      1  0.3886610000000  0.5254750000000  0.4591420000000 1.0
C      1  0.4463300000000  0.5462970000000  0.4020560000000 1.0
C      1  0.6027400000000  0.5352110000000  0.4990610000000 1.0
C      1  0.4400150000000  0.5549100000000  0.5928210000000 1.0
C      1  0.4765610000000  0.5047700000000  0.5707250000000 1.0
C      1  0.4513890000000  0.4981910000000  0.4412570000000 1.0
C      1  0.5770290000000  0.4939070000000  0.4752080000000 1.0
C      1  0.5027530000000  0.4884680000000  0.4987590000000 1.0
END
