TITL C-3201379-3821-1526 85725.30572791 125000 -451.539617412862 0 0 76 (C1) n - 1
REM
REM in /home/nfs/bkarasulu/CARBON/AIRSS/Generating-Clusters/LCBOP/Higher-Symm/SD-CG/FIRE-CG
REM
REM
REM
REM
REM
REM ./C.cell (b20cbc046b6831c77cfcea5457e17084)
REM AIRSS Version 0.9.1 bugfix July 2018 build 013d7b7c2542+ Fri, 06 Jul 2018 19:26:36 +0100
REM compiler GCC version 9.2.1 20190827 (Red Hat 9.2.1-1)
REM options -cpp -mtune=generic -march=x86-64 -g -O0 -fpre-include=/usr/include/finclude/math-vector-fortran.h
REM seed -991631466 2025036682 456768819 1761911889 32557423 927352089 -1646435969 -921792840 1696455939 373954363 -1734293673 -232224005 -2030559237 -172163932 1113096791 -335349588 -2005736715 -1601085168 -355400375 170288121 546754983 1773822059 1364974516 1384083266 -1307023571 91817803 753705609 35425102 -1177203638 -1416984817 -1680509006 1136686503 1983905476
REM
CELL 1.54180   50.00000   50.00000   50.00000   90.00000   90.00000   90.00000
LATT -1
SFAC C  
C      1  0.5165660000000  0.4846130000000  0.5172350000000 1.0
C      1  0.4849580000000  0.4825500000000  0.5168980000000 1.0
C      1  0.4824820000000  0.5136000000000  0.5165630000000 1.0
C      1  0.5148840000000  0.5168990000000  0.5171500000000 1.0
C      1  0.5198000000000  0.6013230000000  0.5473340000000 1.0
C      1  0.6006730000000  0.4808430000000  0.5478650000000 1.0
C      1  0.4820970000000  0.3993140000000  0.5473490000000 1.0
C      1  0.3969500000000  0.5142830000000  0.5462280000000 1.0
C      1  0.4489210000000  0.4681810000000  0.4882670000000 1.0
C      1  0.4688450000000  0.5495320000000  0.4896620000000 1.0
C      1  0.5510560000000  0.5313990000000  0.4885130000000 1.0
C      1  0.5317580000000  0.4487650000000  0.4885120000000 1.0
C      1  0.4813760000000  0.4686940000000  0.4905040000000 1.0
C      1  0.4698380000000  0.5171970000000  0.4893440000000 1.0
C      1  0.5188020000000  0.5306650000000  0.4906520000000 1.0
C      1  0.5311990000000  0.4810520000000  0.4910680000000 1.0
C      1  0.5768720000000  0.4800240000000  0.4851030000000 1.0
C      1  0.4802000000000  0.4230860000000  0.4847370000000 1.0
C      1  0.4240250000000  0.5211060000000  0.4863000000000 1.0
C      1  0.5197300000000  0.5763580000000  0.4849230000000 1.0
C      1  0.4717970000000  0.5210050000000  0.4371150000000 1.0
C      1  0.5205640000000  0.5283100000000  0.4372060000000 1.0
C      1  0.5283810000000  0.4795630000000  0.4372440000000 1.0
C      1  0.4795260000000  0.4719990000000  0.4369590000000 1.0
C      1  0.4768480000000  0.4235720000000  0.5357430000000 1.0
C      1  0.4212840000000  0.5212360000000  0.5363190000000 1.0
C      1  0.5235600000000  0.5770680000000  0.5352660000000 1.0
C      1  0.5764460000000  0.4765500000000  0.5358170000000 1.0
C      1  0.5496210000000  0.5227610000000  0.4393830000000 1.0
C      1  0.5227830000000  0.4505530000000  0.4393330000000 1.0
C      1  0.4503970000000  0.4777690000000  0.4394920000000 1.0
C      1  0.4769580000000  0.5500830000000  0.4402580000000 1.0
C      1  0.4882130000000  0.4814470000000  0.4643910000000 1.0
C      1  0.4826210000000  0.5117950000000  0.4637630000000 1.0
C      1  0.5119950000000  0.5177980000000  0.4645920000000 1.0
C      1  0.5188400000000  0.4879640000000  0.4649130000000 1.0
C      1  0.4443660000000  0.5090920000000  0.4396990000000 1.0
C      1  0.5079740000000  0.5553950000000  0.4393190000000 1.0
C      1  0.5555290000000  0.4919500000000  0.4388090000000 1.0
C      1  0.4918950000000  0.4447520000000  0.4384300000000 1.0
C      1  0.4437720000000  0.4992230000000  0.4903410000000 1.0
C      1  0.4994310000000  0.5556440000000  0.4906880000000 1.0
C      1  0.5563720000000  0.5005480000000  0.4909340000000 1.0
C      1  0.5008120000000  0.4435290000000  0.4903850000000 1.0
C      1  0.5146190000000  0.5526970000000  0.5475150000000 1.0
C      1  0.5520190000000  0.4852500000000  0.5483730000000 1.0
C      1  0.4844500000000  0.4481400000000  0.5488230000000 1.0
C      1  0.4466910000000  0.5147250000000  0.5481820000000 1.0
C      1  0.4557440000000  0.5544740000000  0.4617920000000 1.0
C      1  0.5550170000000  0.5429260000000  0.4598450000000 1.0
C      1  0.5431580000000  0.4450430000000  0.4597190000000 1.0
C      1  0.4450280000000  0.4570500000000  0.4595350000000 1.0
C      1  0.5552130000000  0.4423540000000  0.5067990000000 1.0
C      1  0.4426230000000  0.4447030000000  0.5065910000000 1.0
C      1  0.4520390000000  0.5512550000000  0.5152570000000 1.0
C      1  0.5574060000000  0.5550620000000  0.5065920000000 1.0
C      1  0.5366520000000  0.5751800000000  0.5093000000000 1.0
C      1  0.5751590000000  0.4632450000000  0.5097820000000 1.0
C      1  0.4635900000000  0.4248200000000  0.5095950000000 1.0
C      1  0.4256330000000  0.5364440000000  0.5117670000000 1.0
C      1  0.4706310000000  0.4318040000000  0.4576710000000 1.0
C      1  0.4325960000000  0.5312310000000  0.4592500000000 1.0
C      1  0.5292020000000  0.5681880000000  0.4581040000000 1.0
C      1  0.5684100000000  0.4707110000000  0.4580230000000 1.0
C      1  0.4783700000000  0.4968980000000  0.5796810000000 1.0
C      1  0.4922870000000  0.5228290000000  0.5789390000000 1.0
C      1  0.5248710000000  0.5073100000000  0.5820490000000 1.0
C      1  0.5033140000000  0.4799410000000  0.5812760000000 1.0
C      1  0.4596380000000  0.4912510000000  0.5589030000000 1.0
C      1  0.4891460000000  0.5419690000000  0.5577220000000 1.0
C      1  0.5410880000000  0.5103750000000  0.5593000000000 1.0
C      1  0.5087180000000  0.4605870000000  0.5605040000000 1.0
C      1  0.4686210000000  0.5333180000000  0.5366130000000 1.0
C      1  0.5292340000000  0.5286070000000  0.5403700000000 1.0
C      1  0.5278810000000  0.4707590000000  0.5412430000000 1.0
C      1  0.4699350000000  0.4717630000000  0.5402800000000 1.0
END
