TITL C-3201375-1262-285 1.21179791122263e-07 125000 -320.12891237859 0 0 54 (C1) n - 1
REM
REM in /home/nfs/bkarasulu/CARBON/AIRSS/Generating-Clusters/LCBOP/Higher-Symm/SD-CG/FIRE-CG
REM
REM
REM
REM
REM
REM ./C.cell (b20cbc046b6831c77cfcea5457e17084)
REM AIRSS Version 0.9.1 bugfix July 2018 build 013d7b7c2542+ Fri, 06 Jul 2018 19:26:36 +0100
REM compiler GCC version 9.2.1 20190827 (Red Hat 9.2.1-1)
REM options -cpp -mtune=generic -march=x86-64 -g -O0 -fpre-include=/usr/include/finclude/math-vector-fortran.h
REM seed 2135422328 382100339 -1089153748 -783915048 2142477489 479083438 493288257 1294118132 939363541 639938381 1905017511 24060842 1946873793 -1130601557 942110370 255576172 1614498696 144599884 1163937347 553837143 -1417096914 -330202801 801218222 -1335945885 -441639880 1071446559 2106320027 -634244179 242831781 1538738173 -1746365194 1360997323 1314185224
REM
CELL 1.54180   50.00000   50.00000   50.00000   90.00000   90.00000   90.00000
LATT -1
SFAC C  
C      1  0.4720940000000  0.5063450000000  0.4193730000000 1.0
C      1  0.4549390000000  0.4642080000000  0.5257420000000 1.0
C      1  0.4420340000000  0.5376990000000  0.5194410000000 1.0
C      1  0.4517520000000  0.5590060000000  0.4781940000000 1.0
C      1  0.5502410000000  0.4970960000000  0.5357820000000 1.0
C      1  0.5280910000000  0.5892220000000  0.5102900000000 1.0
C      1  0.5739040000000  0.4724240000000  0.4344710000000 1.0
C      1  0.4432690000000  0.4873760000000  0.5117120000000 1.0
C      1  0.4878910000000  0.4298870000000  0.5073690000000 1.0
C      1  0.4605690000000  0.5514740000000  0.5362790000000 1.0
C      1  0.5355470000000  0.4888610000000  0.5566510000000 1.0
C      1  0.4956180000000  0.4243680000000  0.4797800000000 1.0
C      1  0.5742920000000  0.5415670000000  0.5061980000000 1.0
C      1  0.4872090000000  0.4488780000000  0.4656470000000 1.0
C      1  0.4706000000000  0.4641410000000  0.5488310000000 1.0
C      1  0.4873520000000  0.4940810000000  0.5697620000000 1.0
C      1  0.4437290000000  0.5074810000000  0.5555060000000 1.0
C      1  0.5007180000000  0.5083480000000  0.5087290000000 1.0
C      1  0.4631650000000  0.4589910000000  0.4789400000000 1.0
C      1  0.4381480000000  0.5104620000000  0.5274290000000 1.0
C      1  0.4474710000000  0.4830970000000  0.4829440000000 1.0
C      1  0.4055530000000  0.5540300000000  0.4918460000000 1.0
C      1  0.4638020000000  0.4456620000000  0.5058010000000 1.0
C      1  0.5069280000000  0.4019680000000  0.4696040000000 1.0
C      1  0.5269270000000  0.4542850000000  0.4363940000000 1.0
C      1  0.4778030000000  0.5540730000000  0.4689300000000 1.0
C      1  0.5100630000000  0.4794650000000  0.5628640000000 1.0
C      1  0.4599080000000  0.5147760000000  0.4443330000000 1.0
C      1  0.5812230000000  0.5070500000000  0.4717560000000 1.0
C      1  0.4997960000000  0.5062370000000  0.4222610000000 1.0
C      1  0.5839010000000  0.4910600000000  0.4506750000000 1.0
C      1  0.5683630000000  0.5167690000000  0.4945090000000 1.0
C      1  0.5085110000000  0.4644310000000  0.4550090000000 1.0
C      1  0.5289930000000  0.4212810000000  0.5341160000000 1.0
C      1  0.5219380000000  0.4627340000000  0.5072450000000 1.0
C      1  0.5096000000000  0.4415890000000  0.5254640000000 1.0
C      1  0.5029010000000  0.5524150000000  0.5605690000000 1.0
C      1  0.4974250000000  0.5734780000000  0.4725700000000 1.0
C      1  0.5465750000000  0.4034610000000  0.5413100000000 1.0
C      1  0.5404580000000  0.5731330000000  0.5296750000000 1.0
C      1  0.4321930000000  0.5503720000000  0.4962990000000 1.0
C      1  0.5250710000000  0.5639600000000  0.5512690000000 1.0
C      1  0.4826720000000  0.5286490000000  0.4579790000000 1.0
C      1  0.4696830000000  0.5147380000000  0.5652530000000 1.0
C      1  0.5643360000000  0.5605410000000  0.5221070000000 1.0
C      1  0.5224720000000  0.4908000000000  0.4957480000000 1.0
C      1  0.5064290000000  0.5125460000000  0.4502770000000 1.0
C      1  0.5484690000000  0.5014710000000  0.5076490000000 1.0
C      1  0.5134390000000  0.5878540000000  0.4881260000000 1.0
C      1  0.4778600000000  0.5408230000000  0.5563010000000 1.0
C      1  0.4430270000000  0.5002880000000  0.4613370000000 1.0
C      1  0.5149490000000  0.4904160000000  0.4662940000000 1.0
C      1  0.5522840000000  0.4578520000000  0.4287850000000 1.0
C      1  0.4978150000000  0.4567750000000  0.5485740000000 1.0
END
