TITL C-3201378-2706-302 -92465.1667085099 125000 -1101.22379226232 0 0 184 (C1) n - 1
REM
REM in /home/nfs/bkarasulu/CARBON/AIRSS/Generating-Clusters/LCBOP/Higher-Symm/SD-CG/FIRE-CG
REM
REM
REM
REM
REM
REM ./C.cell (b20cbc046b6831c77cfcea5457e17084)
REM AIRSS Version 0.9.1 bugfix July 2018 build 013d7b7c2542+ Fri, 06 Jul 2018 19:26:36 +0100
REM compiler GCC version 9.2.1 20190827 (Red Hat 9.2.1-1)
REM options -cpp -mtune=generic -march=x86-64 -g -O0 -fpre-include=/usr/include/finclude/math-vector-fortran.h
REM seed 1523887225 1407491612 -1117945312 1890384181 -1393767793 -1515273628 983073770 -1650730237 -263414989 1342049379 1558829607 1404222265 1979721361 707499962 -832427409 -2073939552 -1526115924 -412592349 279830309 545916557 -1600918970 2020949995 -1974450115 1545592440 -1794831893 321458329 -1713995800 224974330 -309087976 -826947433 -1338761018 1212185837 -1600419345
REM
CELL 1.54180   50.00000   50.00000   50.00000   90.00000   90.00000   90.00000
LATT -1
SFAC C  
C      1  0.4114190000000  0.4341920000000  0.5137340000000 1.0
C      1  0.5362850000000  0.3942640000000  0.5150390000000 1.0
C      1  0.6083950000000  0.5015500000000  0.5140330000000 1.0
C      1  0.5305550000000  0.5978540000000  0.5152340000000 1.0
C      1  0.4073920000000  0.5663940000000  0.5148750000000 1.0
C      1  0.4129570000000  0.4324520000000  0.4828030000000 1.0
C      1  0.5336110000000  0.3987580000000  0.4842400000000 1.0
C      1  0.6041350000000  0.4997130000000  0.4838690000000 1.0
C      1  0.5316100000000  0.6030400000000  0.4851480000000 1.0
C      1  0.4086490000000  0.5655530000000  0.4844170000000 1.0
C      1  0.5834730000000  0.5211640000000  0.4108770000000 1.0
C      1  0.5026150000000  0.5833620000000  0.4165650000000 1.0
C      1  0.4218080000000  0.5307450000000  0.4144950000000 1.0
C      1  0.4486840000000  0.4337810000000  0.4163680000000 1.0
C      1  0.5467040000000  0.4291200000000  0.4131690000000 1.0
C      1  0.5825240000000  0.5233560000000  0.5837470000000 1.0
C      1  0.4998670000000  0.5813740000000  0.5863980000000 1.0
C      1  0.4227910000000  0.5263900000000  0.5842150000000 1.0
C      1  0.4450410000000  0.4345100000000  0.5861960000000 1.0
C      1  0.5466170000000  0.4290750000000  0.5851580000000 1.0
C      1  0.4545260000000  0.3970690000000  0.4856040000000 1.0
C      1  0.5776290000000  0.4272470000000  0.4834770000000 1.0
C      1  0.5934350000000  0.5528240000000  0.4833280000000 1.0
C      1  0.4777370000000  0.6056370000000  0.4842270000000 1.0
C      1  0.3956450000000  0.5115820000000  0.4838230000000 1.0
C      1  0.4557260000000  0.3988160000000  0.5157530000000 1.0
C      1  0.5783900000000  0.4281230000000  0.5138610000000 1.0
C      1  0.5937360000000  0.5524440000000  0.5135470000000 1.0
C      1  0.4770040000000  0.6056870000000  0.5147920000000 1.0
C      1  0.3936430000000  0.5117130000000  0.5138760000000 1.0
C      1  0.4671890000000  0.5436800000000  0.6081290000000 1.0
C      1  0.4498350000000  0.4847960000000  0.5956930000000 1.0
C      1  0.4976270000000  0.4444370000000  0.5972690000000 1.0
C      1  0.5544110000000  0.4808220000000  0.5986220000000 1.0
C      1  0.5377000000000  0.5462540000000  0.6014320000000 1.0
C      1  0.4687220000000  0.5472440000000  0.4024220000000 1.0
C      1  0.4478520000000  0.4854000000000  0.4028990000000 1.0
C      1  0.4982240000000  0.4443280000000  0.4020200000000 1.0
C      1  0.5543080000000  0.4791890000000  0.3972870000000 1.0
C      1  0.5352430000000  0.5448160000000  0.3973060000000 1.0
C      1  0.5520050000000  0.5771360000000  0.5208070000000 1.0
C      1  0.4302860000000  0.5865600000000  0.5224590000000 1.0
C      1  0.4020860000000  0.4627800000000  0.5208570000000 1.0
C      1  0.5082520000000  0.3919590000000  0.5275960000000 1.0
C      1  0.5984960000000  0.4750210000000  0.5244180000000 1.0
C      1  0.5555470000000  0.5878030000000  0.4741380000000 1.0
C      1  0.4325840000000  0.5843230000000  0.4781000000000 1.0
C      1  0.4065950000000  0.4616420000000  0.4744020000000 1.0
C      1  0.5039800000000  0.4001390000000  0.4801740000000 1.0
C      1  0.5905020000000  0.4738190000000  0.4771790000000 1.0
C      1  0.5080730000000  0.5329320000000  0.5696810000000 1.0
C      1  0.4823470000000  0.5289970000000  0.5629660000000 1.0
C      1  0.4759070000000  0.5055240000000  0.5506140000000 1.0
C      1  0.5050170000000  0.4706010000000  0.5580660000000 1.0
C      1  0.5343990000000  0.5004450000000  0.5622340000000 1.0
C      1  0.5170720000000  0.5259260000000  0.4403700000000 1.0
C      1  0.4907780000000  0.5197020000000  0.4355620000000 1.0
C      1  0.4614840000000  0.4862520000000  0.4523960000000 1.0
C      1  0.5039490000000  0.4744890000000  0.4387290000000 1.0
C      1  0.5331360000000  0.5041640000000  0.4307780000000 1.0
C      1  0.5443850000000  0.5616640000000  0.4776510000000 1.0
C      1  0.4535020000000  0.5660140000000  0.4885490000000 1.0
C      1  0.4309740000000  0.4735820000000  0.4853520000000 1.0
C      1  0.4973080000000  0.4220690000000  0.4972550000000 1.0
C      1  0.5656530000000  0.4750380000000  0.4920900000000 1.0
C      1  0.5446990000000  0.5544190000000  0.5041930000000 1.0
C      1  0.4522140000000  0.5675130000000  0.5175450000000 1.0
C      1  0.4267480000000  0.4768540000000  0.5129430000000 1.0
C      1  0.5019770000000  0.4197670000000  0.5247350000000 1.0
C      1  0.5706690000000  0.4797550000000  0.5189490000000 1.0
C      1  0.4508890000000  0.5530780000000  0.5421070000000 1.0
C      1  0.4426250000000  0.4757310000000  0.5360910000000 1.0
C      1  0.5051730000000  0.4416780000000  0.5466060000000 1.0
C      1  0.5554720000000  0.4918610000000  0.5422850000000 1.0
C      1  0.5223700000000  0.5476220000000  0.5505610000000 1.0
C      1  0.4572790000000  0.5503610000000  0.4649990000000 1.0
C      1  0.4518440000000  0.4667580000000  0.4682680000000 1.0
C      1  0.5097110000000  0.4493890000000  0.4512140000000 1.0
C      1  0.5543790000000  0.4932320000000  0.4457650000000 1.0
C      1  0.5292370000000  0.5512150000000  0.4541180000000 1.0
C      1  0.4797450000000  0.5663470000000  0.4210700000000 1.0
C      1  0.4334310000000  0.5048260000000  0.4190090000000 1.0
C      1  0.4773240000000  0.4329650000000  0.4191960000000 1.0
C      1  0.5567690000000  0.4560190000000  0.4155190000000 1.0
C      1  0.5603170000000  0.5394880000000  0.4127090000000 1.0
C      1  0.4757230000000  0.5650270000000  0.5889520000000 1.0
C      1  0.4360110000000  0.5019470000000  0.5771550000000 1.0
C      1  0.4738570000000  0.4339900000000  0.5832420000000 1.0
C      1  0.5559440000000  0.4564330000000  0.5821260000000 1.0
C      1  0.5596940000000  0.5412340000000  0.5816150000000 1.0
C      1  0.5625210000000  0.5166910000000  0.4621070000000 1.0
C      1  0.5023410000000  0.5620220000000  0.4648540000000 1.0
C      1  0.4421530000000  0.5251940000000  0.4672080000000 1.0
C      1  0.4631800000000  0.4400110000000  0.4672660000000 1.0
C      1  0.5377820000000  0.4479130000000  0.4625410000000 1.0
C      1  0.5616160000000  0.5210500000000  0.5332520000000 1.0
C      1  0.5044740000000  0.5600110000000  0.5308880000000 1.0
C      1  0.4402310000000  0.5263680000000  0.5322020000000 1.0
C      1  0.4585760000000  0.4504640000000  0.5339410000000 1.0
C      1  0.5349720000000  0.4463960000000  0.5340330000000 1.0
C      1  0.5524230000000  0.4183970000000  0.5307240000000 1.0
C      1  0.5937270000000  0.5255220000000  0.5299370000000 1.0
C      1  0.5029580000000  0.5922130000000  0.5306160000000 1.0
C      1  0.4093570000000  0.5341350000000  0.5306220000000 1.0
C      1  0.4377900000000  0.4247220000000  0.5308360000000 1.0
C      1  0.5509240000000  0.4190610000000  0.4665930000000 1.0
C      1  0.5929930000000  0.5234170000000  0.4670760000000 1.0
C      1  0.5043700000000  0.5950090000000  0.4691100000000 1.0
C      1  0.4105210000000  0.5359750000000  0.4689680000000 1.0
C      1  0.4396750000000  0.4195890000000  0.4681320000000 1.0
C      1  0.6004830000000  0.4455520000000  0.5259810000000 1.0
C      1  0.5802540000000  0.5755430000000  0.5265880000000 1.0
C      1  0.4476160000000  0.6106080000000  0.5258940000000 1.0
C      1  0.3842560000000  0.4855350000000  0.5255880000000 1.0
C      1  0.4797830000000  0.3812250000000  0.5282970000000 1.0
C      1  0.5962770000000  0.4464180000000  0.4706120000000 1.0
C      1  0.5844590000000  0.5805940000000  0.4718380000000 1.0
C      1  0.4497960000000  0.6073240000000  0.4716150000000 1.0
C      1  0.3891210000000  0.4851090000000  0.4701220000000 1.0
C      1  0.4796780000000  0.3859310000000  0.4730860000000 1.0
C      1  0.5023940000000  0.4746820000000  0.5894820000000 1.0
C      1  0.5279130000000  0.4953400000000  0.5921320000000 1.0
C      1  0.5162480000000  0.5242020000000  0.5983390000000 1.0
C      1  0.4865370000000  0.5201130000000  0.6098380000000 1.0
C      1  0.4779990000000  0.4920160000000  0.6016550000000 1.0
C      1  0.5017490000000  0.4747990000000  0.4073000000000 1.0
C      1  0.5273950000000  0.4941200000000  0.4019620000000 1.0
C      1  0.5163160000000  0.5219330000000  0.3916250000000 1.0
C      1  0.4853510000000  0.5214700000000  0.4035660000000 1.0
C      1  0.4761900000000  0.4920020000000  0.3985840000000 1.0
C      1  0.5213770000000  0.4280270000000  0.5986870000000 1.0
C      1  0.5769970000000  0.4990980000000  0.5983060000000 1.0
C      1  0.5236690000000  0.5720600000000  0.6004530000000 1.0
C      1  0.4381270000000  0.5393760000000  0.6052740000000 1.0
C      1  0.4380080000000  0.4589200000000  0.5990610000000 1.0
C      1  0.5219450000000  0.4283700000000  0.3989790000000 1.0
C      1  0.5773020000000  0.4970600000000  0.3963440000000 1.0
C      1  0.5231650000000  0.5708920000000  0.4009410000000 1.0
C      1  0.4401590000000  0.5469280000000  0.3998110000000 1.0
C      1  0.4397310000000  0.4579230000000  0.4039990000000 1.0
C      1  0.6218430000000  0.4336280000000  0.5383810000000 1.0
C      1  0.5935960000000  0.5934450000000  0.5422720000000 1.0
C      1  0.4399920000000  0.6340340000000  0.5373030000000 1.0
C      1  0.3609350000000  0.4834890000000  0.5396730000000 1.0
C      1  0.4740100000000  0.3570730000000  0.5395350000000 1.0
C      1  0.6168060000000  0.4385330000000  0.4544910000000 1.0
C      1  0.6026660000000  0.5972050000000  0.4600630000000 1.0
C      1  0.4420480000000  0.6282110000000  0.4559190000000 1.0
C      1  0.3670230000000  0.4832580000000  0.4539680000000 1.0
C      1  0.4792060000000  0.3642480000000  0.4565150000000 1.0
C      1  0.5553820000000  0.4649800000000  0.4429200000000 1.0
C      1  0.5570990000000  0.5423150000000  0.4409870000000 1.0
C      1  0.4781390000000  0.5576300000000  0.4480650000000 1.0
C      1  0.4429120000000  0.5054070000000  0.4454990000000 1.0
C      1  0.4850080000000  0.4346350000000  0.4467480000000 1.0
C      1  0.5527410000000  0.4619230000000  0.5541630000000 1.0
C      1  0.5502650000000  0.5419460000000  0.5537230000000 1.0
C      1  0.4670740000000  0.5527580000000  0.5639840000000 1.0
C      1  0.4467410000000  0.5013490000000  0.5494360000000 1.0
C      1  0.4768290000000  0.4377340000000  0.5552920000000 1.0
C      1  0.4790570000000  0.4406580000000  0.4911610000000 1.0
C      1  0.5410420000000  0.4634060000000  0.4873070000000 1.0
C      1  0.5356250000000  0.5127470000000  0.4876860000000 1.0
C      1  0.4983040000000  0.5413910000000  0.4880010000000 1.0
C      1  0.4609360000000  0.5119320000000  0.4885580000000 1.0
C      1  0.4763450000000  0.4597300000000  0.5101220000000 1.0
C      1  0.5249790000000  0.4633530000000  0.5094900000000 1.0
C      1  0.5455090000000  0.5268060000000  0.5084430000000 1.0
C      1  0.4899590000000  0.5440410000000  0.5129000000000 1.0
C      1  0.4618470000000  0.5230550000000  0.5115370000000 1.0
C      1  0.5065730000000  0.6024080000000  0.4384630000000 1.0
C      1  0.4055610000000  0.5393320000000  0.4375020000000 1.0
C      1  0.4345510000000  0.4182820000000  0.4370940000000 1.0
C      1  0.5532540000000  0.4117740000000  0.4361880000000 1.0
C      1  0.6014040000000  0.5230410000000  0.4354570000000 1.0
C      1  0.5023180000000  0.5969960000000  0.5616710000000 1.0
C      1  0.4045510000000  0.5357760000000  0.5626030000000 1.0
C      1  0.4314510000000  0.4216770000000  0.5628370000000 1.0
C      1  0.5547330000000  0.4121260000000  0.5620880000000 1.0
C      1  0.6006930000000  0.5252520000000  0.5606230000000 1.0
C      1  0.4955400000000  0.4895820000000  0.5395370000000 1.0
C      1  0.4886300000000  0.4953270000000  0.4527990000000 1.0
C      1  0.4996960000000  0.5045640000000  0.4849540000000 1.0
C      1  0.4988890000000  0.4811600000000  0.5107840000000 1.0
END
