TITL C-3201375-1262-478 -9.67225704608827e-07 125000 -872.103913020224 0 0 142 (C1) n - 1
REM
REM in /home/nfs/bkarasulu/CARBON/AIRSS/Generating-Clusters/LCBOP/Higher-Symm/SD-CG/FIRE-CG
REM
REM
REM
REM
REM
REM ./C.cell (b20cbc046b6831c77cfcea5457e17084)
REM AIRSS Version 0.9.1 bugfix July 2018 build 013d7b7c2542+ Fri, 06 Jul 2018 19:26:36 +0100
REM compiler GCC version 9.2.1 20190827 (Red Hat 9.2.1-1)
REM options -cpp -mtune=generic -march=x86-64 -g -O0 -fpre-include=/usr/include/finclude/math-vector-fortran.h
REM seed 2010059855 1758454430 -894489813 1016934821 -5356841 108795371 -1902391727 2115827775 -317101389 -1853389158 -1070822176 -1555607975 224558517 -294879978 1549730262 2122982767 -2138133420 1347214094 -1309340595 -1944610077 1585156893 456290135 -692258465 -702617826 -1018118736 282350215 -1260501130 2096321548 1715070855 -973323253 1374670368 -586900842 1888190151
REM
CELL 1.54180   50.00000   50.00000   50.00000   90.00000   90.00000   90.00000
LATT -1
SFAC C  
C      1  0.5143810000000  0.4176030000000  0.4308240000000 1.0
C      1  0.5137220000000  0.5802050000000  0.5702420000000 1.0
C      1  0.4858510000000  0.4179980000000  0.4302580000000 1.0
C      1  0.4850490000000  0.5798560000000  0.5705590000000 1.0
C      1  0.5155030000000  0.5347520000000  0.5724210000000 1.0
C      1  0.5154260000000  0.4632340000000  0.4269650000000 1.0
C      1  0.4855710000000  0.5344190000000  0.5721470000000 1.0
C      1  0.4856190000000  0.4634490000000  0.4275960000000 1.0
C      1  0.4708670000000  0.6005920000000  0.4491790000000 1.0
C      1  0.4690060000000  0.4167250000000  0.5502630000000 1.0
C      1  0.5235500000000  0.5907330000000  0.4511830000000 1.0
C      1  0.5244420000000  0.4109540000000  0.5532590000000 1.0
C      1  0.4227530000000  0.5347300000000  0.5752240000000 1.0
C      1  0.4217290000000  0.4605360000000  0.4243670000000 1.0
C      1  0.5798460000000  0.5405100000000  0.5735970000000 1.0
C      1  0.5803700000000  0.4573600000000  0.4264820000000 1.0
C      1  0.4451470000000  0.4284530000000  0.4513050000000 1.0
C      1  0.4444860000000  0.5688910000000  0.5482350000000 1.0
C      1  0.5544020000000  0.4275400000000  0.4539230000000 1.0
C      1  0.5542940000000  0.5718100000000  0.5471700000000 1.0
C      1  0.5742260000000  0.5226860000000  0.4807410000000 1.0
C      1  0.5696620000000  0.4789990000000  0.5189430000000 1.0
C      1  0.4280820000000  0.5192310000000  0.4812520000000 1.0
C      1  0.4336020000000  0.4715390000000  0.5185650000000 1.0
C      1  0.5626880000000  0.4460090000000  0.4734320000000 1.0
C      1  0.5634410000000  0.5546370000000  0.5268730000000 1.0
C      1  0.4354730000000  0.4460690000000  0.4705670000000 1.0
C      1  0.4364520000000  0.5509510000000  0.5279870000000 1.0
C      1  0.4772410000000  0.4711330000000  0.4567460000000 1.0
C      1  0.4769290000000  0.5288210000000  0.5426110000000 1.0
C      1  0.5235090000000  0.4715160000000  0.4561310000000 1.0
C      1  0.5241110000000  0.5285180000000  0.5432280000000 1.0
C      1  0.4776010000000  0.5209420000000  0.4908060000000 1.0
C      1  0.4859210000000  0.4732660000000  0.5134470000000 1.0
C      1  0.5042720000000  0.5131190000000  0.5035830000000 1.0
C      1  0.5124200000000  0.4845880000000  0.5002150000000 1.0
C      1  0.4749870000000  0.4476020000000  0.5053260000000 1.0
C      1  0.4763090000000  0.5517530000000  0.4944180000000 1.0
C      1  0.5231940000000  0.4527420000000  0.5021950000000 1.0
C      1  0.5198910000000  0.5407840000000  0.4971960000000 1.0
C      1  0.5441510000000  0.4298480000000  0.5455220000000 1.0
C      1  0.5376070000000  0.5663040000000  0.4543080000000 1.0
C      1  0.4443060000000  0.4284520000000  0.5440750000000 1.0
C      1  0.4590600000000  0.5747630000000  0.4501780000000 1.0
C      1  0.4928880000000  0.4813570000000  0.5416430000000 1.0
C      1  0.4795730000000  0.5194680000000  0.4608830000000 1.0
C      1  0.5209070000000  0.4709310000000  0.5471880000000 1.0
C      1  0.5232680000000  0.5194090000000  0.4539120000000 1.0
C      1  0.5619410000000  0.5626070000000  0.4400410000000 1.0
C      1  0.5676670000000  0.4358040000000  0.5599440000000 1.0
C      1  0.4369690000000  0.5661120000000  0.4351510000000 1.0
C      1  0.4264520000000  0.4359820000000  0.5644870000000 1.0
C      1  0.4123480000000  0.5144070000000  0.5564760000000 1.0
C      1  0.4096560000000  0.4793030000000  0.4435850000000 1.0
C      1  0.5918270000000  0.5219420000000  0.5540440000000 1.0
C      1  0.5923090000000  0.4764700000000  0.4453670000000 1.0
C      1  0.5890550000000  0.5454900000000  0.4899850000000 1.0
C      1  0.5859920000000  0.4567840000000  0.5099880000000 1.0
C      1  0.4115310000000  0.5404220000000  0.4921330000000 1.0
C      1  0.4096330000000  0.4566350000000  0.5059100000000 1.0
C      1  0.5623230000000  0.4840450000000  0.5665230000000 1.0
C      1  0.5628950000000  0.5151040000000  0.4313940000000 1.0
C      1  0.4479100000000  0.4792450000000  0.5660320000000 1.0
C      1  0.4406110000000  0.5174360000000  0.4341170000000 1.0
C      1  0.4429200000000  0.4406390000000  0.4248450000000 1.0
C      1  0.4424200000000  0.5560750000000  0.5746610000000 1.0
C      1  0.5580550000000  0.4389490000000  0.4271350000000 1.0
C      1  0.5577660000000  0.5592720000000  0.5735320000000 1.0
C      1  0.4834230000000  0.6018380000000  0.5233290000000 1.0
C      1  0.4834120000000  0.3981610000000  0.4791990000000 1.0
C      1  0.5137180000000  0.6015470000000  0.5228290000000 1.0
C      1  0.5133950000000  0.3983320000000  0.4800800000000 1.0
C      1  0.5699630000000  0.4348590000000  0.4988640000000 1.0
C      1  0.5710940000000  0.5662820000000  0.5015750000000 1.0
C      1  0.4234890000000  0.4331310000000  0.4932440000000 1.0
C      1  0.4276790000000  0.5627240000000  0.5031030000000 1.0
C      1  0.4843660000000  0.4448150000000  0.4740240000000 1.0
C      1  0.4841010000000  0.5553760000000  0.5255560000000 1.0
C      1  0.5149210000000  0.4449150000000  0.4732160000000 1.0
C      1  0.5153110000000  0.5546600000000  0.5256590000000 1.0
C      1  0.4274380000000  0.5417840000000  0.4282550000000 1.0
C      1  0.4296680000000  0.4599340000000  0.5769180000000 1.0
C      1  0.5745300000000  0.5410170000000  0.4295150000000 1.0
C      1  0.5765160000000  0.4594970000000  0.5698450000000 1.0
C      1  0.5707790000000  0.5019880000000  0.5431840000000 1.0
C      1  0.5719300000000  0.4974510000000  0.4546180000000 1.0
C      1  0.4351400000000  0.4971550000000  0.5446760000000 1.0
C      1  0.4302400000000  0.4985330000000  0.4557700000000 1.0
C      1  0.5517850000000  0.4769510000000  0.4695030000000 1.0
C      1  0.5522300000000  0.5243320000000  0.5291290000000 1.0
C      1  0.4490970000000  0.4761890000000  0.4693830000000 1.0
C      1  0.4498090000000  0.5212800000000  0.5298800000000 1.0
C      1  0.3896210000000  0.4679350000000  0.4891540000000 1.0
C      1  0.3917480000000  0.5311400000000  0.5111070000000 1.0
C      1  0.6082560000000  0.4633960000000  0.4929970000000 1.0
C      1  0.6105050000000  0.5389550000000  0.5081920000000 1.0
C      1  0.4717370000000  0.5578720000000  0.4684700000000 1.0
C      1  0.4510940000000  0.4467860000000  0.5233820000000 1.0
C      1  0.5267990000000  0.5437450000000  0.4693260000000 1.0
C      1  0.5312580000000  0.4504790000000  0.5300130000000 1.0
C      1  0.4515030000000  0.5126910000000  0.5008340000000 1.0
C      1  0.4513890000000  0.4843140000000  0.4987310000000 1.0
C      1  0.5547310000000  0.5162610000000  0.4990830000000 1.0
C      1  0.5480220000000  0.4880650000000  0.4980240000000 1.0
C      1  0.4676750000000  0.6029280000000  0.4986350000000 1.0
C      1  0.4668640000000  0.3983710000000  0.5035850000000 1.0
C      1  0.5286480000000  0.6021540000000  0.4979670000000 1.0
C      1  0.5276310000000  0.3987050000000  0.5055860000000 1.0
C      1  0.3890080000000  0.4732730000000  0.4624420000000 1.0
C      1  0.3926250000000  0.5214890000000  0.5366560000000 1.0
C      1  0.6103920000000  0.4691810000000  0.4664160000000 1.0
C      1  0.6107230000000  0.5303120000000  0.5340860000000 1.0
C      1  0.4771810000000  0.4704300000000  0.5662330000000 1.0
C      1  0.4688290000000  0.5194890000000  0.4337360000000 1.0
C      1  0.5344460000000  0.4812070000000  0.5702400000000 1.0
C      1  0.5345760000000  0.5162080000000  0.4279240000000 1.0
C      1  0.5143690000000  0.5180400000000  0.4081630000000 1.0
C      1  0.5179560000000  0.4834580000000  0.5929110000000 1.0
C      1  0.4874600000000  0.5201510000000  0.4122800000000 1.0
C      1  0.4912540000000  0.4785210000000  0.5913950000000 1.0
C      1  0.4727260000000  0.5802280000000  0.5419380000000 1.0
C      1  0.4732970000000  0.4186670000000  0.4587790000000 1.0
C      1  0.5254210000000  0.5805710000000  0.5413900000000 1.0
C      1  0.5257050000000  0.4181350000000  0.4598400000000 1.0
C      1  0.5124110000000  0.6032500000000  0.4746600000000 1.0
C      1  0.5112620000000  0.3989290000000  0.5300310000000 1.0
C      1  0.4833360000000  0.6073150000000  0.4746260000000 1.0
C      1  0.4818240000000  0.4010070000000  0.5290710000000 1.0
C      1  0.4704550000000  0.5566740000000  0.5829500000000 1.0
C      1  0.4710370000000  0.4407290000000  0.4171430000000 1.0
C      1  0.5298190000000  0.5579360000000  0.5824850000000 1.0
C      1  0.5301930000000  0.4398120000000  0.4180740000000 1.0
C      1  0.4840720000000  0.4338870000000  0.5671110000000 1.0
C      1  0.4862850000000  0.6069960000000  0.4261900000000 1.0
C      1  0.5080850000000  0.4214010000000  0.5743030000000 1.0
C      1  0.5126660000000  0.6001870000000  0.4267470000000 1.0
C      1  0.5547160000000  0.4108740000000  0.5054210000000 1.0
C      1  0.5552210000000  0.5897360000000  0.4957280000000 1.0
C      1  0.4387120000000  0.4087590000000  0.5008020000000 1.0
C      1  0.4417620000000  0.5878680000000  0.4973310000000 1.0
C      1  0.4998230000000  0.5111550000000  0.5346430000000 1.0
C      1  0.5017380000000  0.4990630000000  0.4592940000000 1.0
END
