TITL C-3201373-1215-301 415253.229575891 125000 -1136.30682511514 0 0 189 (C1) n - 1
REM
REM in /home/nfs/bkarasulu/CARBON/AIRSS/Generating-Clusters/LCBOP/Higher-Symm/SD-CG/FIRE-CG
REM
REM
REM
REM
REM
REM ./C.cell (b20cbc046b6831c77cfcea5457e17084)
REM AIRSS Version 0.9.1 bugfix July 2018 build 013d7b7c2542+ Fri, 06 Jul 2018 19:26:36 +0100
REM compiler GCC version 9.2.1 20190827 (Red Hat 9.2.1-1)
REM options -cpp -mtune=generic -march=x86-64 -g -O0 -fpre-include=/usr/include/finclude/math-vector-fortran.h
REM seed -1675319097 1047560413 -1562053449 1848265926 1439728266 -1256945898 -661947406 -1129243149 1847816062 -844919142 -463566625 -1448211988 1929313268 40276183 -1175333578 -456369881 -543826064 -1784757937 -1972820555 -597115434 -1134965546 -1741323852 -464397371 -73942992 187582779 -159026291 1046945332 1328641920 764057974 1699930476 1463276552 -1969401187 -1860842361
REM
CELL 1.54180   50.00000   50.00000   50.00000   90.00000   90.00000   90.00000
LATT -1
SFAC C  
C      1  0.4765670000000  0.4899280000000  0.5259590000000 1.0
C      1  0.5162180000000  0.5181100000000  0.5244540000000 1.0
C      1  0.4654240000000  0.4839710000000  0.4662750000000 1.0
C      1  0.5364200000000  0.5072810000000  0.4624020000000 1.0
C      1  0.4425050000000  0.5005530000000  0.4573070000000 1.0
C      1  0.5592090000000  0.4989720000000  0.4421260000000 1.0
C      1  0.4368770000000  0.5039280000000  0.5477240000000 1.0
C      1  0.5720580000000  0.4942070000000  0.5699350000000 1.0
C      1  0.5910130000000  0.4419830000000  0.5147680000000 1.0
C      1  0.4097150000000  0.5596960000000  0.5143560000000 1.0
C      1  0.5897550000000  0.4417780000000  0.4851390000000 1.0
C      1  0.4121990000000  0.5579930000000  0.4843630000000 1.0
C      1  0.3951740000000  0.4308060000000  0.5275690000000 1.0
C      1  0.6021520000000  0.5680720000000  0.5315660000000 1.0
C      1  0.3972010000000  0.4302410000000  0.4705690000000 1.0
C      1  0.5925140000000  0.5707510000000  0.4742850000000 1.0
C      1  0.5237020000000  0.5688970000000  0.4101890000000 1.0
C      1  0.4761250000000  0.4249830000000  0.4096710000000 1.0
C      1  0.5250460000000  0.5718040000000  0.5884600000000 1.0
C      1  0.4710080000000  0.4275840000000  0.5894180000000 1.0
C      1  0.5536950000000  0.4462460000000  0.6314360000000 1.0
C      1  0.4378280000000  0.5581130000000  0.6137550000000 1.0
C      1  0.5592840000000  0.4500100000000  0.3757740000000 1.0
C      1  0.4336750000000  0.5556500000000  0.3901400000000 1.0
C      1  0.5256790000000  0.6069170000000  0.5620850000000 1.0
C      1  0.4806320000000  0.3997390000000  0.5568160000000 1.0
C      1  0.5272910000000  0.6020310000000  0.4382890000000 1.0
C      1  0.4797650000000  0.3914580000000  0.4375060000000 1.0
C      1  0.4207060000000  0.4784060000000  0.4520310000000 1.0
C      1  0.5796500000000  0.5220970000000  0.4467520000000 1.0
C      1  0.4198960000000  0.4798280000000  0.5476250000000 1.0
C      1  0.5787500000000  0.5197720000000  0.5575020000000 1.0
C      1  0.5123640000000  0.3981540000000  0.4233870000000 1.0
C      1  0.4925360000000  0.5976660000000  0.4281820000000 1.0
C      1  0.5085290000000  0.4083400000000  0.5687880000000 1.0
C      1  0.4914630000000  0.6006190000000  0.5732010000000 1.0
C      1  0.5973210000000  0.5454550000000  0.4875860000000 1.0
C      1  0.3930780000000  0.4548730000000  0.4847380000000 1.0
C      1  0.5994220000000  0.5440150000000  0.5165970000000 1.0
C      1  0.3928240000000  0.4553720000000  0.5135050000000 1.0
C      1  0.5119150000000  0.5000330000000  0.6144090000000 1.0
C      1  0.4821730000000  0.5027410000000  0.6102830000000 1.0
C      1  0.5099820000000  0.4978280000000  0.3908860000000 1.0
C      1  0.4801650000000  0.4968460000000  0.3981880000000 1.0
C      1  0.4596010000000  0.4448300000000  0.5277240000000 1.0
C      1  0.5500780000000  0.5532060000000  0.5239940000000 1.0
C      1  0.4514670000000  0.4385400000000  0.4787010000000 1.0
C      1  0.5429980000000  0.5540390000000  0.4733690000000 1.0
C      1  0.4357040000000  0.5159560000000  0.4842390000000 1.0
C      1  0.5745000000000  0.4742770000000  0.4508240000000 1.0
C      1  0.4345290000000  0.5177940000000  0.5206270000000 1.0
C      1  0.5826390000000  0.4719150000000  0.5554630000000 1.0
C      1  0.4719700000000  0.4809490000000  0.3722120000000 1.0
C      1  0.5127120000000  0.5171610000000  0.3699080000000 1.0
C      1  0.4728200000000  0.4825890000000  0.6284210000000 1.0
C      1  0.5170130000000  0.5213100000000  0.6329820000000 1.0
C      1  0.4724480000000  0.5587980000000  0.4690740000000 1.0
C      1  0.5412720000000  0.4358450000000  0.4560760000000 1.0
C      1  0.4632750000000  0.5620530000000  0.5335110000000 1.0
C      1  0.5409440000000  0.4463030000000  0.5208690000000 1.0
C      1  0.4634550000000  0.5478670000000  0.6076430000000 1.0
C      1  0.5309640000000  0.4551200000000  0.6170570000000 1.0
C      1  0.4598040000000  0.5454720000000  0.3937730000000 1.0
C      1  0.5334160000000  0.4554660000000  0.3859530000000 1.0
C      1  0.5763730000000  0.5458780000000  0.4309650000000 1.0
C      1  0.4294050000000  0.4549080000000  0.4362990000000 1.0
C      1  0.5712680000000  0.5445060000000  0.5700300000000 1.0
C      1  0.4276670000000  0.4561370000000  0.5619290000000 1.0
C      1  0.5039170000000  0.4173820000000  0.4028460000000 1.0
C      1  0.4963910000000  0.5804440000000  0.4053820000000 1.0
C      1  0.5001380000000  0.4215150000000  0.5941450000000 1.0
C      1  0.4976550000000  0.5819100000000  0.5932920000000 1.0
C      1  0.3909270000000  0.5066610000000  0.5142460000000 1.0
C      1  0.5959190000000  0.4940210000000  0.5156840000000 1.0
C      1  0.3916400000000  0.5062130000000  0.4841260000000 1.0
C      1  0.5964510000000  0.4943560000000  0.4870680000000 1.0
C      1  0.4642730000000  0.5207680000000  0.5954030000000 1.0
C      1  0.5330730000000  0.4823010000000  0.6059370000000 1.0
C      1  0.4617550000000  0.5195160000000  0.4079730000000 1.0
C      1  0.5310670000000  0.4813960000000  0.3994730000000 1.0
C      1  0.4702910000000  0.4182940000000  0.4726710000000 1.0
C      1  0.5347960000000  0.5803420000000  0.4791640000000 1.0
C      1  0.4761510000000  0.4241120000000  0.5190110000000 1.0
C      1  0.5351000000000  0.5773700000000  0.5277990000000 1.0
C      1  0.4750340000000  0.3951840000000  0.5280130000000 1.0
C      1  0.5348590000000  0.6081830000000  0.5336670000000 1.0
C      1  0.4721750000000  0.3909040000000  0.4647850000000 1.0
C      1  0.5484750000000  0.6038220000000  0.4674000000000 1.0
C      1  0.5151480000000  0.6270430000000  0.5196540000000 1.0
C      1  0.4948590000000  0.3760440000000  0.5158750000000 1.0
C      1  0.5494840000000  0.6344830000000  0.4652760000000 1.0
C      1  0.4637040000000  0.3678160000000  0.4761030000000 1.0
C      1  0.3982680000000  0.4805300000000  0.5272660000000 1.0
C      1  0.5925360000000  0.5191430000000  0.5307610000000 1.0
C      1  0.3983560000000  0.4800110000000  0.4711640000000 1.0
C      1  0.5938230000000  0.5204040000000  0.4727210000000 1.0
C      1  0.4876480000000  0.5617660000000  0.6121870000000 1.0
C      1  0.5064140000000  0.4414870000000  0.6149510000000 1.0
C      1  0.4836740000000  0.5595710000000  0.3879710000000 1.0
C      1  0.5099830000000  0.4394310000000  0.3828590000000 1.0
C      1  0.4271700000000  0.3679440000000  0.5209330000000 1.0
C      1  0.5687080000000  0.6116720000000  0.4983420000000 1.0
C      1  0.4479910000000  0.3833490000000  0.5239570000000 1.0
C      1  0.5610650000000  0.6160600000000  0.5210240000000 1.0
C      1  0.4129090000000  0.4157570000000  0.4534760000000 1.0
C      1  0.5764200000000  0.5861370000000  0.4562380000000 1.0
C      1  0.4110950000000  0.4168180000000  0.5444560000000 1.0
C      1  0.5895340000000  0.5826410000000  0.5506960000000 1.0
C      1  0.4729580000000  0.5421310000000  0.5154760000000 1.0
C      1  0.5364670000000  0.4640840000000  0.4978970000000 1.0
C      1  0.4746370000000  0.5368180000000  0.4866430000000 1.0
C      1  0.5332850000000  0.4594850000000  0.4689110000000 1.0
C      1  0.5685980000000  0.5734160000000  0.5676640000000 1.0
C      1  0.4323410000000  0.4270740000000  0.5604900000000 1.0
C      1  0.5676890000000  0.5730970000000  0.4325860000000 1.0
C      1  0.4342910000000  0.4250830000000  0.4361150000000 1.0
C      1  0.4077860000000  0.5308170000000  0.5228210000000 1.0
C      1  0.5922810000000  0.4683810000000  0.5288220000000 1.0
C      1  0.4101890000000  0.5293140000000  0.4777320000000 1.0
C      1  0.5899920000000  0.4690860000000  0.4736600000000 1.0
C      1  0.4820050000000  0.5852370000000  0.5255610000000 1.0
C      1  0.5229390000000  0.4239280000000  0.5137180000000 1.0
C      1  0.4854330000000  0.5837200000000  0.4789780000000 1.0
C      1  0.5213730000000  0.4154870000000  0.4689940000000 1.0
C      1  0.4592220000000  0.6008530000000  0.5590700000000 1.0
C      1  0.5345870000000  0.4110180000000  0.5537220000000 1.0
C      1  0.4662510000000  0.5969070000000  0.4422820000000 1.0
C      1  0.5445870000000  0.3942830000000  0.4388930000000 1.0
C      1  0.5543800000000  0.4924900000000  0.4126160000000 1.0
C      1  0.4424190000000  0.5158950000000  0.4304700000000 1.0
C      1  0.5605700000000  0.4893830000000  0.5962360000000 1.0
C      1  0.4416600000000  0.5158930000000  0.5748420000000 1.0
C      1  0.4966930000000  0.4313450000000  0.4750800000000 1.0
C      1  0.5098770000000  0.5819330000000  0.4906980000000 1.0
C      1  0.4986710000000  0.4336410000000  0.5043650000000 1.0
C      1  0.5077630000000  0.5727420000000  0.5183820000000 1.0
C      1  0.5794500000000  0.4167490000000  0.4700190000000 1.0
C      1  0.4292110000000  0.5772330000000  0.4703460000000 1.0
C      1  0.5771300000000  0.4205140000000  0.5293280000000 1.0
C      1  0.4230080000000  0.5818840000000  0.5287370000000 1.0
C      1  0.4896480000000  0.4804840000000  0.4481090000000 1.0
C      1  0.5060420000000  0.5071020000000  0.4545580000000 1.0
C      1  0.4875970000000  0.4909160000000  0.5529770000000 1.0
C      1  0.5106780000000  0.5089890000000  0.5532770000000 1.0
C      1  0.5186280000000  0.5412620000000  0.4089190000000 1.0
C      1  0.4726880000000  0.4519420000000  0.4056300000000 1.0
C      1  0.5254370000000  0.5444810000000  0.5940960000000 1.0
C      1  0.4694360000000  0.4554860000000  0.5930020000000 1.0
C      1  0.4429510000000  0.5752970000000  0.5509490000000 1.0
C      1  0.5545070000000  0.4334910000000  0.5454130000000 1.0
C      1  0.4515700000000  0.5703200000000  0.4499330000000 1.0
C      1  0.5622950000000  0.4191800000000  0.4443270000000 1.0
C      1  0.5077100000000  0.5267600000000  0.4310970000000 1.0
C      1  0.4796790000000  0.4754610000000  0.4203650000000 1.0
C      1  0.5214600000000  0.5247430000000  0.5742070000000 1.0
C      1  0.4773020000000  0.4735330000000  0.5726170000000 1.0
C      1  0.4817950000000  0.4575260000000  0.6196920000000 1.0
C      1  0.5108360000000  0.5449600000000  0.6196980000000 1.0
C      1  0.4838640000000  0.4548370000000  0.3782210000000 1.0
C      1  0.5054970000000  0.5409400000000  0.3823410000000 1.0
C      1  0.5783200000000  0.4877360000000  0.3972730000000 1.0
C      1  0.4170170000000  0.5282430000000  0.4244160000000 1.0
C      1  0.5802630000000  0.4819790000000  0.6159630000000 1.0
C      1  0.4170140000000  0.5274160000000  0.5850800000000 1.0
C      1  0.4910290000000  0.5137830000000  0.4813750000000 1.0
C      1  0.5043390000000  0.4583780000000  0.4616860000000 1.0
C      1  0.5010230000000  0.5436360000000  0.5222970000000 1.0
C      1  0.5109310000000  0.4726840000000  0.5038200000000 1.0
C      1  0.5613690000000  0.3984490000000  0.5143510000000 1.0
C      1  0.4396520000000  0.6032960000000  0.5136690000000 1.0
C      1  0.5624090000000  0.3961870000000  0.4853800000000 1.0
C      1  0.4420310000000  0.6011290000000  0.4848220000000 1.0
C      1  0.5770750000000  0.4600610000000  0.6317520000000 1.0
C      1  0.4153010000000  0.5477020000000  0.6029440000000 1.0
C      1  0.5805160000000  0.4663200000000  0.3805840000000 1.0
C      1  0.4129220000000  0.5470200000000  0.4052930000000 1.0
C      1  0.4592710000000  0.4101960000000  0.4262910000000 1.0
C      1  0.5428800000000  0.5837130000000  0.4229230000000 1.0
C      1  0.4575020000000  0.4141670000000  0.5689870000000 1.0
C      1  0.5437540000000  0.5873610000000  0.5747650000000 1.0
C      1  0.4574730000000  0.4655060000000  0.4864210000000 1.0
C      1  0.5426260000000  0.5274010000000  0.4830340000000 1.0
C      1  0.4602080000000  0.4695890000000  0.5144960000000 1.0
C      1  0.5419790000000  0.5274750000000  0.5120300000000 1.0
C      1  0.4684540000000  0.6058600000000  0.4705460000000 1.0
C      1  0.5373430000000  0.3908530000000  0.4676720000000 1.0
C      1  0.4648560000000  0.6083530000000  0.5307660000000 1.0
C      1  0.5334590000000  0.3998140000000  0.5263290000000 1.0
C      1  0.4987420000000  0.4987820000000  0.5070110000000 1.0
END
