TITL C-3201379-3821-1658 -3.95634442129363e-07 125000 -1099.96281499141 0 0 175 (C1) n - 1
REM
REM in /home/nfs/bkarasulu/CARBON/AIRSS/Generating-Clusters/LCBOP/Higher-Symm/SD-CG/FIRE-CG
REM
REM
REM
REM
REM
REM ./C.cell (b20cbc046b6831c77cfcea5457e17084)
REM AIRSS Version 0.9.1 bugfix July 2018 build 013d7b7c2542+ Fri, 06 Jul 2018 19:26:36 +0100
REM compiler GCC version 9.2.1 20190827 (Red Hat 9.2.1-1)
REM options -cpp -mtune=generic -march=x86-64 -g -O0 -fpre-include=/usr/include/finclude/math-vector-fortran.h
REM seed 1551139866 -1128928011 -1567194437 -20681270 1956153294 854178558 1135954952 1080501741 1517030723 -299215574 -1305889530 -1617351363 1819028621 1298257998 1170528481 1372477076 2028860777 -755794881 250935182 1545767962 1339247141 609268422 -1358977270 -2077543187 997146488 -1098077414 1549082920 1823049645 186062489 162617012 1345430267 491135300 1882158640
REM
CELL 1.54180   50.00000   50.00000   50.00000   90.00000   90.00000   90.00000
LATT -1
SFAC C  
C      1  0.4595790000000  0.5105450000000  0.5485890000000 1.0
C      1  0.4759080000000  0.5098130000000  0.4420420000000 1.0
C      1  0.5630340000000  0.5111670000000  0.5089900000000 1.0
C      1  0.3963480000000  0.5096550000000  0.5397710000000 1.0
C      1  0.5163670000000  0.5153580000000  0.3934860000000 1.0
C      1  0.5831110000000  0.5160390000000  0.5688430000000 1.0
C      1  0.4974930000000  0.6142230000000  0.4465360000000 1.0
C      1  0.5846450000000  0.6174710000000  0.5338000000000 1.0
C      1  0.4300050000000  0.6148550000000  0.5397730000000 1.0
C      1  0.4552260000000  0.4751000000000  0.6056860000000 1.0
C      1  0.4302010000000  0.4766860000000  0.4070870000000 1.0
C      1  0.6137550000000  0.4736290000000  0.4873980000000 1.0
C      1  0.5566020000000  0.4835940000000  0.5917270000000 1.0
C      1  0.3959940000000  0.4749820000000  0.5067700000000 1.0
C      1  0.5443930000000  0.4789580000000  0.4072740000000 1.0
C      1  0.5205600000000  0.5165730000000  0.5191160000000 1.0
C      1  0.4749070000000  0.5131030000000  0.5072770000000 1.0
C      1  0.5068140000000  0.5136990000000  0.4735730000000 1.0
C      1  0.5439040000000  0.5523580000000  0.4918940000000 1.0
C      1  0.4850180000000  0.5512030000000  0.5354890000000 1.0
C      1  0.4712120000000  0.5484660000000  0.4713140000000 1.0
C      1  0.4344800000000  0.5178750000000  0.4638680000000 1.0
C      1  0.5642320000000  0.5199110000000  0.4627520000000 1.0
C      1  0.4987760000000  0.5231460000000  0.5727060000000 1.0
C      1  0.5433840000000  0.5318690000000  0.5111420000000 1.0
C      1  0.4679570000000  0.5298630000000  0.5292270000000 1.0
C      1  0.4880110000000  0.5296690000000  0.4585950000000 1.0
C      1  0.4475430000000  0.5101210000000  0.4396030000000 1.0
C      1  0.5790470000000  0.5104160000000  0.4855150000000 1.0
C      1  0.4719180000000  0.5120540000000  0.5743310000000 1.0
C      1  0.4934410000000  0.6133040000000  0.4732900000000 1.0
C      1  0.5614090000000  0.6193340000000  0.5202330000000 1.0
C      1  0.4513770000000  0.6155330000000  0.5234690000000 1.0
C      1  0.5514450000000  0.3881310000000  0.5420480000000 1.0
C      1  0.4432620000000  0.3838020000000  0.5284450000000 1.0
C      1  0.5052130000000  0.3858510000000  0.4259290000000 1.0
C      1  0.4432680000000  0.4139430000000  0.5780500000000 1.0
C      1  0.4594720000000  0.4159470000000  0.4045450000000 1.0
C      1  0.5944080000000  0.4157800000000  0.5150210000000 1.0
C      1  0.5287940000000  0.4881670000000  0.5889360000000 1.0
C      1  0.4113610000000  0.4804360000000  0.4836730000000 1.0
C      1  0.5577780000000  0.4830210000000  0.4318850000000 1.0
C      1  0.4803090000000  0.4602590000000  0.4405930000000 1.0
C      1  0.5591710000000  0.4618110000000  0.5133230000000 1.0
C      1  0.4595230000000  0.4602650000000  0.5460300000000 1.0
C      1  0.4588890000000  0.4023110000000  0.4297030000000 1.0
C      1  0.5720710000000  0.4043200000000  0.5010110000000 1.0
C      1  0.4671230000000  0.4030310000000  0.5665630000000 1.0
C      1  0.5437330000000  0.5414140000000  0.4653080000000 1.0
C      1  0.5075620000000  0.5428010000000  0.5516360000000 1.0
C      1  0.4465420000000  0.5375530000000  0.4821200000000 1.0
C      1  0.5544990000000  0.4040000000000  0.5642570000000 1.0
C      1  0.4231500000000  0.3984450000000  0.5168870000000 1.0
C      1  0.5254940000000  0.4019550000000  0.4168010000000 1.0
C      1  0.5214470000000  0.5630310000000  0.5982300000000 1.0
C      1  0.3953310000000  0.5526190000000  0.4686480000000 1.0
C      1  0.5815860000000  0.5536210000000  0.4259200000000 1.0
C      1  0.4663860000000  0.3978740000000  0.5380250000000 1.0
C      1  0.4845530000000  0.3975830000000  0.4420210000000 1.0
C      1  0.5477900000000  0.4012170000000  0.5167060000000 1.0
C      1  0.4712340000000  0.4637200000000  0.4941140000000 1.0
C      1  0.5193830000000  0.4617780000000  0.4759890000000 1.0
C      1  0.5095890000000  0.4687220000000  0.5341750000000 1.0
C      1  0.6101260000000  0.4601290000000  0.4626890000000 1.0
C      1  0.4782240000000  0.4631600000000  0.6172120000000 1.0
C      1  0.4111800000000  0.4632380000000  0.4234510000000 1.0
C      1  0.4414680000000  0.5786730000000  0.4502270000000 1.0
C      1  0.5828580000000  0.5751890000000  0.4763390000000 1.0
C      1  0.4792510000000  0.5828020000000  0.5684820000000 1.0
C      1  0.4521480000000  0.5008180000000  0.5926940000000 1.0
C      1  0.4427150000000  0.5022920000000  0.4121770000000 1.0
C      1  0.6044000000000  0.4998330000000  0.4952140000000 1.0
C      1  0.5008110000000  0.4397050000000  0.4347540000000 1.0
C      1  0.5527390000000  0.4424970000000  0.5346770000000 1.0
C      1  0.4483630000000  0.4388110000000  0.5282750000000 1.0
C      1  0.5534470000000  0.4356340000000  0.4396290000000 1.0
C      1  0.5258980000000  0.4403050000000  0.5802030000000 1.0
C      1  0.4223100000000  0.4336790000000  0.4823470000000 1.0
C      1  0.5062610000000  0.4249040000000  0.5950830000000 1.0
C      1  0.4173400000000  0.4218210000000  0.4561620000000 1.0
C      1  0.5763010000000  0.4214390000000  0.4507620000000 1.0
C      1  0.4302630000000  0.4606790000000  0.4752530000000 1.0
C      1  0.5566360000000  0.4621900000000  0.4514800000000 1.0
C      1  0.5133840000000  0.4665940000000  0.5781780000000 1.0
C      1  0.3947230000000  0.5280800000000  0.4863950000000 1.0
C      1  0.5643760000000  0.5307860000000  0.4172810000000 1.0
C      1  0.5377780000000  0.5378890000000  0.5938120000000 1.0
C      1  0.4932440000000  0.5531130000000  0.4108260000000 1.0
C      1  0.5849570000000  0.5508700000000  0.5375220000000 1.0
C      1  0.4212960000000  0.5478340000000  0.5534240000000 1.0
C      1  0.6098650000000  0.5101880000000  0.5222700000000 1.0
C      1  0.4252220000000  0.5094910000000  0.5850560000000 1.0
C      1  0.4631240000000  0.5144640000000  0.3948330000000 1.0
C      1  0.5576750000000  0.5771680000000  0.4917270000000 1.0
C      1  0.4787650000000  0.5790180000000  0.5383910000000 1.0
C      1  0.4649440000000  0.5761350000000  0.4686920000000 1.0
C      1  0.5969380000000  0.5244850000000  0.5436770000000 1.0
C      1  0.4114200000000  0.5216000000000  0.5630620000000 1.0
C      1  0.4888540000000  0.5275680000000  0.3960450000000 1.0
C      1  0.4548480000000  0.5681460000000  0.6088660000000 1.0
C      1  0.4298470000000  0.5723460000000  0.4025860000000 1.0
C      1  0.6297420000000  0.5616780000000  0.4844610000000 1.0
C      1  0.5661570000000  0.5094030000000  0.4367190000000 1.0
C      1  0.5202330000000  0.5151470000000  0.5894060000000 1.0
C      1  0.4106930000000  0.5069860000000  0.4743260000000 1.0
C      1  0.4712190000000  0.5964580000000  0.5161440000000 1.0
C      1  0.4770200000000  0.5948460000000  0.4872890000000 1.0
C      1  0.5502350000000  0.6013970000000  0.5036020000000 1.0
C      1  0.4119370000000  0.5672490000000  0.3843560000000 1.0
C      1  0.6525270000000  0.5530710000000  0.4751980000000 1.0
C      1  0.4556510000000  0.5606390000000  0.6338070000000 1.0
C      1  0.5597940000000  0.5527310000000  0.5526460000000 1.0
C      1  0.4186570000000  0.5463990000000  0.5246750000000 1.0
C      1  0.5204210000000  0.5519560000000  0.4212470000000 1.0
C      1  0.4878500000000  0.4387270000000  0.5031910000000 1.0
C      1  0.5035630000000  0.4355140000000  0.4783550000000 1.0
C      1  0.5106820000000  0.4438680000000  0.5208380000000 1.0
C      1  0.5966980000000  0.4679170000000  0.5687300000000 1.0
C      1  0.3921030000000  0.4615310000000  0.5530660000000 1.0
C      1  0.5063560000000  0.4681450000000  0.3793990000000 1.0
C      1  0.5481150000000  0.4613640000000  0.4798440000000 1.0
C      1  0.4929530000000  0.4665390000000  0.5572730000000 1.0
C      1  0.4584200000000  0.4611620000000  0.4680810000000 1.0
C      1  0.4037150000000  0.4425410000000  0.5678370000000 1.0
C      1  0.4883080000000  0.4484050000000  0.3796120000000 1.0
C      1  0.6043480000000  0.4480850000000  0.5523970000000 1.0
C      1  0.3928120000000  0.4819530000000  0.5339320000000 1.0
C      1  0.5226120000000  0.4875440000000  0.3914750000000 1.0
C      1  0.5805590000000  0.4890930000000  0.5778620000000 1.0
C      1  0.4947970000000  0.4202760000000  0.4564330000000 1.0
C      1  0.5327470000000  0.4258230000000  0.5203200000000 1.0
C      1  0.4713760000000  0.4210980000000  0.5213170000000 1.0
C      1  0.5504840000000  0.5825400000000  0.4424460000000 1.0
C      1  0.5258550000000  0.5862900000000  0.5590800000000 1.0
C      1  0.4235470000000  0.5792640000000  0.4919100000000 1.0
C      1  0.4639080000000  0.4870260000000  0.5086640000000 1.0
C      1  0.5102800000000  0.4868450000000  0.4637230000000 1.0
C      1  0.5268320000000  0.4910110000000  0.5303940000000 1.0
C      1  0.4538660000000  0.4855690000000  0.5358170000000 1.0
C      1  0.4908840000000  0.4857660000000  0.4423280000000 1.0
C      1  0.5542830000000  0.4876800000000  0.5218970000000 1.0
C      1  0.6014230000000  0.5963610000000  0.5343270000000 1.0
C      1  0.4204810000000  0.5963300000000  0.5567810000000 1.0
C      1  0.4907230000000  0.5998930000000  0.4247500000000 1.0
C      1  0.5989710000000  0.5707110000000  0.5224710000000 1.0
C      1  0.4308290000000  0.5715770000000  0.5660180000000 1.0
C      1  0.4772020000000  0.5760840000000  0.4167350000000 1.0
C      1  0.6046110000000  0.5689600000000  0.4939170000000 1.0
C      1  0.4550440000000  0.5740330000000  0.5816100000000 1.0
C      1  0.4488420000000  0.5756410000000  0.4226460000000 1.0
C      1  0.5481120000000  0.4322490000000  0.5630610000000 1.0
C      1  0.4267720000000  0.4263520000000  0.5102460000000 1.0
C      1  0.5282260000000  0.4291720000000  0.4262630000000 1.0
C      1  0.4432130000000  0.4591680000000  0.3891910000000 1.0
C      1  0.6205480000000  0.4560080000000  0.5084390000000 1.0
C      1  0.4348420000000  0.4560800000000  0.6008760000000 1.0
C      1  0.4931130000000  0.4405800000000  0.6152050000000 1.0
C      1  0.4060930000000  0.4405050000000  0.4372890000000 1.0
C      1  0.6000720000000  0.4376240000000  0.4514520000000 1.0
C      1  0.5621720000000  0.5362650000000  0.5770410000000 1.0
C      1  0.3974720000000  0.5282490000000  0.5161680000000 1.0
C      1  0.5370090000000  0.5331450000000  0.4061070000000 1.0
C      1  0.4260550000000  0.4357660000000  0.5835100000000 1.0
C      1  0.4633580000000  0.4394820000000  0.3891620000000 1.0
C      1  0.6080820000000  0.4380820000000  0.5262360000000 1.0
C      1  0.4909890000000  0.4054630000000  0.5813990000000 1.0
C      1  0.4353670000000  0.4029400000000  0.4453290000000 1.0
C      1  0.5723520000000  0.4040760000000  0.4727800000000 1.0
C      1  0.5064850000000  0.5825010000000  0.5804400000000 1.0
C      1  0.4155550000000  0.5744180000000  0.4644410000000 1.0
C      1  0.5780490000000  0.5742670000000  0.4472090000000 1.0
C      1  0.4338950000000  0.5550830000000  0.5029850000000 1.0
C      1  0.5329590000000  0.5600770000000  0.4450780000000 1.0
C      1  0.5324250000000  0.5602870000000  0.5487410000000 1.0
C      1  0.5010920000000  0.5158430000000  0.5001620000000 1.0
END
