TITL C-3201375-1262-1668 -5.14863897116378e-07 125000 -826.716249211132 0 0 133 (C1) n - 1
REM
REM in /home/nfs/bkarasulu/CARBON/AIRSS/Generating-Clusters/LCBOP/Higher-Symm/SD-CG/FIRE-CG
REM
REM
REM
REM
REM
REM ./C.cell (b20cbc046b6831c77cfcea5457e17084)
REM AIRSS Version 0.9.1 bugfix July 2018 build 013d7b7c2542+ Fri, 06 Jul 2018 19:26:36 +0100
REM compiler GCC version 9.2.1 20190827 (Red Hat 9.2.1-1)
REM options -cpp -mtune=generic -march=x86-64 -g -O0 -fpre-include=/usr/include/finclude/math-vector-fortran.h
REM seed 785652534 1840792474 1693388839 -262870111 -1882584730 -1769048785 583663636 -1843950160 -870866695 1143592845 236298548 968386780 -827878040 1366307501 1579414884 -1721306852 264437699 1962243700 -1264199852 1835706472 478392381 -45081989 139637311 596634763 -2130938460 -39975616 -1981686661 -1491850519 -613793255 1103991453 -1234947068 -996093336 -2073622124
REM
CELL 1.54180   50.00000   50.00000   50.00000   90.00000   90.00000   90.00000
LATT -1
SFAC C  
C      1  0.5765310000000  0.4716800000000  0.4378250000000 1.0
C      1  0.5702720000000  0.5303770000000  0.4284800000000 1.0
C      1  0.5874610000000  0.4296360000000  0.5285550000000 1.0
C      1  0.6016350000000  0.5762100000000  0.5283120000000 1.0
C      1  0.6010350000000  0.4513500000000  0.5364430000000 1.0
C      1  0.6132800000000  0.5571810000000  0.5436930000000 1.0
C      1  0.4777340000000  0.5255720000000  0.4012730000000 1.0
C      1  0.4651250000000  0.4722000000000  0.3934720000000 1.0
C      1  0.5125620000000  0.5497870000000  0.4958260000000 1.0
C      1  0.5060320000000  0.4515030000000  0.4977280000000 1.0
C      1  0.5397940000000  0.5569930000000  0.4884580000000 1.0
C      1  0.5315240000000  0.4376500000000  0.4909080000000 1.0
C      1  0.4473040000000  0.4213160000000  0.4302840000000 1.0
C      1  0.4517280000000  0.5802250000000  0.4316220000000 1.0
C      1  0.5692550000000  0.4479360000000  0.5832940000000 1.0
C      1  0.5671830000000  0.5579430000000  0.5884000000000 1.0
C      1  0.4315970000000  0.5570060000000  0.5869250000000 1.0
C      1  0.4608830000000  0.3988400000000  0.5602240000000 1.0
C      1  0.4241340000000  0.5749860000000  0.4994020000000 1.0
C      1  0.4232960000000  0.4260510000000  0.4999050000000 1.0
C      1  0.4507830000000  0.4854310000000  0.4143970000000 1.0
C      1  0.4547770000000  0.5148140000000  0.4153470000000 1.0
C      1  0.5393270000000  0.4929390000000  0.5419320000000 1.0
C      1  0.5380940000000  0.5221600000000  0.5466630000000 1.0
C      1  0.4998930000000  0.4503520000000  0.5263100000000 1.0
C      1  0.5070850000000  0.5570820000000  0.5235240000000 1.0
C      1  0.4744400000000  0.4426030000000  0.5804200000000 1.0
C      1  0.4786260000000  0.5457890000000  0.5835720000000 1.0
C      1  0.4795150000000  0.5194830000000  0.5445230000000 1.0
C      1  0.4813810000000  0.4935340000000  0.5349590000000 1.0
C      1  0.4355310000000  0.4825490000000  0.5710540000000 1.0
C      1  0.4396140000000  0.5122530000000  0.5704580000000 1.0
C      1  0.4997160000000  0.5082820000000  0.3947390000000 1.0
C      1  0.4916450000000  0.4815110000000  0.3873040000000 1.0
C      1  0.5041380000000  0.4255920000000  0.5447330000000 1.0
C      1  0.5161280000000  0.5802130000000  0.5385190000000 1.0
C      1  0.5371720000000  0.4762700000000  0.5649660000000 1.0
C      1  0.5237740000000  0.5301690000000  0.5711630000000 1.0
C      1  0.5432420000000  0.4066750000000  0.4574050000000 1.0
C      1  0.5410460000000  0.5956560000000  0.4603150000000 1.0
C      1  0.5533840000000  0.5113940000000  0.4122530000000 1.0
C      1  0.5621160000000  0.4838020000000  0.4158410000000 1.0
C      1  0.4130370000000  0.4737840000000  0.5038460000000 1.0
C      1  0.4111300000000  0.5258380000000  0.4983560000000 1.0
C      1  0.5274460000000  0.5146040000000  0.3999530000000 1.0
C      1  0.5112900000000  0.4614110000000  0.3855880000000 1.0
C      1  0.4832340000000  0.5449000000000  0.5323570000000 1.0
C      1  0.4775910000000  0.4658980000000  0.5327540000000 1.0
C      1  0.4644990000000  0.6037370000000  0.5127250000000 1.0
C      1  0.4681700000000  0.4061270000000  0.5099290000000 1.0
C      1  0.4038000000000  0.4318030000000  0.5207680000000 1.0
C      1  0.4079250000000  0.5644000000000  0.5218320000000 1.0
C      1  0.4495020000000  0.4267010000000  0.5128370000000 1.0
C      1  0.4498960000000  0.5800590000000  0.5119310000000 1.0
C      1  0.5475380000000  0.4331880000000  0.4668810000000 1.0
C      1  0.5488710000000  0.5687490000000  0.4633860000000 1.0
C      1  0.4602880000000  0.4000910000000  0.4432500000000 1.0
C      1  0.4587500000000  0.6035450000000  0.4454350000000 1.0
C      1  0.5933180000000  0.5170950000000  0.4398830000000 1.0
C      1  0.5959620000000  0.4907310000000  0.4466420000000 1.0
C      1  0.5219440000000  0.5747510000000  0.5661420000000 1.0
C      1  0.5212830000000  0.4331750000000  0.5697940000000 1.0
C      1  0.4406400000000  0.4710200000000  0.5051410000000 1.0
C      1  0.4352720000000  0.5321830000000  0.4827220000000 1.0
C      1  0.4622130000000  0.5549910000000  0.5167820000000 1.0
C      1  0.4539440000000  0.4537220000000  0.5230170000000 1.0
C      1  0.5582090000000  0.5358540000000  0.5297400000000 1.0
C      1  0.5560970000000  0.4865340000000  0.5192440000000 1.0
C      1  0.5365100000000  0.5196390000000  0.4582750000000 1.0
C      1  0.5228720000000  0.4571710000000  0.4325520000000 1.0
C      1  0.3891580000000  0.4857990000000  0.5036990000000 1.0
C      1  0.3882270000000  0.5125290000000  0.5019870000000 1.0
C      1  0.5824470000000  0.5354280000000  0.5907010000000 1.0
C      1  0.5873160000000  0.4679530000000  0.5882160000000 1.0
C      1  0.4229260000000  0.5371800000000  0.5676700000000 1.0
C      1  0.4139260000000  0.4681600000000  0.5583360000000 1.0
C      1  0.4918700000000  0.5117200000000  0.4671360000000 1.0
C      1  0.4969550000000  0.4844890000000  0.4630680000000 1.0
C      1  0.4443540000000  0.4872730000000  0.4610670000000 1.0
C      1  0.4378940000000  0.5144320000000  0.4594920000000 1.0
C      1  0.5148380000000  0.4064560000000  0.5235980000000 1.0
C      1  0.5105450000000  0.6049120000000  0.5261310000000 1.0
C      1  0.4909650000000  0.6119300000000  0.5068750000000 1.0
C      1  0.4945170000000  0.3967360000000  0.5049290000000 1.0
C      1  0.4037960000000  0.4478070000000  0.5431840000000 1.0
C      1  0.4104120000000  0.5483950000000  0.5441570000000 1.0
C      1  0.5978240000000  0.5179130000000  0.5739760000000 1.0
C      1  0.5973630000000  0.4883470000000  0.5709770000000 1.0
C      1  0.4854550000000  0.4666970000000  0.4818680000000 1.0
C      1  0.4896340000000  0.5343910000000  0.4834800000000 1.0
C      1  0.4676510000000  0.5220670000000  0.5700770000000 1.0
C      1  0.4561890000000  0.4645250000000  0.5812330000000 1.0
C      1  0.5577400000000  0.5574260000000  0.5108820000000 1.0
C      1  0.5385160000000  0.4181050000000  0.5117370000000 1.0
C      1  0.5665960000000  0.4500790000000  0.4536820000000 1.0
C      1  0.5623720000000  0.5545150000000  0.4422290000000 1.0
C      1  0.5648550000000  0.4173780000000  0.5212290000000 1.0
C      1  0.5784830000000  0.5764390000000  0.5143540000000 1.0
C      1  0.6031230000000  0.5314270000000  0.5488280000000 1.0
C      1  0.5980340000000  0.4785280000000  0.5432240000000 1.0
C      1  0.5446140000000  0.4491540000000  0.5690220000000 1.0
C      1  0.5482450000000  0.5745000000000  0.5778890000000 1.0
C      1  0.4413490000000  0.4705600000000  0.4382210000000 1.0
C      1  0.4417410000000  0.5303560000000  0.4359010000000 1.0
C      1  0.4774070000000  0.3883020000000  0.4599280000000 1.0
C      1  0.4755570000000  0.6170440000000  0.4610820000000 1.0
C      1  0.4497850000000  0.4254440000000  0.4026240000000 1.0
C      1  0.4651140000000  0.5741520000000  0.4076340000000 1.0
C      1  0.5216540000000  0.4762240000000  0.4526790000000 1.0
C      1  0.5401670000000  0.4932200000000  0.4665690000000 1.0
C      1  0.4993920000000  0.3883770000000  0.4777030000000 1.0
C      1  0.4969840000000  0.6167990000000  0.4793550000000 1.0
C      1  0.4352670000000  0.4422850000000  0.4459560000000 1.0
C      1  0.4373190000000  0.5590680000000  0.4442990000000 1.0
C      1  0.5249380000000  0.3886940000000  0.4657210000000 1.0
C      1  0.5228350000000  0.6131770000000  0.4690180000000 1.0
C      1  0.4277010000000  0.5611200000000  0.4727060000000 1.0
C      1  0.4234080000000  0.4333100000000  0.4714950000000 1.0
C      1  0.4758890000000  0.4214660000000  0.5595570000000 1.0
C      1  0.4576210000000  0.5618510000000  0.5937910000000 1.0
C      1  0.5059660000000  0.5524820000000  0.5760240000000 1.0
C      1  0.5015670000000  0.4413360000000  0.5903120000000 1.0
C      1  0.5212390000000  0.5357070000000  0.4438990000000 1.0
C      1  0.5222860000000  0.4494720000000  0.4069900000000 1.0
C      1  0.5302180000000  0.4878330000000  0.5897420000000 1.0
C      1  0.5267750000000  0.5137980000000  0.5936750000000 1.0
C      1  0.5840580000000  0.5223660000000  0.5297890000000 1.0
C      1  0.5829300000000  0.4945230000000  0.5252190000000 1.0
C      1  0.4567450000000  0.4461580000000  0.3870760000000 1.0
C      1  0.4772090000000  0.5531410000000  0.3963150000000 1.0
C      1  0.4626640000000  0.5382280000000  0.4937100000000 1.0
C      1  0.4572860000000  0.4753500000000  0.4830840000000 1.0
C      1  0.5489980000000  0.4865100000000  0.4922600000000 1.0
END
