TITL C-3201378-2706-739 1.70538910944296e-07 125000 -46.6024021146553 0 0 8 (D8h) n - 1
REM
REM in /home/nfs/bkarasulu/CARBON/AIRSS/Generating-Clusters/LCBOP/Higher-Symm/SD-CG/FIRE-CG
REM
REM
REM
REM
REM
REM ./C.cell (b20cbc046b6831c77cfcea5457e17084)
REM AIRSS Version 0.9.1 bugfix July 2018 build 013d7b7c2542+ Fri, 06 Jul 2018 19:26:36 +0100
REM compiler GCC version 9.2.1 20190827 (Red Hat 9.2.1-1)
REM options -cpp -mtune=generic -march=x86-64 -g -O0 -fpre-include=/usr/include/finclude/math-vector-fortran.h
REM seed 1477779307 -951752381 55859240 560190311 -1666017317 -1091414340 -246476187 173837359 -1703825245 -2049049929 425854857 158808292 -1290937963 2138506589 -29676139 1698605907 552651662 -980996612 -1876705099 1961642604 59147709 1788628213 2114999570 -181394588 1479070317 70452250 -1726238647 -1308931549 -742589073 -846379120 -1056140254 2124708738 -759258603
REM
CELL 1.54180   50.00000   50.00000   50.00000   90.00000   90.00000   90.00000
LATT -1
SFAC C  
C      1  0.5000000000000  0.4699000000000  0.4818410000000 1.0
C      1  0.5000000000000  0.4915570000000  0.4658760000000 1.0
C      1  0.5000000000000  0.5181590000000  0.4699000000000 1.0
C      1  0.5000000000000  0.5341240000000  0.4915570000000 1.0
C      1  0.5000000000000  0.5301000000000  0.5181590000000 1.0
C      1  0.5000000000000  0.5084430000000  0.5341240000000 1.0
C      1  0.5000000000000  0.4818410000000  0.5301000000000 1.0
C      1  0.5000000000000  0.4658760000000  0.5084430000000 1.0
END
