TITL C-3201375-1262-1455 0.159617367401757 125000 -160.121176312458 0 0 28 (C1) n - 1
REM
REM in /home/nfs/bkarasulu/CARBON/AIRSS/Generating-Clusters/LCBOP/Higher-Symm/SD-CG/FIRE-CG
REM
REM
REM
REM
REM
REM ./C.cell (b20cbc046b6831c77cfcea5457e17084)
REM AIRSS Version 0.9.1 bugfix July 2018 build 013d7b7c2542+ Fri, 06 Jul 2018 19:26:36 +0100
REM compiler GCC version 9.2.1 20190827 (Red Hat 9.2.1-1)
REM options -cpp -mtune=generic -march=x86-64 -g -O0 -fpre-include=/usr/include/finclude/math-vector-fortran.h
REM seed 1569088896 -272426273 2046393580 -1507965176 -1860921403 987234232 -897113942 792996312 -470572204 930253880 -498167521 -839581506 217095253 -445749488 -1010232403 1038293274 1291173768 -1884741085 950236702 -1277598941 1505288804 -773699920 -571559996 -23789006 1497785301 -408561650 713916809 -675322014 1240987559 1120652667 -222991595 39122640 1894977607
REM
CELL 1.54180   50.00000   50.00000   50.00000   90.00000   90.00000   90.00000
LATT -1
SFAC C  
C      1  0.4791710000000  0.4727860000000  0.5167910000000 1.0
C      1  0.5303060000000  0.5317870000000  0.5196510000000 1.0
C      1  0.5193650000000  0.4747990000000  0.5178850000000 1.0
C      1  0.4694040000000  0.5283120000000  0.5232390000000 1.0
C      1  0.5441850000000  0.5140540000000  0.5031390000000 1.0
C      1  0.4649470000000  0.4868680000000  0.4977940000000 1.0
C      1  0.4561550000000  0.5135290000000  0.5035760000000 1.0
C      1  0.5335760000000  0.4879070000000  0.4982120000000 1.0
C      1  0.5530020000000  0.4721610000000  0.4515200000000 1.0
C      1  0.4183820000000  0.5258270000000  0.4684390000000 1.0
C      1  0.4448080000000  0.4737290000000  0.4504880000000 1.0
C      1  0.5855050000000  0.5204320000000  0.4706720000000 1.0
C      1  0.5124000000000  0.5486620000000  0.5329050000000 1.0
C      1  0.4847990000000  0.4584170000000  0.5397300000000 1.0
C      1  0.4876770000000  0.5379790000000  0.5420470000000 1.0
C      1  0.5139540000000  0.4599610000000  0.5405760000000 1.0
C      1  0.4255660000000  0.4881500000000  0.4385010000000 1.0
C      1  0.5889730000000  0.5048980000000  0.4490230000000 1.0
C      1  0.5745650000000  0.4838050000000  0.4405000000000 1.0
C      1  0.4138210000000  0.5110330000000  0.4464790000000 1.0
C      1  0.4590630000000  0.4749080000000  0.4730620000000 1.0
C      1  0.5680540000000  0.5223180000000  0.4908370000000 1.0
C      1  0.5381290000000  0.4752740000000  0.4735140000000 1.0
C      1  0.4347710000000  0.5251020000000  0.4895390000000 1.0
C      1  0.4683320000000  0.4460650000000  0.5572330000000 1.0
C      1  0.5183550000000  0.5750830000000  0.5367530000000 1.0
C      1  0.5305850000000  0.4494310000000  0.5590860000000 1.0
C      1  0.4821500000000  0.5367240000000  0.5688070000000 1.0
END
