TITL C-3201372-1405-976 -0.0438063463368708 125000 -388.152987252228 0 0 64 (C1) n - 1
REM
REM in /home/nfs/bkarasulu/CARBON/AIRSS/Generating-Clusters/LCBOP/Higher-Symm/SD-CG/FIRE-CG
REM
REM
REM
REM
REM
REM ./C.cell (b20cbc046b6831c77cfcea5457e17084)
REM AIRSS Version 0.9.1 bugfix July 2018 build 013d7b7c2542+ Fri, 06 Jul 2018 19:26:36 +0100
REM compiler GCC version 9.2.1 20190827 (Red Hat 9.2.1-1)
REM options -cpp -mtune=generic -march=x86-64 -g -O0 -fpre-include=/usr/include/finclude/math-vector-fortran.h
REM seed 1617775664 -1425064301 -412135935 1700028653 -1101939679 -1800471096 -1486190053 2034048782 -853076892 -1316490205 -1698754584 1621288800 60078141 -696739565 -25471080 -1646357193 -1512374389 152774631 1255967009 -162502531 -451836458 -1851813206 -113045577 1205149192 572096787 -849513637 154330660 288434114 -1375623291 202774796 -624373033 -651369769 -1284312101
REM
CELL 1.54180   50.00000   50.00000   50.00000   90.00000   90.00000   90.00000
LATT -1
SFAC C  
C      1  0.5307490000000  0.5379350000000  0.4492900000000 1.0
C      1  0.5176070000000  0.4234940000000  0.5031090000000 1.0
C      1  0.5320320000000  0.5283480000000  0.5640700000000 1.0
C      1  0.5407640000000  0.4866310000000  0.5231290000000 1.0
C      1  0.5295510000000  0.5365800000000  0.5138600000000 1.0
C      1  0.5307700000000  0.4946150000000  0.4732290000000 1.0
C      1  0.5362780000000  0.5016580000000  0.5676380000000 1.0
C      1  0.5329030000000  0.5570220000000  0.4684600000000 1.0
C      1  0.5307360000000  0.4425110000000  0.4886560000000 1.0
C      1  0.4878440000000  0.4068630000000  0.3962320000000 1.0
C      1  0.4881760000000  0.4704400000000  0.6467030000000 1.0
C      1  0.4873520000000  0.6275710000000  0.4114600000000 1.0
C      1  0.4725180000000  0.5171920000000  0.5593070000000 1.0
C      1  0.4730730000000  0.5390210000000  0.4553640000000 1.0
C      1  0.4555220000000  0.4346360000000  0.4872200000000 1.0
C      1  0.4853220000000  0.6069870000000  0.4280360000000 1.0
C      1  0.4833010000000  0.4181210000000  0.4197930000000 1.0
C      1  0.4870300000000  0.4783440000000  0.6214290000000 1.0
C      1  0.5737040000000  0.5399540000000  0.4885590000000 1.0
C      1  0.5765180000000  0.4729450000000  0.4765780000000 1.0
C      1  0.5832360000000  0.5034720000000  0.5371140000000 1.0
C      1  0.4828590000000  0.5646590000000  0.4617140000000 1.0
C      1  0.4756540000000  0.4419140000000  0.4678600000000 1.0
C      1  0.4861180000000  0.4945270000000  0.5697670000000 1.0
C      1  0.4800700000000  0.4783670000000  0.5256840000000 1.0
C      1  0.4697100000000  0.5597550000000  0.5065010000000 1.0
C      1  0.4781130000000  0.4796680000000  0.4969680000000 1.0
C      1  0.5160760000000  0.5382720000000  0.5423920000000 1.0
C      1  0.5162110000000  0.5134240000000  0.4531400000000 1.0
C      1  0.4933820000000  0.4150950000000  0.5118460000000 1.0
C      1  0.4377700000000  0.4576930000000  0.5259750000000 1.0
C      1  0.4428450000000  0.5289310000000  0.5235960000000 1.0
C      1  0.4481260000000  0.5004950000000  0.4657670000000 1.0
C      1  0.4985350000000  0.4803700000000  0.5475940000000 1.0
C      1  0.4910940000000  0.5651720000000  0.4892530000000 1.0
C      1  0.4916600000000  0.4640340000000  0.4772520000000 1.0
C      1  0.4893510000000  0.6478150000000  0.3951560000000 1.0
C      1  0.4923150000000  0.3957910000000  0.3730570000000 1.0
C      1  0.4893060000000  0.4626650000000  0.6715610000000 1.0
C      1  0.4492720000000  0.4316030000000  0.5327380000000 1.0
C      1  0.4711810000000  0.5564720000000  0.5337460000000 1.0
C      1  0.4675610000000  0.4958610000000  0.4443170000000 1.0
C      1  0.5265850000000  0.4837920000000  0.5473550000000 1.0
C      1  0.5181210000000  0.5563010000000  0.4930860000000 1.0
C      1  0.5197480000000  0.4658990000000  0.4763430000000 1.0
C      1  0.4510560000000  0.5288620000000  0.4725010000000 1.0
C      1  0.4384270000000  0.4575400000000  0.4959980000000 1.0
C      1  0.4497000000000  0.5093650000000  0.5425380000000 1.0
C      1  0.4515650000000  0.4812040000000  0.5354910000000 1.0
C      1  0.4494170000000  0.5397870000000  0.4986440000000 1.0
C      1  0.4501330000000  0.4821790000000  0.4867620000000 1.0
C      1  0.5693150000000  0.4826000000000  0.5238470000000 1.0
C      1  0.5613660000000  0.5412790000000  0.5142930000000 1.0
C      1  0.5612430000000  0.4951330000000  0.4675850000000 1.0
C      1  0.4885430000000  0.5155930000000  0.4456420000000 1.0
C      1  0.4656000000000  0.4206390000000  0.5112920000000 1.0
C      1  0.4875030000000  0.5393290000000  0.5481680000000 1.0
C      1  0.4860530000000  0.4862540000000  0.5961720000000 1.0
C      1  0.4834630000000  0.5864000000000  0.4445930000000 1.0
C      1  0.4789200000000  0.4294250000000  0.4433400000000 1.0
C      1  0.5738420000000  0.5206540000000  0.4696130000000 1.0
C      1  0.5808840000000  0.4678440000000  0.5028190000000 1.0
C      1  0.5770520000000  0.5298380000000  0.5349840000000 1.0
C      1  0.5298290000000  0.5058160000000  0.5033620000000 1.0
END
