TITL C-3201373-1215-258 -0.0812728854269707 125000 -798.45675530321 0 0 131 (C1) n - 1
REM
REM in /home/nfs/bkarasulu/CARBON/AIRSS/Generating-Clusters/LCBOP/Higher-Symm/SD-CG/FIRE-CG
REM
REM
REM
REM
REM
REM ./C.cell (b20cbc046b6831c77cfcea5457e17084)
REM AIRSS Version 0.9.1 bugfix July 2018 build 013d7b7c2542+ Fri, 06 Jul 2018 19:26:36 +0100
REM compiler GCC version 9.2.1 20190827 (Red Hat 9.2.1-1)
REM options -cpp -mtune=generic -march=x86-64 -g -O0 -fpre-include=/usr/include/finclude/math-vector-fortran.h
REM seed 1994968101 779365502 -2048692972 1214469820 -172192952 1410593992 1287970521 -1565060190 -579357381 -2001017935 59314753 179964983 -629356739 -1599809856 -843818028 -1580748115 -905937201 151717531 362384371 -125598963 -1226961396 464322719 364496011 -151295986 1386088997 -874253967 413943276 -1312904734 -884246825 1077431401 -1766887659 1676691287 547159743
REM
CELL 1.54180   50.00000   50.00000   50.00000   90.00000   90.00000   90.00000
LATT -1
SFAC C  
C      1  0.4539360000000  0.4412060000000  0.4967300000000 1.0
C      1  0.5506560000000  0.5157580000000  0.3997780000000 1.0
C      1  0.5320640000000  0.5315900000000  0.5997180000000 1.0
C      1  0.5332620000000  0.4018380000000  0.4445450000000 1.0
C      1  0.3951040000000  0.4296370000000  0.4574930000000 1.0
C      1  0.4345400000000  0.6461910000000  0.4666700000000 1.0
C      1  0.5238930000000  0.4746540000000  0.3859340000000 1.0
C      1  0.4505760000000  0.6254200000000  0.4629350000000 1.0
C      1  0.4324060000000  0.4569460000000  0.4145270000000 1.0
C      1  0.4853510000000  0.3991840000000  0.4695130000000 1.0
C      1  0.4144800000000  0.5386350000000  0.4899170000000 1.0
C      1  0.4992800000000  0.5176140000000  0.4797770000000 1.0
C      1  0.3957310000000  0.4566860000000  0.4494040000000 1.0
C      1  0.4960050000000  0.4519260000000  0.5937710000000 1.0
C      1  0.4871450000000  0.4740700000000  0.6111930000000 1.0
C      1  0.4845670000000  0.5652270000000  0.4106920000000 1.0
C      1  0.5675150000000  0.4658490000000  0.4148290000000 1.0
C      1  0.5844630000000  0.4597780000000  0.4635730000000 1.0
C      1  0.4745980000000  0.4295750000000  0.5096600000000 1.0
C      1  0.4655610000000  0.5246930000000  0.5115900000000 1.0
C      1  0.4372490000000  0.4570070000000  0.5851220000000 1.0
C      1  0.5618480000000  0.5120010000000  0.5517460000000 1.0
C      1  0.4753350000000  0.4333170000000  0.4356030000000 1.0
C      1  0.5480550000000  0.5850850000000  0.4986990000000 1.0
C      1  0.4130430000000  0.4330270000000  0.5423420000000 1.0
C      1  0.5626430000000  0.5532190000000  0.5387020000000 1.0
C      1  0.5954820000000  0.4768390000000  0.4850940000000 1.0
C      1  0.5760780000000  0.5049980000000  0.4522130000000 1.0
C      1  0.5207020000000  0.4187260000000  0.4276280000000 1.0
C      1  0.5523200000000  0.5486450000000  0.5891660000000 1.0
C      1  0.5318140000000  0.4487350000000  0.5521570000000 1.0
C      1  0.3973540000000  0.5066300000000  0.5252250000000 1.0
C      1  0.5631750000000  0.5617050000000  0.4938070000000 1.0
C      1  0.5217730000000  0.5371220000000  0.4342940000000 1.0
C      1  0.4811510000000  0.5807480000000  0.4584310000000 1.0
C      1  0.4923740000000  0.4969840000000  0.5662330000000 1.0
C      1  0.5478700000000  0.4644940000000  0.3953570000000 1.0
C      1  0.4718110000000  0.4745270000000  0.5318600000000 1.0
C      1  0.5583550000000  0.5296790000000  0.3790930000000 1.0
C      1  0.5324250000000  0.5022360000000  0.5939450000000 1.0
C      1  0.6087630000000  0.5240150000000  0.5346860000000 1.0
C      1  0.4873960000000  0.5251770000000  0.6152660000000 1.0
C      1  0.5247320000000  0.4400800000000  0.5222390000000 1.0
C      1  0.4499400000000  0.5733770000000  0.5511990000000 1.0
C      1  0.4136600000000  0.4102380000000  0.4577730000000 1.0
C      1  0.4944610000000  0.4832920000000  0.5161020000000 1.0
C      1  0.5011170000000  0.5181270000000  0.4305100000000 1.0
C      1  0.4203620000000  0.5230170000000  0.5654960000000 1.0
C      1  0.4009110000000  0.4768300000000  0.4686750000000 1.0
C      1  0.3901140000000  0.4796560000000  0.5311830000000 1.0
C      1  0.5978920000000  0.5047280000000  0.4746890000000 1.0
C      1  0.5885940000000  0.5145110000000  0.5495920000000 1.0
C      1  0.5663330000000  0.4746430000000  0.5261070000000 1.0
C      1  0.4499770000000  0.5019230000000  0.5967450000000 1.0
C      1  0.5191310000000  0.5389570000000  0.5406890000000 1.0
C      1  0.4475650000000  0.5506490000000  0.5931130000000 1.0
C      1  0.4740350000000  0.5002840000000  0.6124990000000 1.0
C      1  0.4491990000000  0.4809390000000  0.5777300000000 1.0
C      1  0.4604240000000  0.5505330000000  0.4980440000000 1.0
C      1  0.4417880000000  0.4666070000000  0.4953380000000 1.0
C      1  0.5521010000000  0.4249350000000  0.5121950000000 1.0
C      1  0.5282760000000  0.4821310000000  0.4349090000000 1.0
C      1  0.4394290000000  0.4043790000000  0.4538980000000 1.0
C      1  0.5252670000000  0.5649810000000  0.4372560000000 1.0
C      1  0.4326520000000  0.5570860000000  0.5046940000000 1.0
C      1  0.4207450000000  0.5157140000000  0.5385640000000 1.0
C      1  0.4662060000000  0.6042730000000  0.4597810000000 1.0
C      1  0.5042730000000  0.5419090000000  0.5991400000000 1.0
C      1  0.5188000000000  0.5025760000000  0.5684590000000 1.0
C      1  0.4666320000000  0.4111860000000  0.4520650000000 1.0
C      1  0.5725290000000  0.4349790000000  0.4691220000000 1.0
C      1  0.4187200000000  0.6665690000000  0.4704230000000 1.0
C      1  0.4927790000000  0.5584050000000  0.5764090000000 1.0
C      1  0.4291440000000  0.4800990000000  0.4738830000000 1.0
C      1  0.6139960000000  0.5335280000000  0.5101100000000 1.0
C      1  0.4927730000000  0.5156660000000  0.4030040000000 1.0
C      1  0.4276220000000  0.5290400000000  0.4659250000000 1.0
C      1  0.5658000000000  0.4695030000000  0.5782720000000 1.0
C      1  0.5572910000000  0.5403520000000  0.5124950000000 1.0
C      1  0.5619260000000  0.5576750000000  0.5654800000000 1.0
C      1  0.5170590000000  0.4627330000000  0.4773430000000 1.0
C      1  0.5538310000000  0.4201510000000  0.4841540000000 1.0
C      1  0.5774260000000  0.4231440000000  0.5250830000000 1.0
C      1  0.5077530000000  0.5623000000000  0.5518410000000 1.0
C      1  0.5291430000000  0.5931150000000  0.5162900000000 1.0
C      1  0.4768060000000  0.4322440000000  0.5847260000000 1.0
C      1  0.5528330000000  0.5732550000000  0.4393720000000 1.0
C      1  0.5036940000000  0.4933290000000  0.3883010000000 1.0
C      1  0.5589930000000  0.4623060000000  0.5512740000000 1.0
C      1  0.4882560000000  0.5085000000000  0.5036210000000 1.0
C      1  0.3975220000000  0.4541490000000  0.5359530000000 1.0
C      1  0.4492670000000  0.4327380000000  0.5768020000000 1.0
C      1  0.6016760000000  0.5320270000000  0.4846820000000 1.0
C      1  0.5331850000000  0.4050610000000  0.4726250000000 1.0
C      1  0.5201750000000  0.4691280000000  0.5071610000000 1.0
C      1  0.5032010000000  0.4396790000000  0.4353740000000 1.0
C      1  0.4075550000000  0.4609320000000  0.4239200000000 1.0
C      1  0.5739160000000  0.5546920000000  0.4476860000000 1.0
C      1  0.4707790000000  0.4815100000000  0.5589390000000 1.0
C      1  0.5406710000000  0.5008200000000  0.4197720000000 1.0
C      1  0.4330220000000  0.5706040000000  0.5299460000000 1.0
C      1  0.5977550000000  0.4408340000000  0.5201430000000 1.0
C      1  0.5769290000000  0.4760400000000  0.4403050000000 1.0
C      1  0.5596760000000  0.5990890000000  0.4330310000000 1.0
C      1  0.4828680000000  0.5419370000000  0.3961070000000 1.0
C      1  0.4919060000000  0.5074690000000  0.4545680000000 1.0
C      1  0.3857080000000  0.4985550000000  0.4792900000000 1.0
C      1  0.4641390000000  0.5639160000000  0.5743540000000 1.0
C      1  0.4385700000000  0.5043820000000  0.4625460000000 1.0
C      1  0.5904070000000  0.4672100000000  0.5118660000000 1.0
C      1  0.4337110000000  0.4216120000000  0.5558720000000 1.0
C      1  0.5038780000000  0.5454680000000  0.4806880000000 1.0
C      1  0.5136790000000  0.5858080000000  0.5372250000000 1.0
C      1  0.5151810000000  0.4617690000000  0.4492340000000 1.0
C      1  0.4360870000000  0.5253610000000  0.5888480000000 1.0
C      1  0.5335790000000  0.5166470000000  0.5496920000000 1.0
C      1  0.5218800000000  0.4548270000000  0.5808340000000 1.0
C      1  0.4567610000000  0.4474950000000  0.4200700000000 1.0
C      1  0.4975610000000  0.5751390000000  0.4347790000000 1.0
C      1  0.4806910000000  0.5619160000000  0.4803740000000 1.0
C      1  0.4477870000000  0.4817850000000  0.5183000000000 1.0
C      1  0.5831450000000  0.5538400000000  0.4751440000000 1.0
C      1  0.5448770000000  0.4875140000000  0.5119420000000 1.0
C      1  0.4440010000000  0.5097690000000  0.5233100000000 1.0
C      1  0.5020230000000  0.4223190000000  0.5089030000000 1.0
C      1  0.5497380000000  0.5136530000000  0.4998400000000 1.0
C      1  0.5520970000000  0.5109260000000  0.4710560000000 1.0
C      1  0.5791720000000  0.5295480000000  0.4353040000000 1.0
C      1  0.3945030000000  0.5180950000000  0.4988870000000 1.0
C      1  0.5078140000000  0.4053970000000  0.4858080000000 1.0
C      1  0.5417710000000  0.4744950000000  0.5940970000000 1.0
END
