TITL C-3201375-1262-1681 -9.35689204720385e-07 125000 -555.3258995257 0 0 90 (C1) n - 1
REM
REM in /home/nfs/bkarasulu/CARBON/AIRSS/Generating-Clusters/LCBOP/Higher-Symm/SD-CG/FIRE-CG
REM
REM
REM
REM
REM
REM ./C.cell (b20cbc046b6831c77cfcea5457e17084)
REM AIRSS Version 0.9.1 bugfix July 2018 build 013d7b7c2542+ Fri, 06 Jul 2018 19:26:36 +0100
REM compiler GCC version 9.2.1 20190827 (Red Hat 9.2.1-1)
REM options -cpp -mtune=generic -march=x86-64 -g -O0 -fpre-include=/usr/include/finclude/math-vector-fortran.h
REM seed -813549581 2139113999 263346593 873216008 1176987044 1093042780 2084703011 966897829 -441352683 -737932154 -1693524482 1757853373 -357380372 -1267186750 -1941933361 791924270 -304713649 -635835138 -1644443393 992379837 -785887929 1078657569 -1382904127 -85826267 -1157316817 -1482299376 -1228553423 -569763290 1189899462 -1942117145 -1665883389 -1336247547 1435451562
REM
CELL 1.54180   50.00000   50.00000   50.00000   90.00000   90.00000   90.00000
LATT -1
SFAC C  
C      1  0.5333100000000  0.4941840000000  0.4864680000000 1.0
C      1  0.4668080000000  0.5115610000000  0.5167020000000 1.0
C      1  0.5474470000000  0.4397240000000  0.4596390000000 1.0
C      1  0.4549890000000  0.5710660000000  0.5417960000000 1.0
C      1  0.5081460000000  0.5372780000000  0.5090430000000 1.0
C      1  0.4930110000000  0.4658600000000  0.4912250000000 1.0
C      1  0.5295640000000  0.4614990000000  0.5840800000000 1.0
C      1  0.4616650000000  0.5335340000000  0.4117310000000 1.0
C      1  0.4696110000000  0.4590270000000  0.4492130000000 1.0
C      1  0.5302530000000  0.5456520000000  0.5544020000000 1.0
C      1  0.4695700000000  0.5938240000000  0.5021900000000 1.0
C      1  0.5380170000000  0.4123510000000  0.4986200000000 1.0
C      1  0.4868220000000  0.4129560000000  0.4499700000000 1.0
C      1  0.5131830000000  0.5919680000000  0.5590720000000 1.0
C      1  0.4290830000000  0.5214880000000  0.5735400000000 1.0
C      1  0.5634630000000  0.4920260000000  0.4250470000000 1.0
C      1  0.5235680000000  0.4151870000000  0.5240810000000 1.0
C      1  0.4806430000000  0.5924660000000  0.4764260000000 1.0
C      1  0.5339360000000  0.4548750000000  0.4393990000000 1.0
C      1  0.4643900000000  0.5551320000000  0.5636600000000 1.0
C      1  0.4952800000000  0.4034060000000  0.4748830000000 1.0
C      1  0.5011760000000  0.6080950000000  0.5414310000000 1.0
C      1  0.5236050000000  0.5353280000000  0.4173830000000 1.0
C      1  0.4575780000000  0.4633360000000  0.5671300000000 1.0
C      1  0.5262610000000  0.4407640000000  0.5672790000000 1.0
C      1  0.4771190000000  0.5435740000000  0.4316350000000 1.0
C      1  0.4896930000000  0.5535520000000  0.5789880000000 1.0
C      1  0.5088910000000  0.4500720000000  0.4249180000000 1.0
C      1  0.4323470000000  0.4731300000000  0.5563390000000 1.0
C      1  0.6020340000000  0.5087170000000  0.4583570000000 1.0
C      1  0.4438110000000  0.4957040000000  0.4340340000000 1.0
C      1  0.5502250000000  0.5015740000000  0.5648820000000 1.0
C      1  0.4531840000000  0.5288760000000  0.5608440000000 1.0
C      1  0.5411970000000  0.4828450000000  0.4400970000000 1.0
C      1  0.5285940000000  0.4893950000000  0.5794700000000 1.0
C      1  0.4612830000000  0.5049460000000  0.4126590000000 1.0
C      1  0.5630110000000  0.4909250000000  0.3976760000000 1.0
C      1  0.4141060000000  0.5391740000000  0.5879470000000 1.0
C      1  0.4777480000000  0.4803130000000  0.5792710000000 1.0
C      1  0.5089340000000  0.5165380000000  0.4044350000000 1.0
C      1  0.5145740000000  0.5302660000000  0.5359560000000 1.0
C      1  0.4840070000000  0.4772860000000  0.4663110000000 1.0
C      1  0.5178260000000  0.4751640000000  0.5024520000000 1.0
C      1  0.4822010000000  0.5287470000000  0.5009290000000 1.0
C      1  0.4975180000000  0.5009800000000  0.4561900000000 1.0
C      1  0.4973220000000  0.5118210000000  0.5498680000000 1.0
C      1  0.4512450000000  0.5742880000000  0.5132780000000 1.0
C      1  0.5544640000000  0.4332200000000  0.4868930000000 1.0
C      1  0.5137220000000  0.5652630000000  0.5675400000000 1.0
C      1  0.4865840000000  0.4385680000000  0.4388210000000 1.0
C      1  0.5785470000000  0.5340920000000  0.5484660000000 1.0
C      1  0.4217320000000  0.4637560000000  0.4595850000000 1.0
C      1  0.4296560000000  0.5106940000000  0.4633020000000 1.0
C      1  0.5673430000000  0.4889960000000  0.5433390000000 1.0
C      1  0.4182230000000  0.4860130000000  0.4779570000000 1.0
C      1  0.5836560000000  0.5110130000000  0.5320490000000 1.0
C      1  0.5819960000000  0.5126660000000  0.5039900000000 1.0
C      1  0.4270680000000  0.4806600000000  0.5049460000000 1.0
C      1  0.4438360000000  0.4679870000000  0.4419700000000 1.0
C      1  0.5534730000000  0.5313930000000  0.5626300000000 1.0
C      1  0.4207990000000  0.4687460000000  0.5301240000000 1.0
C      1  0.6020630000000  0.5138310000000  0.4846360000000 1.0
C      1  0.5022260000000  0.5838870000000  0.4630480000000 1.0
C      1  0.4969100000000  0.4048260000000  0.5222530000000 1.0
C      1  0.5310410000000  0.4627440000000  0.5246530000000 1.0
C      1  0.4701970000000  0.5334730000000  0.4764230000000 1.0
C      1  0.4621120000000  0.4362090000000  0.5665910000000 1.0
C      1  0.5289770000000  0.5506810000000  0.4390330000000 1.0
C      1  0.5253040000000  0.4389300000000  0.5393180000000 1.0
C      1  0.4842460000000  0.5266130000000  0.4535300000000 1.0
C      1  0.5559030000000  0.5083320000000  0.4943640000000 1.0
C      1  0.4530950000000  0.4905490000000  0.5065540000000 1.0
C      1  0.4833060000000  0.4142070000000  0.4989890000000 1.0
C      1  0.5210530000000  0.5627510000000  0.4635820000000 1.0
C      1  0.5228260000000  0.3969310000000  0.4794400000000 1.0
C      1  0.4839500000000  0.6094010000000  0.5210150000000 1.0
C      1  0.5697800000000  0.4505730000000  0.5044810000000 1.0
C      1  0.4358200000000  0.5562610000000  0.4958130000000 1.0
C      1  0.5009190000000  0.5015060000000  0.5779910000000 1.0
C      1  0.4887680000000  0.4955410000000  0.4050050000000 1.0
C      1  0.5866600000000  0.5009420000000  0.4380540000000 1.0
C      1  0.4212920000000  0.4947750000000  0.5705710000000 1.0
C      1  0.4997640000000  0.4693190000000  0.4056570000000 1.0
C      1  0.4948350000000  0.5279380000000  0.5931120000000 1.0
C      1  0.4794450000000  0.4422920000000  0.4991560000000 1.0
C      1  0.5236420000000  0.5504440000000  0.4892340000000 1.0
C      1  0.4413360000000  0.5344760000000  0.4765490000000 1.0
C      1  0.5596470000000  0.4678510000000  0.5256140000000 1.0
C      1  0.5256840000000  0.4973930000000  0.4590930000000 1.0
C      1  0.4698550000000  0.5137800000000  0.5436810000000 1.0
END
