TITL C-3201372-1405-1792 14743.9241488717 125000 -1051.90329409381 0 0 174 (C3) n - 1
REM
REM in /home/nfs/bkarasulu/CARBON/AIRSS/Generating-Clusters/LCBOP/Higher-Symm/SD-CG/FIRE-CG
REM
REM
REM
REM
REM
REM ./C.cell (b20cbc046b6831c77cfcea5457e17084)
REM AIRSS Version 0.9.1 bugfix July 2018 build 013d7b7c2542+ Fri, 06 Jul 2018 19:26:36 +0100
REM compiler GCC version 9.2.1 20190827 (Red Hat 9.2.1-1)
REM options -cpp -mtune=generic -march=x86-64 -g -O0 -fpre-include=/usr/include/finclude/math-vector-fortran.h
REM seed -96647034 289893740 -448574003 482133545 -775237389 103685019 -276371417 1785226403 260749046 171620121 -1598709982 2065140949 896095787 173949956 1687683566 -295079382 1429056502 -248352537 726038991 -452543584 -1599286558 1363616548 -534213257 2026642530 1263187345 -10526182 139867078 1240230467 504156296 1940515491 -1316100603 341765323 -196480236
REM
CELL 1.54180   50.00000   50.00000   50.00000   90.00000   90.00000   90.00000
LATT -1
SFAC C  
C      1  0.4756680000000  0.3767900000000  0.4446690000000 1.0
C      1  0.4756710000000  0.5136870000000  0.6343690000000 1.0
C      1  0.4756710000000  0.6095240000000  0.4209620000000 1.0
C      1  0.4756710000000  0.6232100000000  0.4446670000000 1.0
C      1  0.4756700000000  0.4863160000000  0.6343700000000 1.0
C      1  0.4756680000000  0.3904750000000  0.4209640000000 1.0
C      1  0.4094650000000  0.5546650000000  0.4987680000000 1.0
C      1  0.4094640000000  0.4716020000000  0.4532760000000 1.0
C      1  0.4094640000000  0.4737370000000  0.5479570000000 1.0
C      1  0.4094640000000  0.4453370000000  0.4987690000000 1.0
C      1  0.4094650000000  0.5284000000000  0.4532760000000 1.0
C      1  0.4094650000000  0.5262660000000  0.5479570000000 1.0
C      1  0.5074470000000  0.5203070000000  0.4039400000000 1.0
C      1  0.5074470000000  0.4066560000000  0.5304440000000 1.0
C      1  0.5074490000000  0.5730370000000  0.5656160000000 1.0
C      1  0.5074470000000  0.4796920000000  0.4039400000000 1.0
C      1  0.5074490000000  0.5933440000000  0.5304420000000 1.0
C      1  0.5074470000000  0.4269640000000  0.5656170000000 1.0
C      1  0.5540950000000  0.5260390000000  0.5413160000000 1.0
C      1  0.5540940000000  0.5227600000000  0.4567900000000 1.0
C      1  0.5540930000000  0.4511980000000  0.5018930000000 1.0
C      1  0.5540940000000  0.4739600000000  0.5413170000000 1.0
C      1  0.5540930000000  0.4772370000000  0.4567900000000 1.0
C      1  0.5540950000000  0.5488010000000  0.5018920000000 1.0
C      1  0.5308970000000  0.4285620000000  0.5815560000000 1.0
C      1  0.5308990000000  0.6063480000000  0.5210880000000 1.0
C      1  0.5308960000000  0.4650880000000  0.3973550000000 1.0
C      1  0.5308990000000  0.5714380000000  0.5815550000000 1.0
C      1  0.5308960000000  0.3936510000000  0.5210890000000 1.0
C      1  0.5308970000000  0.5349100000000  0.3973550000000 1.0
C      1  0.4799170000000  0.5212580000000  0.5280330000000 1.0
C      1  0.4799160000000  0.5136480000000  0.4675740000000 1.0
C      1  0.4799160000000  0.4650940000000  0.5043940000000 1.0
C      1  0.4799160000000  0.4787430000000  0.5280330000000 1.0
C      1  0.4799160000000  0.4863520000000  0.4675740000000 1.0
C      1  0.4799170000000  0.5349060000000  0.5043930000000 1.0
C      1  0.5823430000000  0.4600880000000  0.5761540000000 1.0
C      1  0.5823440000000  0.5859060000000  0.4964860000000 1.0
C      1  0.5823410000000  0.4540030000000  0.4273580000000 1.0
C      1  0.5823440000000  0.5399110000000  0.5761530000000 1.0
C      1  0.5823410000000  0.4140920000000  0.4964870000000 1.0
C      1  0.5823430000000  0.5459940000000  0.4273580000000 1.0
C      1  0.5036950000000  0.5532510000000  0.5474920000000 1.0
C      1  0.5036940000000  0.5145040000000  0.4301370000000 1.0
C      1  0.5036940000000  0.4322450000000  0.5223700000000 1.0
C      1  0.5036940000000  0.4467500000000  0.5474930000000 1.0
C      1  0.5036940000000  0.4854950000000  0.4301380000000 1.0
C      1  0.5036960000000  0.5677550000000  0.5223690000000 1.0
C      1  0.5705890000000  0.4483030000000  0.5490880000000 1.0
C      1  0.5705910000000  0.5683590000000  0.5202250000000 1.0
C      1  0.5705890000000  0.4833350000000  0.4306860000000 1.0
C      1  0.5705900000000  0.5516950000000  0.5490870000000 1.0
C      1  0.5705890000000  0.4316400000000  0.5202260000000 1.0
C      1  0.5705890000000  0.5166620000000  0.4306850000000 1.0
C      1  0.5285230000000  0.4843630000000  0.5264810000000 1.0
C      1  0.5285240000000  0.5307510000000  0.5003010000000 1.0
C      1  0.5285230000000  0.4848850000000  0.4732170000000 1.0
C      1  0.5285240000000  0.5156370000000  0.5264810000000 1.0
C      1  0.5285230000000  0.4692480000000  0.5003020000000 1.0
C      1  0.5285230000000  0.5151140000000  0.4732170000000 1.0
C      1  0.5346510000000  0.6053080000000  0.4909240000000 1.0
C      1  0.5346490000000  0.4394860000000  0.4133370000000 1.0
C      1  0.5346500000000  0.4552050000000  0.5957380000000 1.0
C      1  0.5346490000000  0.3946910000000  0.4909260000000 1.0
C      1  0.5346500000000  0.5605120000000  0.4133370000000 1.0
C      1  0.5346510000000  0.5447960000000  0.5957370000000 1.0
C      1  0.5627330000000  0.4631840000000  0.5992660000000 1.0
C      1  0.5627340000000  0.6043740000000  0.4822500000000 1.0
C      1  0.5627310000000  0.4324400000000  0.4184830000000 1.0
C      1  0.5627340000000  0.5368160000000  0.5992650000000 1.0
C      1  0.5627310000000  0.3956240000000  0.4822510000000 1.0
C      1  0.5627330000000  0.5675570000000  0.4184820000000 1.0
C      1  0.4086790000000  0.4305560000000  0.5235900000000 1.0
C      1  0.4086810000000  0.5551530000000  0.5483470000000 1.0
C      1  0.4086800000000  0.5142950000000  0.4280650000000 1.0
C      1  0.4086810000000  0.5694460000000  0.5235890000000 1.0
C      1  0.4086790000000  0.4448510000000  0.5483480000000 1.0
C      1  0.4086790000000  0.4857070000000  0.4280650000000 1.0
C      1  0.5983460000000  0.5140140000000  0.5733080000000 1.0
C      1  0.5983450000000  0.5564780000000  0.4512070000000 1.0
C      1  0.5983440000000  0.4295040000000  0.4754830000000 1.0
C      1  0.5983450000000  0.4859840000000  0.5733080000000 1.0
C      1  0.5983440000000  0.4435190000000  0.4512080000000 1.0
C      1  0.5983460000000  0.5704930000000  0.4754820000000 1.0
C      1  0.4292500000000  0.4688720000000  0.5000420000000 1.0
C      1  0.4292510000000  0.5156010000000  0.5269380000000 1.0
C      1  0.4292510000000  0.5155300000000  0.4730210000000 1.0
C      1  0.4292510000000  0.5311300000000  0.5000410000000 1.0
C      1  0.4292510000000  0.4844010000000  0.5269390000000 1.0
C      1  0.4292500000000  0.4844720000000  0.4730220000000 1.0
C      1  0.4373470000000  0.3978130000000  0.5431360000000 1.0
C      1  0.4373500000000  0.5884510000000  0.5669310000000 1.0
C      1  0.4373480000000  0.5137390000000  0.3899350000000 1.0
C      1  0.4373500000000  0.6021900000000  0.5431340000000 1.0
C      1  0.4373470000000  0.4115520000000  0.5669320000000 1.0
C      1  0.4373470000000  0.4862610000000  0.3899350000000 1.0
C      1  0.4826070000000  0.5815360000000  0.4217390000000 1.0
C      1  0.4826050000000  0.3914560000000  0.4685190000000 1.0
C      1  0.4826080000000  0.5270090000000  0.6097430000000 1.0
C      1  0.4826050000000  0.4184640000000  0.4217400000000 1.0
C      1  0.4826080000000  0.6085440000000  0.4685170000000 1.0
C      1  0.4826070000000  0.4729930000000  0.6097430000000 1.0
C      1  0.4620100000000  0.4332600000000  0.4774630000000 1.0
C      1  0.4620110000000  0.5138530000000  0.5690680000000 1.0
C      1  0.4620110000000  0.5528890000000  0.4534700000000 1.0
C      1  0.4620110000000  0.5667410000000  0.4774620000000 1.0
C      1  0.4620110000000  0.4861490000000  0.5690690000000 1.0
C      1  0.4620100000000  0.4471110000000  0.4534700000000 1.0
C      1  0.5754880000000  0.4863320000000  0.5240960000000 1.0
C      1  0.5754880000000  0.5277000000000  0.4997880000000 1.0
C      1  0.5754870000000  0.4859650000000  0.4761150000000 1.0
C      1  0.5754880000000  0.5136670000000  0.5240960000000 1.0
C      1  0.5754870000000  0.4722970000000  0.4997880000000 1.0
C      1  0.5754880000000  0.5140330000000  0.4761150000000 1.0
C      1  0.4313200000000  0.4429350000000  0.4222090000000 1.0
C      1  0.4313210000000  0.4611650000000  0.5883170000000 1.0
C      1  0.4313220000000  0.5959030000000  0.4894750000000 1.0
C      1  0.4313210000000  0.5570660000000  0.4222080000000 1.0
C      1  0.4313220000000  0.5388380000000  0.5883160000000 1.0
C      1  0.4313200000000  0.4040980000000  0.4894770000000 1.0
C      1  0.5672610000000  0.6072270000000  0.4537990000000 1.0
C      1  0.5672580000000  0.4063740000000  0.4302380000000 1.0
C      1  0.5672600000000  0.4863960000000  0.6159620000000 1.0
C      1  0.5672580000000  0.3927700000000  0.4538000000000 1.0
C      1  0.5672600000000  0.5936230000000  0.4302360000000 1.0
C      1  0.5672600000000  0.5136040000000  0.6159620000000 1.0
C      1  0.5484420000000  0.5645960000000  0.4777830000000 1.0
C      1  0.5484400000000  0.4484610000000  0.4551660000000 1.0
C      1  0.5484410000000  0.4869410000000  0.5670510000000 1.0
C      1  0.5484400000000  0.4354030000000  0.4777840000000 1.0
C      1  0.5484420000000  0.5515370000000  0.4551650000000 1.0
C      1  0.5484420000000  0.5130580000000  0.5670500000000 1.0
C      1  0.4247460000000  0.4366540000000  0.5717960000000 1.0
C      1  0.4247480000000  0.5938510000000  0.5189630000000 1.0
C      1  0.4247460000000  0.4694980000000  0.4092430000000 1.0
C      1  0.4247480000000  0.5633490000000  0.5717950000000 1.0
C      1  0.4247460000000  0.4061510000000  0.5189640000000 1.0
C      1  0.4247470000000  0.5305030000000  0.4092420000000 1.0
C      1  0.5044050000000  0.5255770000000  0.5419690000000 1.0
C      1  0.5044040000000  0.5235580000000  0.4568650000000 1.0
C      1  0.5044030000000  0.4508650000000  0.5011660000000 1.0
C      1  0.5044040000000  0.4744230000000  0.5419700000000 1.0
C      1  0.5044030000000  0.4764420000000  0.4568650000000 1.0
C      1  0.5044050000000  0.5491350000000  0.5011650000000 1.0
C      1  0.5482470000000  0.4078960000000  0.5693430000000 1.0
C      1  0.5482490000000  0.6061040000000  0.5450920000000 1.0
C      1  0.5482470000000  0.4859980000000  0.3855640000000 1.0
C      1  0.5482490000000  0.5921030000000  0.5693420000000 1.0
C      1  0.5482460000000  0.3938950000000  0.5450930000000 1.0
C      1  0.5482470000000  0.5139990000000  0.3855640000000 1.0
C      1  0.4597250000000  0.5946850000000  0.4807470000000 1.0
C      1  0.4597230000000  0.4359840000000  0.4276280000000 1.0
C      1  0.4597240000000  0.4693320000000  0.5916270000000 1.0
C      1  0.4597230000000  0.4053150000000  0.4807480000000 1.0
C      1  0.4597240000000  0.5640160000000  0.4276270000000 1.0
C      1  0.4597250000000  0.5306700000000  0.5916260000000 1.0
C      1  0.4567050000000  0.5478700000000  0.4977800000000 1.0
C      1  0.4567040000000  0.4741430000000  0.4596550000000 1.0
C      1  0.4567050000000  0.4779890000000  0.5425670000000 1.0
C      1  0.4567040000000  0.4521310000000  0.4977800000000 1.0
C      1  0.4567050000000  0.5258580000000  0.4596540000000 1.0
C      1  0.4567050000000  0.5220130000000  0.5425660000000 1.0
C      1  0.5107060000000  0.5962870000000  0.4656760000000 1.0
C      1  0.5107040000000  0.4221300000000  0.4337750000000 1.0
C      1  0.5107050000000  0.4815820000000  0.6005500000000 1.0
C      1  0.5107030000000  0.4037120000000  0.4656770000000 1.0
C      1  0.5107060000000  0.5778680000000  0.4337730000000 1.0
C      1  0.5107060000000  0.5184190000000  0.6005490000000 1.0
C      1  0.4146950000000  0.4419700000000  0.4492820000000 1.0
C      1  0.4146960000000  0.4850930000000  0.5756170000000 1.0
C      1  0.4146970000000  0.5729410000000  0.4751030000000 1.0
C      1  0.4146970000000  0.5580320000000  0.4492810000000 1.0
C      1  0.4146970000000  0.5149100000000  0.5756170000000 1.0
C      1  0.4146950000000  0.4270610000000  0.4751040000000 1.0
END
