TITL C-3201376-6384-904 341811.439176281 125000 -946.199681506194 0 0 149 (C1) n - 1
REM
REM in /home/nfs/bkarasulu/CARBON/AIRSS/Generating-Clusters/LCBOP/Higher-Symm/SD-CG/FIRE-CG
REM
REM
REM
REM
REM
REM ./C.cell (b20cbc046b6831c77cfcea5457e17084)
REM AIRSS Version 0.9.1 bugfix July 2018 build 013d7b7c2542+ Fri, 06 Jul 2018 19:26:36 +0100
REM compiler GCC version 9.2.1 20190827 (Red Hat 9.2.1-1)
REM options -cpp -mtune=generic -march=x86-64 -g -O0 -fpre-include=/usr/include/finclude/math-vector-fortran.h
REM seed 50973937 -1029491478 1011588252 -1389615978 1981689728 1034400843 -1458243716 792827990 1838211269 1753211942 1465000467 -942175142 -384386748 -1632819673 -1152771095 589575376 1681247738 1561889942 625585436 -1235821653 -693490641 737761025 -607202123 1843780765 -990276554 -1493792503 44505007 -272650250 -304953251 -1823878852 -1353041072 -235771176 -1801431438
REM
CELL 1.54180   50.00000   50.00000   50.00000   90.00000   90.00000   90.00000
LATT -1
SFAC C  
C      1  0.5444820000000  0.5942630000000  0.5171040000000 1.0
C      1  0.4546930000000  0.4101910000000  0.5162460000000 1.0
C      1  0.5450920000000  0.5894720000000  0.4876830000000 1.0
C      1  0.4534970000000  0.4131530000000  0.4866220000000 1.0
C      1  0.4558320000000  0.5891150000000  0.5140280000000 1.0
C      1  0.5409170000000  0.4117960000000  0.5164030000000 1.0
C      1  0.4552970000000  0.5876180000000  0.4846500000000 1.0
C      1  0.5416510000000  0.4151580000000  0.4871150000000 1.0
C      1  0.5140340000000  0.4270140000000  0.5548620000000 1.0
C      1  0.4857440000000  0.5630320000000  0.5413070000000 1.0
C      1  0.5129890000000  0.4279550000000  0.4466110000000 1.0
C      1  0.4857600000000  0.5724980000000  0.4478040000000 1.0
C      1  0.4846260000000  0.4341450000000  0.5489020000000 1.0
C      1  0.5167150000000  0.5667710000000  0.5437840000000 1.0
C      1  0.4832870000000  0.4343860000000  0.4516230000000 1.0
C      1  0.5143450000000  0.5653930000000  0.4562110000000 1.0
C      1  0.5718700000000  0.4729050000000  0.4620760000000 1.0
C      1  0.4233300000000  0.5278740000000  0.4601660000000 1.0
C      1  0.5727160000000  0.4710190000000  0.5362100000000 1.0
C      1  0.4312160000000  0.5246450000000  0.5390790000000 1.0
C      1  0.4226960000000  0.4716440000000  0.4566290000000 1.0
C      1  0.5714780000000  0.5277680000000  0.4618230000000 1.0
C      1  0.4234820000000  0.4685420000000  0.5423210000000 1.0
C      1  0.5771610000000  0.5302690000000  0.5383150000000 1.0
C      1  0.4742420000000  0.5527130000000  0.5675470000000 1.0
C      1  0.5281390000000  0.4438320000000  0.5730610000000 1.0
C      1  0.4732490000000  0.5553160000000  0.4283640000000 1.0
C      1  0.5266790000000  0.4452140000000  0.4282510000000 1.0
C      1  0.5292510000000  0.5571060000000  0.5702120000000 1.0
C      1  0.4709610000000  0.4433540000000  0.5740370000000 1.0
C      1  0.5287570000000  0.5564920000000  0.4307490000000 1.0
C      1  0.4697080000000  0.4430460000000  0.4263750000000 1.0
C      1  0.5676810000000  0.4717910000000  0.4160550000000 1.0
C      1  0.4323010000000  0.5293690000000  0.4131700000000 1.0
C      1  0.5688790000000  0.4716890000000  0.5827390000000 1.0
C      1  0.4326530000000  0.5292250000000  0.5846780000000 1.0
C      1  0.4294540000000  0.4694630000000  0.4117430000000 1.0
C      1  0.5698530000000  0.5315070000000  0.4162490000000 1.0
C      1  0.4304030000000  0.4693900000000  0.5875500000000 1.0
C      1  0.5708530000000  0.5308650000000  0.5836080000000 1.0
C      1  0.4420230000000  0.4839950000000  0.4730960000000 1.0
C      1  0.5515210000000  0.5146160000000  0.4764020000000 1.0
C      1  0.4433510000000  0.4805130000000  0.5262190000000 1.0
C      1  0.5583440000000  0.5158330000000  0.5230040000000 1.0
C      1  0.5524990000000  0.4855150000000  0.4811770000000 1.0
C      1  0.4466810000000  0.5117130000000  0.4705060000000 1.0
C      1  0.5541670000000  0.4850760000000  0.5167480000000 1.0
C      1  0.4516920000000  0.5072780000000  0.5285410000000 1.0
C      1  0.5657530000000  0.4455140000000  0.4548860000000 1.0
C      1  0.4326610000000  0.5557180000000  0.4512450000000 1.0
C      1  0.5660240000000  0.4439800000000  0.5450680000000 1.0
C      1  0.4349690000000  0.5532260000000  0.5441500000000 1.0
C      1  0.4285860000000  0.4432710000000  0.4515170000000 1.0
C      1  0.5677100000000  0.5559130000000  0.4563270000000 1.0
C      1  0.4297410000000  0.4405650000000  0.5497790000000 1.0
C      1  0.5699500000000  0.5583720000000  0.5455720000000 1.0
C      1  0.4172210000000  0.4845350000000  0.5659990000000 1.0
C      1  0.5837310000000  0.5150380000000  0.5623330000000 1.0
C      1  0.4161120000000  0.4858400000000  0.4322760000000 1.0
C      1  0.5807280000000  0.5147300000000  0.4377730000000 1.0
C      1  0.5809790000000  0.4867060000000  0.5604610000000 1.0
C      1  0.4196450000000  0.5128190000000  0.5639520000000 1.0
C      1  0.5799980000000  0.4868320000000  0.4379400000000 1.0
C      1  0.4167790000000  0.5143460000000  0.4330580000000 1.0
C      1  0.6047600000000  0.4593460000000  0.4931080000000 1.0
C      1  0.4036110000000  0.5346330000000  0.4823610000000 1.0
C      1  0.6100280000000  0.4865260000000  0.4943790000000 1.0
C      1  0.3906400000000  0.5115020000000  0.4929180000000 1.0
C      1  0.3923790000000  0.4577780000000  0.4928110000000 1.0
C      1  0.6059050000000  0.5415150000000  0.4937290000000 1.0
C      1  0.3879540000000  0.4845190000000  0.4947970000000 1.0
C      1  0.6103120000000  0.5141770000000  0.4944790000000 1.0
C      1  0.4829900000000  0.4565360000000  0.4719860000000 1.0
C      1  0.5115670000000  0.5461450000000  0.4805360000000 1.0
C      1  0.4838630000000  0.4543400000000  0.5262390000000 1.0
C      1  0.5254720000000  0.5519220000000  0.5189650000000 1.0
C      1  0.5075830000000  0.4621240000000  0.4849230000000 1.0
C      1  0.4843650000000  0.5407150000000  0.4886060000000 1.0
C      1  0.5081400000000  0.4609080000000  0.5130400000000 1.0
C      1  0.4803820000000  0.5428480000000  0.5175810000000 1.0
C      1  0.5289630000000  0.5245220000000  0.3933640000000 1.0
C      1  0.4717440000000  0.4766630000000  0.3911150000000 1.0
C      1  0.5298990000000  0.5233560000000  0.6062470000000 1.0
C      1  0.4723750000000  0.4777730000000  0.6085530000000 1.0
C      1  0.4750490000000  0.5157470000000  0.3983440000000 1.0
C      1  0.5259060000000  0.4848740000000  0.3979830000000 1.0
C      1  0.4748860000000  0.5172010000000  0.6024960000000 1.0
C      1  0.5277390000000  0.4834090000000  0.6031400000000 1.0
C      1  0.5182070000000  0.4122080000000  0.4698840000000 1.0
C      1  0.4796710000000  0.5906600000000  0.4687510000000 1.0
C      1  0.5179460000000  0.4088830000000  0.5330050000000 1.0
C      1  0.4806720000000  0.5901360000000  0.5281470000000 1.0
C      1  0.4779830000000  0.4111470000000  0.4711110000000 1.0
C      1  0.5201160000000  0.5905360000000  0.4721880000000 1.0
C      1  0.4791300000000  0.4082610000000  0.5304570000000 1.0
C      1  0.5182440000000  0.5958820000000  0.5309490000000 1.0
C      1  0.5932160000000  0.5680960000000  0.4934970000000 1.0
C      1  0.4060410000000  0.4324670000000  0.4922980000000 1.0
C      1  0.5931530000000  0.5852660000000  0.5159330000000 1.0
C      1  0.4067960000000  0.4169300000000  0.5158210000000 1.0
C      1  0.4091690000000  0.5630190000000  0.4889950000000 1.0
C      1  0.5908670000000  0.4333370000000  0.4925760000000 1.0
C      1  0.4080530000000  0.5761110000000  0.5137240000000 1.0
C      1  0.5898550000000  0.4170070000000  0.5155990000000 1.0
C      1  0.5158300000000  0.5389580000000  0.5879870000000 1.0
C      1  0.4857920000000  0.4614800000000  0.5906400000000 1.0
C      1  0.5153630000000  0.5391050000000  0.4124580000000 1.0
C      1  0.4846230000000  0.4616230000000  0.4103590000000 1.0
C      1  0.4893320000000  0.5290090000000  0.5795280000000 1.0
C      1  0.5132510000000  0.4687900000000  0.5817570000000 1.0
C      1  0.4885230000000  0.5298860000000  0.4207650000000 1.0
C      1  0.5114950000000  0.4706800000000  0.4198320000000 1.0
C      1  0.4327930000000  0.5760410000000  0.5277100000000 1.0
C      1  0.5655980000000  0.4204160000000  0.5298530000000 1.0
C      1  0.4318030000000  0.5738090000000  0.4730110000000 1.0
C      1  0.5667750000000  0.4280670000000  0.4765030000000 1.0
C      1  0.5688760000000  0.5829250000000  0.5308580000000 1.0
C      1  0.4306750000000  0.4191590000000  0.5310010000000 1.0
C      1  0.5692550000000  0.5737430000000  0.4775670000000 1.0
C      1  0.4288760000000  0.4267850000000  0.4747450000000 1.0
C      1  0.4457850000000  0.5522210000000  0.5711400000000 1.0
C      1  0.5562960000000  0.4474300000000  0.5717930000000 1.0
C      1  0.4449950000000  0.5526010000000  0.4260090000000 1.0
C      1  0.5550750000000  0.4478510000000  0.4283280000000 1.0
C      1  0.5579170000000  0.5546510000000  0.5713650000000 1.0
C      1  0.4424680000000  0.4448990000000  0.5754060000000 1.0
C      1  0.5571910000000  0.5550340000000  0.4298190000000 1.0
C      1  0.4411420000000  0.4453340000000  0.4254260000000 1.0
C      1  0.5561620000000  0.5173350000000  0.3959890000000 1.0
C      1  0.4445990000000  0.4840350000000  0.3927780000000 1.0
C      1  0.5570990000000  0.5165160000000  0.6034750000000 1.0
C      1  0.4450220000000  0.4846810000000  0.6062740000000 1.0
C      1  0.4473550000000  0.5133860000000  0.3956990000000 1.0
C      1  0.5537680000000  0.4877530000000  0.3975390000000 1.0
C      1  0.4471120000000  0.5141710000000  0.6035930000000 1.0
C      1  0.5554350000000  0.4870850000000  0.6020960000000 1.0
C      1  0.4610270000000  0.4641820000000  0.5129340000000 1.0
C      1  0.5324190000000  0.5264200000000  0.5230870000000 1.0
C      1  0.4608620000000  0.4671700000000  0.4850760000000 1.0
C      1  0.5263020000000  0.5235500000000  0.4808490000000 1.0
C      1  0.5232900000000  0.4820640000000  0.5266890000000 1.0
C      1  0.4829420000000  0.5144560000000  0.5282290000000 1.0
C      1  0.5242480000000  0.4782860000000  0.4693220000000 1.0
C      1  0.4734920000000  0.5211650000000  0.4693240000000 1.0
C      1  0.4925410000000  0.5084270000000  0.5570270000000 1.0
C      1  0.4905540000000  0.5118180000000  0.4462930000000 1.0
C      1  0.5100060000000  0.4891270000000  0.4454330000000 1.0
C      1  0.5122630000000  0.4864330000000  0.5563370000000 1.0
C      1  0.5116670000000  0.5078350000000  0.5141240000000 1.0
END
