TITL C-3201372-1405-1415 -3.70731287745858e-07 125000 -1097.98283765994 0 0 172 (C1) n - 1
REM
REM in /home/nfs/bkarasulu/CARBON/AIRSS/Generating-Clusters/LCBOP/Higher-Symm/SD-CG/FIRE-CG
REM
REM
REM
REM
REM
REM ./C.cell (b20cbc046b6831c77cfcea5457e17084)
REM AIRSS Version 0.9.1 bugfix July 2018 build 013d7b7c2542+ Fri, 06 Jul 2018 19:26:36 +0100
REM compiler GCC version 9.2.1 20190827 (Red Hat 9.2.1-1)
REM options -cpp -mtune=generic -march=x86-64 -g -O0 -fpre-include=/usr/include/finclude/math-vector-fortran.h
REM seed 1099126088 721017498 301270044 -1042061203 -1755249440 -107933207 1664612300 1172467025 659414548 -1114503427 -901914815 -886492405 -2035683657 387584588 -1344393262 -2060193231 1604592889 173630243 1227861107 -675334462 672665796 -1220495749 -1415890420 -1262945185 -21472208 804078060 -992372947 1758891893 1921169849 366429775 -704705513 -25173879 -1330741391
REM
CELL 1.54180   50.00000   50.00000   50.00000   90.00000   90.00000   90.00000
LATT -1
SFAC C  
C      1  0.3920040000000  0.5359980000000  0.5317570000000 1.0
C      1  0.5315080000000  0.3989090000000  0.5382680000000 1.0
C      1  0.5389020000000  0.5323940000000  0.3979710000000 1.0
C      1  0.6044740000000  0.4633880000000  0.5302340000000 1.0
C      1  0.6003440000000  0.5369570000000  0.4651570000000 1.0
C      1  0.4008270000000  0.4615790000000  0.4676160000000 1.0
C      1  0.4670630000000  0.6002790000000  0.5386940000000 1.0
C      1  0.4671300000000  0.3997940000000  0.4641700000000 1.0
C      1  0.5307390000000  0.6053510000000  0.4639170000000 1.0
C      1  0.4652040000000  0.4686120000000  0.3958780000000 1.0
C      1  0.4629230000000  0.5322610000000  0.5987420000000 1.0
C      1  0.5366720000000  0.4665830000000  0.5989050000000 1.0
C      1  0.6090600000000  0.5226120000000  0.5145480000000 1.0
C      1  0.5159940000000  0.6087150000000  0.5229320000000 1.0
C      1  0.5231810000000  0.5157650000000  0.6078660000000 1.0
C      1  0.3897910000000  0.4768890000000  0.5159560000000 1.0
C      1  0.3904620000000  0.5202950000000  0.4820080000000 1.0
C      1  0.6118090000000  0.4773600000000  0.4812400000000 1.0
C      1  0.4826740000000  0.3897450000000  0.5235280000000 1.0
C      1  0.4814710000000  0.6114520000000  0.4799490000000 1.0
C      1  0.5164940000000  0.3922950000000  0.4791970000000 1.0
C      1  0.4769190000000  0.4836560000000  0.6100960000000 1.0
C      1  0.4799640000000  0.5176870000000  0.3919880000000 1.0
C      1  0.5233720000000  0.4831350000000  0.3897500000000 1.0
C      1  0.4212340000000  0.4150080000000  0.4911050000000 1.0
C      1  0.4889010000000  0.4231760000000  0.4179410000000 1.0
C      1  0.4214390000000  0.4891180000000  0.4228800000000 1.0
C      1  0.5761010000000  0.5824290000000  0.4875450000000 1.0
C      1  0.5768330000000  0.4192680000000  0.5103990000000 1.0
C      1  0.4198420000000  0.5818270000000  0.5114450000000 1.0
C      1  0.5107740000000  0.5780060000000  0.4191180000000 1.0
C      1  0.5081770000000  0.4216120000000  0.5848670000000 1.0
C      1  0.4910830000000  0.5773580000000  0.5842230000000 1.0
C      1  0.5859820000000  0.5086960000000  0.4193550000000 1.0
C      1  0.5818500000000  0.4878700000000  0.5743170000000 1.0
C      1  0.4165430000000  0.5111280000000  0.5761110000000 1.0
C      1  0.4663730000000  0.4458690000000  0.4548630000000 1.0
C      1  0.4618220000000  0.4705530000000  0.4397030000000 1.0
C      1  0.4447110000000  0.4490540000000  0.4742500000000 1.0
C      1  0.5291310000000  0.5617490000000  0.4592640000000 1.0
C      1  0.5254890000000  0.4422240000000  0.5491570000000 1.0
C      1  0.4714600000000  0.5565820000000  0.5503300000000 1.0
C      1  0.5517030000000  0.5273400000000  0.4407200000000 1.0
C      1  0.5450820000000  0.4637490000000  0.5526280000000 1.0
C      1  0.4524350000000  0.5344690000000  0.5523050000000 1.0
C      1  0.5543640000000  0.5467970000000  0.4625680000000 1.0
C      1  0.5606730000000  0.4601180000000  0.5280410000000 1.0
C      1  0.4351840000000  0.5422740000000  0.5295540000000 1.0
C      1  0.5311180000000  0.5083700000000  0.3842010000000 1.0
C      1  0.3813520000000  0.5282730000000  0.5061990000000 1.0
C      1  0.5079760000000  0.3842490000000  0.5309740000000 1.0
C      1  0.4722950000000  0.4932800000000  0.3833250000000 1.0
C      1  0.4675500000000  0.5085190000000  0.6139340000000 1.0
C      1  0.5323110000000  0.4910450000000  0.6129850000000 1.0
C      1  0.6184870000000  0.4696250000000  0.5061980000000 1.0
C      1  0.6139990000000  0.5318800000000  0.4898260000000 1.0
C      1  0.3854380000000  0.4684800000000  0.4907550000000 1.0
C      1  0.4910130000000  0.6143070000000  0.5313140000000 1.0
C      1  0.4919200000000  0.3866060000000  0.4699120000000 1.0
C      1  0.5062100000000  0.6181560000000  0.4713500000000 1.0
C      1  0.5363120000000  0.5043170000000  0.4444580000000 1.0
C      1  0.4436070000000  0.5365860000000  0.5039620000000 1.0
C      1  0.5024720000000  0.4461580000000  0.5337280000000 1.0
C      1  0.4716570000000  0.4939710000000  0.4512020000000 1.0
C      1  0.4678610000000  0.5074600000000  0.5495300000000 1.0
C      1  0.5313320000000  0.4901820000000  0.5499660000000 1.0
C      1  0.5521320000000  0.4725130000000  0.5044280000000 1.0
C      1  0.5513320000000  0.5335190000000  0.4892830000000 1.0
C      1  0.4479160000000  0.4661280000000  0.4959650000000 1.0
C      1  0.4923230000000  0.5519160000000  0.5326470000000 1.0
C      1  0.4933150000000  0.4475460000000  0.4681220000000 1.0
C      1  0.5054560000000  0.5540000000000  0.4722270000000 1.0
C      1  0.4587610000000  0.5182910000000  0.4462210000000 1.0
C      1  0.4418560000000  0.4549130000000  0.5207940000000 1.0
C      1  0.5183140000000  0.4432190000000  0.4556740000000 1.0
C      1  0.5469240000000  0.4788720000000  0.4404080000000 1.0
C      1  0.5433490000000  0.5157080000000  0.5534800000000 1.0
C      1  0.4553780000000  0.4830660000000  0.5558450000000 1.0
C      1  0.5559490000000  0.5433770000000  0.5153790000000 1.0
C      1  0.5559300000000  0.4579230000000  0.4808950000000 1.0
C      1  0.4401750000000  0.5477080000000  0.4788260000000 1.0
C      1  0.4815470000000  0.5573730000000  0.4581710000000 1.0
C      1  0.4781090000000  0.4422330000000  0.5466240000000 1.0
C      1  0.5185800000000  0.5548280000000  0.5424610000000 1.0
C      1  0.4867600000000  0.4651690000000  0.5912680000000 1.0
C      1  0.5925980000000  0.4868660000000  0.4627750000000 1.0
C      1  0.4629730000000  0.5919350000000  0.4891030000000 1.0
C      1  0.5125210000000  0.5337160000000  0.5889370000000 1.0
C      1  0.5132950000000  0.4638630000000  0.4078790000000 1.0
C      1  0.4902610000000  0.5352080000000  0.4117470000000 1.0
C      1  0.4105230000000  0.5108940000000  0.4642420000000 1.0
C      1  0.4075060000000  0.4876690000000  0.5351480000000 1.0
C      1  0.5905470000000  0.5114590000000  0.5326560000000 1.0
C      1  0.5345630000000  0.4113410000000  0.4895770000000 1.0
C      1  0.5346790000000  0.5906170000000  0.5118670000000 1.0
C      1  0.4632650000000  0.4079980000000  0.5140880000000 1.0
C      1  0.4948160000000  0.4687130000000  0.4866660000000 1.0
C      1  0.4936460000000  0.4915320000000  0.4686240000000 1.0
C      1  0.4560730000000  0.4924720000000  0.4960740000000 1.0
C      1  0.5069020000000  0.5356400000000  0.4932930000000 1.0
C      1  0.5012720000000  0.4657350000000  0.5139230000000 1.0
C      1  0.4884570000000  0.5289000000000  0.5140900000000 1.0
C      1  0.5176130000000  0.5046090000000  0.4642800000000 1.0
C      1  0.5132690000000  0.4896810000000  0.5266080000000 1.0
C      1  0.4919690000000  0.5074290000000  0.5341510000000 1.0
C      1  0.5283060000000  0.5158170000000  0.4887780000000 1.0
C      1  0.5341480000000  0.4940920000000  0.5060920000000 1.0
C      1  0.4637560000000  0.5182030000000  0.5025490000000 1.0
C      1  0.5834700000000  0.4433630000000  0.5258570000000 1.0
C      1  0.5266100000000  0.5849250000000  0.4430690000000 1.0
C      1  0.4399600000000  0.5296230000000  0.5796220000000 1.0
C      1  0.4114450000000  0.5581100000000  0.5288690000000 1.0
C      1  0.4181820000000  0.4384020000000  0.4729900000000 1.0
C      1  0.5811530000000  0.5600920000000  0.4673730000000 1.0
C      1  0.4697490000000  0.4189750000000  0.4410990000000 1.0
C      1  0.4722500000000  0.5825620000000  0.5618410000000 1.0
C      1  0.5260510000000  0.4164490000000  0.5615060000000 1.0
C      1  0.5590550000000  0.4685220000000  0.5791070000000 1.0
C      1  0.5631620000000  0.5274930000000  0.4145400000000 1.0
C      1  0.4452780000000  0.4730530000000  0.4168490000000 1.0
C      1  0.5818420000000  0.5156320000000  0.5846260000000 1.0
C      1  0.5864970000000  0.5815070000000  0.5154710000000 1.0
C      1  0.5192840000000  0.5858360000000  0.5835430000000 1.0
C      1  0.4163630000000  0.4832420000000  0.5866210000000 1.0
C      1  0.4193050000000  0.5173790000000  0.4136580000000 1.0
C      1  0.5856060000000  0.4800370000000  0.4109590000000 1.0
C      1  0.4116030000000  0.4151640000000  0.5192930000000 1.0
C      1  0.4112040000000  0.5837110000000  0.4824750000000 1.0
C      1  0.5856500000000  0.4168630000000  0.4820950000000 1.0
C      1  0.4798740000000  0.4128310000000  0.5857490000000 1.0
C      1  0.4822210000000  0.5864050000000  0.4173560000000 1.0
C      1  0.5168080000000  0.4124540000000  0.4178220000000 1.0
C      1  0.4527970000000  0.4173010000000  0.5816030000000 1.0
C      1  0.5804540000000  0.4530360000000  0.4157490000000 1.0
C      1  0.4159680000000  0.5802500000000  0.4550700000000 1.0
C      1  0.5459760000000  0.5811620000000  0.5781710000000 1.0
C      1  0.5442410000000  0.4162770000000  0.4206030000000 1.0
C      1  0.4550350000000  0.5825890000000  0.4212000000000 1.0
C      1  0.4214410000000  0.5447220000000  0.4178240000000 1.0
C      1  0.4193180000000  0.4558520000000  0.5831320000000 1.0
C      1  0.5790390000000  0.5428000000000  0.5802560000000 1.0
C      1  0.5818220000000  0.4198600000000  0.4548400000000 1.0
C      1  0.5826780000000  0.5774060000000  0.5426720000000 1.0
C      1  0.4153530000000  0.4199140000000  0.5464790000000 1.0
C      1  0.4493210000000  0.4040420000000  0.4884840000000 1.0
C      1  0.4876740000000  0.4501120000000  0.4039860000000 1.0
C      1  0.4089840000000  0.4849590000000  0.4501780000000 1.0
C      1  0.5488850000000  0.5960060000000  0.4865830000000 1.0
C      1  0.5490720000000  0.4077510000000  0.5150120000000 1.0
C      1  0.4486140000000  0.5930960000000  0.5152900000000 1.0
C      1  0.5156370000000  0.5500350000000  0.4075570000000 1.0
C      1  0.5117420000000  0.4499870000000  0.5948370000000 1.0
C      1  0.4877890000000  0.5488630000000  0.5938610000000 1.0
C      1  0.5962230000000  0.5121510000000  0.4479080000000 1.0
C      1  0.5955050000000  0.4865290000000  0.5474290000000 1.0
C      1  0.4020980000000  0.5129650000000  0.5493920000000 1.0
C      1  0.5645620000000  0.5239220000000  0.5350240000000 1.0
C      1  0.5380420000000  0.5645400000000  0.5241020000000 1.0
C      1  0.5258860000000  0.5361990000000  0.5633330000000 1.0
C      1  0.4331030000000  0.4746130000000  0.5394720000000 1.0
C      1  0.4347630000000  0.5264920000000  0.4601820000000 1.0
C      1  0.5674650000000  0.4726160000000  0.4595610000000 1.0
C      1  0.4583790000000  0.4327900000000  0.5286520000000 1.0
C      1  0.4598570000000  0.5679270000000  0.4732400000000 1.0
C      1  0.5383070000000  0.4359360000000  0.4749300000000 1.0
C      1  0.4722060000000  0.4623560000000  0.5664710000000 1.0
C      1  0.4763560000000  0.5386440000000  0.4369270000000 1.0
C      1  0.5267670000000  0.4597860000000  0.4331920000000 1.0
C      1  0.5698300000000  0.4286520000000  0.4292830000000 1.0
C      1  0.4296660000000  0.5703060000000  0.4303100000000 1.0
C      1  0.4280150000000  0.4300410000000  0.5714500000000 1.0
C      1  0.5702970000000  0.5680810000000  0.5678900000000 1.0
END
