TITL C-3201375-1262-419 1.04170371824572 125000 -255.917402133053 0 0 45 (C1) n - 1
REM
REM in /home/nfs/bkarasulu/CARBON/AIRSS/Generating-Clusters/LCBOP/Higher-Symm/SD-CG/FIRE-CG
REM
REM
REM
REM
REM
REM ./C.cell (b20cbc046b6831c77cfcea5457e17084)
REM AIRSS Version 0.9.1 bugfix July 2018 build 013d7b7c2542+ Fri, 06 Jul 2018 19:26:36 +0100
REM compiler GCC version 9.2.1 20190827 (Red Hat 9.2.1-1)
REM options -cpp -mtune=generic -march=x86-64 -g -O0 -fpre-include=/usr/include/finclude/math-vector-fortran.h
REM seed 2101451957 576910580 131208762 -932736437 -1624999849 -999176009 -1693850124 -739052263 -1213965568 -1987820998 586683197 1497424407 375738204 -1122159368 1259875622 -1996629029 -836250692 -165469110 581272072 -2116833350 -673404238 1469467248 -1241085620 1954415553 -1934989410 2097192375 318616038 487444602 1447442493 607940309 -1812705862 -486165575 -398246970
REM
CELL 1.54180   50.00000   50.00000   50.00000   90.00000   90.00000   90.00000
LATT -1
SFAC C  
C      1  0.5228280000000  0.4051740000000  0.5086600000000 1.0
C      1  0.4882070000000  0.5312360000000  0.5707570000000 1.0
C      1  0.4778940000000  0.4324500000000  0.5955620000000 1.0
C      1  0.5327840000000  0.4304530000000  0.3688070000000 1.0
C      1  0.4719160000000  0.4221890000000  0.4522550000000 1.0
C      1  0.5563150000000  0.5230790000000  0.3964700000000 1.0
C      1  0.5077660000000  0.4620400000000  0.4583390000000 1.0
C      1  0.5248080000000  0.4585630000000  0.4124980000000 1.0
C      1  0.5285490000000  0.5009370000000  0.4370750000000 1.0
C      1  0.5106000000000  0.5004620000000  0.5325550000000 1.0
C      1  0.5128350000000  0.4581900000000  0.5079940000000 1.0
C      1  0.4990940000000  0.4584530000000  0.5551320000000 1.0
C      1  0.5288310000000  0.4443600000000  0.3904990000000 1.0
C      1  0.5429210000000  0.5127620000000  0.4163030000000 1.0
C      1  0.4891200000000  0.4415040000000  0.4554310000000 1.0
C      1  0.5184260000000  0.4308560000000  0.5082560000000 1.0
C      1  0.4890570000000  0.4454380000000  0.5759080000000 1.0
C      1  0.4993950000000  0.5161370000000  0.5527020000000 1.0
C      1  0.5338550000000  0.5592030000000  0.5200770000000 1.0
C      1  0.4895450000000  0.5503690000000  0.4690610000000 1.0
C      1  0.4289460000000  0.4883920000000  0.5373470000000 1.0
C      1  0.4353290000000  0.5335690000000  0.5215160000000 1.0
C      1  0.4899130000000  0.6245200000000  0.5246680000000 1.0
C      1  0.4495800000000  0.4144090000000  0.5189190000000 1.0
C      1  0.5057440000000  0.6038170000000  0.5240680000000 1.0
C      1  0.4495710000000  0.5453470000000  0.5025330000000 1.0
C      1  0.4415730000000  0.4385780000000  0.5245150000000 1.0
C      1  0.4677700000000  0.5511240000000  0.4841490000000 1.0
C      1  0.5210620000000  0.5822190000000  0.5229230000000 1.0
C      1  0.4345270000000  0.4632120000000  0.5313070000000 1.0
C      1  0.5148580000000  0.5428530000000  0.4598830000000 1.0
C      1  0.4247110000000  0.5158490000000  0.5403230000000 1.0
C      1  0.5431400000000  0.5333530000000  0.5150270000000 1.0
C      1  0.5330290000000  0.5621800000000  0.4512190000000 1.0
C      1  0.5705650000000  0.5281820000000  0.5140680000000 1.0
C      1  0.4100840000000  0.5255300000000  0.5620470000000 1.0
C      1  0.3967120000000  0.5346210000000  0.5824860000000 1.0
C      1  0.5959950000000  0.5228040000000  0.5121900000000 1.0
C      1  0.5507910000000  0.5801740000000  0.4449080000000 1.0
C      1  0.5136910000000  0.4731270000000  0.4838200000000 1.0
C      1  0.5246800000000  0.5122870000000  0.5107800000000 1.0
C      1  0.5221470000000  0.5154400000000  0.4607660000000 1.0
C      1  0.5073560000000  0.4721410000000  0.5322790000000 1.0
C      1  0.5203630000000  0.4736470000000  0.4355360000000 1.0
C      1  0.5206470000000  0.5008420000000  0.4851140000000 1.0
END
