TITL C-3201372-1405-1102 -3.32279383133277e-07 125000 -72.283721059879 0 0 12 (Oh) n - 1
REM
REM in /home/nfs/bkarasulu/CARBON/AIRSS/Generating-Clusters/LCBOP/Higher-Symm/SD-CG/FIRE-CG
REM
REM
REM
REM
REM
REM ./C.cell (b20cbc046b6831c77cfcea5457e17084)
REM AIRSS Version 0.9.1 bugfix July 2018 build 013d7b7c2542+ Fri, 06 Jul 2018 19:26:36 +0100
REM compiler GCC version 9.2.1 20190827 (Red Hat 9.2.1-1)
REM options -cpp -mtune=generic -march=x86-64 -g -O0 -fpre-include=/usr/include/finclude/math-vector-fortran.h
REM seed 1579437081 -264411047 517036697 1414562646 656943122 1928462737 2124082505 -1823409690 -110029618 579510142 -740933821 -1060933862 -239189839 -65155133 780173141 1817817871 -123182942 -232417849 -1504861611 -1200613523 291865094 -977693579 1628558188 -998619155 1875813820 99268104 363194780 1079146651 -839328879 -96681598 241401967 -855446606 455787498
REM
CELL 1.54180   50.00000   50.00000   50.00000   90.00000   90.00000   90.00000
LATT -1
SFAC C  
C      1  0.5497430000000  0.5130310000000  0.5000000000000 1.0
C      1  0.5365630000000  0.5361570000000  0.5000000000000 1.0
C      1  0.5135860000000  0.5495940000000  0.5000000000000 1.0
C      1  0.4869690000000  0.5497430000000  0.5000000000000 1.0
C      1  0.4638430000000  0.5365630000000  0.5000000000000 1.0
C      1  0.4504060000000  0.5135860000000  0.5000000000000 1.0
C      1  0.4502570000000  0.4869690000000  0.5000000000000 1.0
C      1  0.4634370000000  0.4638430000000  0.5000000000000 1.0
C      1  0.4864140000000  0.4504060000000  0.5000000000000 1.0
C      1  0.5130310000000  0.4502570000000  0.5000000000000 1.0
C      1  0.5361570000000  0.4634370000000  0.5000000000000 1.0
C      1  0.5495940000000  0.4864140000000  0.5000000000000 1.0
END
