TITL C-3201372-1405-1558 -0.00135460951863674 125000 -273.973868464053 0 0 46 (C1) n - 1
REM
REM in /home/nfs/bkarasulu/CARBON/AIRSS/Generating-Clusters/LCBOP/Higher-Symm/SD-CG/FIRE-CG
REM
REM
REM
REM
REM
REM ./C.cell (b20cbc046b6831c77cfcea5457e17084)
REM AIRSS Version 0.9.1 bugfix July 2018 build 013d7b7c2542+ Fri, 06 Jul 2018 19:26:36 +0100
REM compiler GCC version 9.2.1 20190827 (Red Hat 9.2.1-1)
REM options -cpp -mtune=generic -march=x86-64 -g -O0 -fpre-include=/usr/include/finclude/math-vector-fortran.h
REM seed -978943160 -2078056897 1863214004 -386165041 -433967910 -1636648189 -1055806170 -1298736165 -1324105261 760679074 -1146519210 135688397 183488194 -1521522574 -1859451335 -655347713 -1502466453 -23948297 1259331587 -256435166 -1753551001 725276416 -1462324649 -697996941 -1105064252 958391270 -667987619 -1852644807 1202517979 -70981842 210676458 -962230483 -1606376516
REM
CELL 1.54180   50.00000   50.00000   50.00000   90.00000   90.00000   90.00000
LATT -1
SFAC C  
C      1  0.4630240000000  0.5659570000000  0.5492390000000 1.0
C      1  0.4960300000000  0.5402560000000  0.4732520000000 1.0
C      1  0.4958470000000  0.4089330000000  0.5256610000000 1.0
C      1  0.4757840000000  0.5219910000000  0.4639430000000 1.0
C      1  0.5374940000000  0.4896390000000  0.5010860000000 1.0
C      1  0.4482120000000  0.5735910000000  0.5709230000000 1.0
C      1  0.5350750000000  0.4240440000000  0.4735330000000 1.0
C      1  0.4825140000000  0.5931700000000  0.5078560000000 1.0
C      1  0.5415000000000  0.5359810000000  0.5203250000000 1.0
C      1  0.4683080000000  0.5384000000000  0.5443020000000 1.0
C      1  0.4757330000000  0.5202410000000  0.4349460000000 1.0
C      1  0.5024900000000  0.4781380000000  0.4416210000000 1.0
C      1  0.4902740000000  0.4340210000000  0.4611190000000 1.0
C      1  0.4837680000000  0.3906990000000  0.5428610000000 1.0
C      1  0.4675690000000  0.4757400000000  0.4741220000000 1.0
C      1  0.5219150000000  0.5289800000000  0.4761160000000 1.0
C      1  0.4823950000000  0.5676470000000  0.4372480000000 1.0
C      1  0.5714130000000  0.5251270000000  0.5579770000000 1.0
C      1  0.5140480000000  0.4960350000000  0.5949900000000 1.0
C      1  0.4624680000000  0.5028690000000  0.4800680000000 1.0
C      1  0.5194430000000  0.4562250000000  0.5324480000000 1.0
C      1  0.5471610000000  0.4479540000000  0.4749200000000 1.0
C      1  0.4736910000000  0.5454490000000  0.4215440000000 1.0
C      1  0.4724490000000  0.3736230000000  0.5589710000000 1.0
C      1  0.5729270000000  0.4982790000000  0.5580790000000 1.0
C      1  0.4561530000000  0.5252870000000  0.5228100000000 1.0
C      1  0.5058550000000  0.4335190000000  0.5347600000000 1.0
C      1  0.5328110000000  0.5184580000000  0.5003260000000 1.0
C      1  0.4856530000000  0.4613730000000  0.4578270000000 1.0
C      1  0.4895320000000  0.5875200000000  0.4828150000000 1.0
C      1  0.4731060000000  0.5849450000000  0.5312990000000 1.0
C      1  0.5315630000000  0.5152740000000  0.4530170000000 1.0
C      1  0.5390420000000  0.4747410000000  0.4761580000000 1.0
C      1  0.5077640000000  0.4172440000000  0.4754160000000 1.0
C      1  0.4859090000000  0.5244870000000  0.5609460000000 1.0
C      1  0.4641190000000  0.5481270000000  0.3961790000000 1.0
C      1  0.4883220000000  0.4967870000000  0.4251810000000 1.0
C      1  0.5600700000000  0.4796750000000  0.5437560000000 1.0
C      1  0.5007210000000  0.5102950000000  0.5777100000000 1.0
C      1  0.4455080000000  0.5108420000000  0.5013220000000 1.0
C      1  0.5274260000000  0.4871340000000  0.4529710000000 1.0
C      1  0.4913870000000  0.5669890000000  0.4641720000000 1.0
C      1  0.4986940000000  0.4037440000000  0.4981930000000 1.0
C      1  0.5390230000000  0.4750910000000  0.5257210000000 1.0
C      1  0.5569610000000  0.5407750000000  0.5415920000000 1.0
C      1  0.4188470000000  0.5047060000000  0.5006780000000 1.0
END
