TITL C-3201376-6384-660 425537.043285982 125000 -1206.64950468993 0 0 194 (C1) n - 1
REM
REM in /home/nfs/bkarasulu/CARBON/AIRSS/Generating-Clusters/LCBOP/Higher-Symm/SD-CG/FIRE-CG
REM
REM
REM
REM
REM
REM ./C.cell (b20cbc046b6831c77cfcea5457e17084)
REM AIRSS Version 0.9.1 bugfix July 2018 build 013d7b7c2542+ Fri, 06 Jul 2018 19:26:36 +0100
REM compiler GCC version 9.2.1 20190827 (Red Hat 9.2.1-1)
REM options -cpp -mtune=generic -march=x86-64 -g -O0 -fpre-include=/usr/include/finclude/math-vector-fortran.h
REM seed -995666309 -450662491 -936818878 -770005837 -480516227 2039051557 1345311825 1003386569 535591758 -603550896 -178050280 -649039691 1030482471 -650464633 263138228 -1677214823 -795798619 -267584352 -889853583 -582577427 372473354 541232043 292099524 -1321236586 2014714157 1130114891 -644993310 384044962 -481111909 -1395452547 -771477087 2105947420 1243142974
REM
CELL 1.54180   50.00000   50.00000   50.00000   90.00000   90.00000   90.00000
LATT -1
SFAC C  
C      1  0.4628950000000  0.5825860000000  0.5113520000000 1.0
C      1  0.5905150000000  0.4953220000000  0.5145680000000 1.0
C      1  0.4511900000000  0.4249300000000  0.5115140000000 1.0
C      1  0.4646050000000  0.4159450000000  0.4880310000000 1.0
C      1  0.5868810000000  0.5055530000000  0.4875300000000 1.0
C      1  0.4493440000000  0.5758230000000  0.4873000000000 1.0
C      1  0.5929170000000  0.5361770000000  0.5789230000000 1.0
C      1  0.4825430000000  0.4033560000000  0.5793300000000 1.0
C      1  0.4250210000000  0.5649910000000  0.5760810000000 1.0
C      1  0.5918470000000  0.4675310000000  0.4225410000000 1.0
C      1  0.4830100000000  0.5992910000000  0.4215240000000 1.0
C      1  0.4256860000000  0.4421060000000  0.4198250000000 1.0
C      1  0.4810820000000  0.4486700000000  0.4025850000000 1.0
C      1  0.4635910000000  0.5459610000000  0.3998890000000 1.0
C      1  0.5554750000000  0.5100900000000  0.3986870000000 1.0
C      1  0.4809290000000  0.5527950000000  0.5967140000000 1.0
C      1  0.4649750000000  0.4583330000000  0.5972190000000 1.0
C      1  0.5576850000000  0.4918130000000  0.6022630000000 1.0
C      1  0.5712370000000  0.3863210000000  0.5096170000000 1.0
C      1  0.3658970000000  0.4955150000000  0.5141320000000 1.0
C      1  0.5580040000000  0.6151720000000  0.5144730000000 1.0
C      1  0.5681010000000  0.6102670000000  0.4877670000000 1.0
C      1  0.3705200000000  0.5040680000000  0.4867800000000 1.0
C      1  0.5608670000000  0.3820700000000  0.4829060000000 1.0
C      1  0.4215550000000  0.4794680000000  0.4848600000000 1.0
C      1  0.5190430000000  0.5768560000000  0.4865670000000 1.0
C      1  0.5563830000000  0.4593070000000  0.4893730000000 1.0
C      1  0.4226310000000  0.5223490000000  0.5122770000000 1.0
C      1  0.5242200000000  0.4190560000000  0.5134850000000 1.0
C      1  0.5556710000000  0.5450850000000  0.5099580000000 1.0
C      1  0.4382580000000  0.5961490000000  0.4708760000000 1.0
C      1  0.6090220000000  0.5096730000000  0.4703650000000 1.0
C      1  0.4487510000000  0.3999000000000  0.4706020000000 1.0
C      1  0.4391800000000  0.4055520000000  0.5284740000000 1.0
C      1  0.6142180000000  0.4990980000000  0.5297980000000 1.0
C      1  0.4524590000000  0.6029600000000  0.5280380000000 1.0
C      1  0.5836400000000  0.4485340000000  0.4769760000000 1.0
C      1  0.3978480000000  0.4626410000000  0.4748930000000 1.0
C      1  0.5080530000000  0.6022090000000  0.4749400000000 1.0
C      1  0.5817670000000  0.5532300000000  0.5206640000000 1.0
C      1  0.4068620000000  0.5444660000000  0.5238200000000 1.0
C      1  0.5118040000000  0.3947700000000  0.5238350000000 1.0
C      1  0.5120550000000  0.6202150000000  0.4977510000000 1.0
C      1  0.5924100000000  0.4292270000000  0.4978810000000 1.0
C      1  0.3879200000000  0.4529650000000  0.5032070000000 1.0
C      1  0.5148760000000  0.3770700000000  0.5002730000000 1.0
C      1  0.5930380000000  0.5701000000000  0.5003230000000 1.0
C      1  0.3875160000000  0.5483620000000  0.5020380000000 1.0
C      1  0.4402630000000  0.4015830000000  0.5551210000000 1.0
C      1  0.4466820000000  0.6031100000000  0.5543630000000 1.0
C      1  0.6180870000000  0.5016570000000  0.5565080000000 1.0
C      1  0.4401410000000  0.6020150000000  0.4445830000000 1.0
C      1  0.4403350000000  0.4023940000000  0.4451690000000 1.0
C      1  0.6141510000000  0.5054800000000  0.4442690000000 1.0
C      1  0.4971100000000  0.4578970000000  0.5478660000000 1.0
C      1  0.4694800000000  0.5226640000000  0.5463260000000 1.0
C      1  0.5385350000000  0.5134650000000  0.5543560000000 1.0
C      1  0.4930290000000  0.5414700000000  0.4474590000000 1.0
C      1  0.4621810000000  0.4839610000000  0.4433140000000 1.0
C      1  0.5369230000000  0.4780240000000  0.4403900000000 1.0
C      1  0.4256800000000  0.5067870000000  0.4689810000000 1.0
C      1  0.5376370000000  0.5586690000000  0.4689200000000 1.0
C      1  0.5363870000000  0.4418180000000  0.4744380000000 1.0
C      1  0.4269380000000  0.4963340000000  0.5287910000000 1.0
C      1  0.5419360000000  0.4367780000000  0.5310820000000 1.0
C      1  0.5326890000000  0.5536960000000  0.5256150000000 1.0
C      1  0.5430660000000  0.4855830000000  0.4850650000000 1.0
C      1  0.4622020000000  0.4680000000000  0.4664020000000 1.0
C      1  0.4959730000000  0.5301680000000  0.4737330000000 1.0
C      1  0.5252170000000  0.5032010000000  0.5303240000000 1.0
C      1  0.4793340000000  0.5158420000000  0.5195300000000 1.0
C      1  0.5014400000000  0.4642570000000  0.5199470000000 1.0
C      1  0.5672010000000  0.4233020000000  0.5436840000000 1.0
C      1  0.4036210000000  0.4813510000000  0.5436740000000 1.0
C      1  0.5219300000000  0.6065750000000  0.5482530000000 1.0
C      1  0.5641160000000  0.5701070000000  0.4581670000000 1.0
C      1  0.4033910000000  0.5257430000000  0.4571150000000 1.0
C      1  0.5250810000000  0.3908950000000  0.4487300000000 1.0
C      1  0.5392050000000  0.5436810000000  0.5507280000000 1.0
C      1  0.5219060000000  0.4409810000000  0.5525090000000 1.0
C      1  0.4422520000000  0.5100110000000  0.5503130000000 1.0
C      1  0.5411100000000  0.4496610000000  0.4476290000000 1.0
C      1  0.5187770000000  0.5567360000000  0.4457710000000 1.0
C      1  0.4364740000000  0.4954090000000  0.4437260000000 1.0
C      1  0.4666110000000  0.4526690000000  0.5478290000000 1.0
C      1  0.4764060000000  0.5525900000000  0.5473440000000 1.0
C      1  0.5621680000000  0.4943780000000  0.5545100000000 1.0
C      1  0.4639300000000  0.5502880000000  0.4486380000000 1.0
C      1  0.4876050000000  0.4292330000000  0.4481050000000 1.0
C      1  0.5552080000000  0.5014290000000  0.4448470000000 1.0
C      1  0.4565850000000  0.5901550000000  0.4249010000000 1.0
C      1  0.5964880000000  0.4953840000000  0.4248760000000 1.0
C      1  0.4453060000000  0.4227660000000  0.4263910000000 1.0
C      1  0.4571280000000  0.4141070000000  0.5739040000000 1.0
C      1  0.5997990000000  0.5088180000000  0.5770020000000 1.0
C      1  0.4475030000000  0.5813050000000  0.5721020000000 1.0
C      1  0.4174710000000  0.4866710000000  0.4036250000000 1.0
C      1  0.5267250000000  0.5797110000000  0.4060410000000 1.0
C      1  0.5556370000000  0.4366460000000  0.4070230000000 1.0
C      1  0.4202670000000  0.5177780000000  0.5919330000000 1.0
C      1  0.5265620000000  0.4219050000000  0.5947130000000 1.0
C      1  0.5533680000000  0.5634840000000  0.5905440000000 1.0
C      1  0.4207190000000  0.5229270000000  0.5638410000000 1.0
C      1  0.5587290000000  0.5595220000000  0.5628750000000 1.0
C      1  0.5224890000000  0.4165810000000  0.5668090000000 1.0
C      1  0.4133550000000  0.4824280000000  0.4319620000000 1.0
C      1  0.5626450000000  0.4356820000000  0.4351780000000 1.0
C      1  0.5217860000000  0.5824780000000  0.4341320000000 1.0
C      1  0.5789200000000  0.3772040000000  0.4626860000000 1.0
C      1  0.3750520000000  0.4820610000000  0.4687680000000 1.0
C      1  0.5687150000000  0.6309670000000  0.4697040000000 1.0
C      1  0.5761770000000  0.6206160000000  0.5344250000000 1.0
C      1  0.3462980000000  0.5064500000000  0.5297410000000 1.0
C      1  0.5724520000000  0.3649740000000  0.5269090000000 1.0
C      1  0.5295980000000  0.6155250000000  0.5210450000000 1.0
C      1  0.5806310000000  0.4122730000000  0.5188180000000 1.0
C      1  0.3830480000000  0.4739030000000  0.5238360000000 1.0
C      1  0.5323410000000  0.3817200000000  0.4764280000000 1.0
C      1  0.5782850000000  0.5843130000000  0.4797560000000 1.0
C      1  0.3835820000000  0.5293700000000  0.4795760000000 1.0
C      1  0.5680980000000  0.4329670000000  0.5723920000000 1.0
C      1  0.4104440000000  0.4757590000000  0.5718910000000 1.0
C      1  0.5197980000000  0.5930990000000  0.5724480000000 1.0
C      1  0.5664760000000  0.5640650000000  0.4291130000000 1.0
C      1  0.4094060000000  0.5294950000000  0.4272150000000 1.0
C      1  0.5226720000000  0.4053480000000  0.4247820000000 1.0
C      1  0.5589550000000  0.5085680000000  0.4745650000000 1.0
C      1  0.4897800000000  0.4244110000000  0.4761870000000 1.0
C      1  0.4507870000000  0.5499720000000  0.4747540000000 1.0
C      1  0.5696260000000  0.4821620000000  0.5299430000000 1.0
C      1  0.4842370000000  0.5671530000000  0.5232470000000 1.0
C      1  0.4510680000000  0.4515620000000  0.5227030000000 1.0
C      1  0.4704810000000  0.4965290000000  0.3880900000000 1.0
C      1  0.5102790000000  0.5294550000000  0.3869580000000 1.0
C      1  0.5191260000000  0.4775020000000  0.3881340000000 1.0
C      1  0.4708260000000  0.5062950000000  0.6125580000000 1.0
C      1  0.5111320000000  0.4729750000000  0.6132450000000 1.0
C      1  0.5196480000000  0.5247530000000  0.6135150000000 1.0
C      1  0.5026730000000  0.3982280000000  0.5578220000000 1.0
C      1  0.4133380000000  0.5488890000000  0.5536010000000 1.0
C      1  0.5849880000000  0.5516360000000  0.5542680000000 1.0
C      1  0.5023780000000  0.6011200000000  0.4445450000000 1.0
C      1  0.4095640000000  0.4558320000000  0.4408210000000 1.0
C      1  0.5862730000000  0.4491800000000  0.4460780000000 1.0
C      1  0.4555110000000  0.5613730000000  0.4234700000000 1.0
C      1  0.5711800000000  0.5089050000000  0.4226770000000 1.0
C      1  0.4725810000000  0.4317450000000  0.4242710000000 1.0
C      1  0.4576180000000  0.4429720000000  0.5735570000000 1.0
C      1  0.5757890000000  0.4927820000000  0.5794380000000 1.0
C      1  0.4717200000000  0.5656950000000  0.5725640000000 1.0
C      1  0.5668020000000  0.4618040000000  0.3984320000000 1.0
C      1  0.4336700000000  0.4626770000000  0.3980210000000 1.0
C      1  0.4998670000000  0.5789760000000  0.3964360000000 1.0
C      1  0.5669060000000  0.5408400000000  0.6022520000000 1.0
C      1  0.4341070000000  0.5403620000000  0.6016630000000 1.0
C      1  0.4995410000000  0.4240560000000  0.6035780000000 1.0
C      1  0.5157180000000  0.4830290000000  0.4780690000000 1.0
C      1  0.4712020000000  0.4815490000000  0.4887340000000 1.0
C      1  0.5159360000000  0.5251140000000  0.4912810000000 1.0
C      1  0.5067190000000  0.5154990000000  0.5151280000000 1.0
C      1  0.4639300000000  0.5071860000000  0.4979500000000 1.0
C      1  0.4967560000000  0.4744600000000  0.4956100000000 1.0
C      1  0.5442330000000  0.5332630000000  0.4843980000000 1.0
C      1  0.5159980000000  0.4279490000000  0.4877780000000 1.0
C      1  0.4414430000000  0.5239120000000  0.4878450000000 1.0
C      1  0.5560060000000  0.4598140000000  0.5188000000000 1.0
C      1  0.5113230000000  0.5672170000000  0.5129020000000 1.0
C      1  0.4353100000000  0.4734000000000  0.5106870000000 1.0
C      1  0.4908520000000  0.4512000000000  0.6087100000000 1.0
C      1  0.4617670000000  0.5345210000000  0.6081820000000 1.0
C      1  0.5492950000000  0.5187940000000  0.6106660000000 1.0
C      1  0.4904220000000  0.5521490000000  0.3901130000000 1.0
C      1  0.4618310000000  0.4683420000000  0.3926990000000 1.0
C      1  0.5480500000000  0.4831170000000  0.3902820000000 1.0
C      1  0.4519240000000  0.5199610000000  0.3946560000000 1.0
C      1  0.5390560000000  0.5335680000000  0.3945910000000 1.0
C      1  0.5092940000000  0.4503430000000  0.3965900000000 1.0
C      1  0.4527790000000  0.4837290000000  0.6034270000000 1.0
C      1  0.5405000000000  0.4681300000000  0.6054930000000 1.0
C      1  0.5087680000000  0.5513020000000  0.6034910000000 1.0
C      1  0.4242120000000  0.5152570000000  0.4037820000000 1.0
C      1  0.5478610000000  0.5595540000000  0.4057530000000 1.0
C      1  0.5277030000000  0.4283140000000  0.4056090000000 1.0
C      1  0.4256580000000  0.4894880000000  0.5934630000000 1.0
C      1  0.5486270000000  0.4412450000000  0.5945840000000 1.0
C      1  0.5262660000000  0.5723010000000  0.5927560000000 1.0
C      1  0.4996400000000  0.4794950000000  0.5665180000000 1.0
C      1  0.4852430000000  0.5102950000000  0.5667820000000 1.0
C      1  0.5196170000000  0.5069640000000  0.5746680000000 1.0
C      1  0.4918550000000  0.5193190000000  0.4285650000000 1.0
C      1  0.4881510000000  0.4931670000000  0.4369360000000 1.0
C      1  0.5106910000000  0.4834000000000  0.4501420000000 1.0
C      1  0.5000660000000  0.5010190000000  0.3850190000000 1.0
C      1  0.5004960000000  0.5011600000000  0.6164720000000 1.0
END
