TITL C-3201375-1262-1029 -7938971.58518148 125000 -274.90686896318 0 0 50 (C2) n - 1
REM
REM in /home/nfs/bkarasulu/CARBON/AIRSS/Generating-Clusters/LCBOP/Higher-Symm/SD-CG/FIRE-CG
REM
REM
REM
REM
REM
REM ./C.cell (b20cbc046b6831c77cfcea5457e17084)
REM AIRSS Version 0.9.1 bugfix July 2018 build 013d7b7c2542+ Fri, 06 Jul 2018 19:26:36 +0100
REM compiler GCC version 9.2.1 20190827 (Red Hat 9.2.1-1)
REM options -cpp -mtune=generic -march=x86-64 -g -O0 -fpre-include=/usr/include/finclude/math-vector-fortran.h
REM seed -2092737315 -878770475 429272946 -501064911 771027794 1274341602 -1508450228 1701661027 -1117442266 961556136 2147263730 -2005075701 -886498563 -570072875 -29939765 -1858798726 1334009440 1380880397 1335529493 6206909 1785919072 2062147269 840285294 -1332729323 562760201 1503385123 126848847 712649895 -1918911808 -568976881 656166010 1245708837 392045463
REM
CELL 1.54180   50.00000   50.00000   50.00000   90.00000   90.00000   90.00000
LATT -1
SFAC C  
C      1  0.5310060000000  0.4805790000000  0.4551560000000 1.0
C      1  0.4690120000000  0.4807300000000  0.5448610000000 1.0
C      1  0.4689590000000  0.5217340000000  0.4549100000000 1.0
C      1  0.5310610000000  0.5217150000000  0.5450410000000 1.0
C      1  0.5284050000000  0.5428810000000  0.5272520000000 1.0
C      1  0.4715650000000  0.5428890000000  0.4727310000000 1.0
C      1  0.4731840000000  0.4607540000000  0.5258500000000 1.0
C      1  0.5266960000000  0.4607160000000  0.4741830000000 1.0
C      1  0.5607920000000  0.4893210000000  0.4921920000000 1.0
C      1  0.4391250000000  0.4893480000000  0.5077960000000 1.0
C      1  0.4391650000000  0.5132290000000  0.4921580000000 1.0
C      1  0.5608210000000  0.5132090000000  0.5077960000000 1.0
C      1  0.4912870000000  0.4537610000000  0.4455160000000 1.0
C      1  0.5087050000000  0.4538030000000  0.5544760000000 1.0
C      1  0.5087100000000  0.5487940000000  0.4455610000000 1.0
C      1  0.4913120000000  0.5487540000000  0.5544950000000 1.0
C      1  0.4557830000000  0.4664490000000  0.4827070000000 1.0
C      1  0.5442110000000  0.4664120000000  0.5174060000000 1.0
C      1  0.5441820000000  0.5361270000000  0.4826360000000 1.0
C      1  0.4557710000000  0.5361520000000  0.5173330000000 1.0
C      1  0.4941440000000  0.4854920000000  0.5587170000000 1.0
C      1  0.5058800000000  0.4854160000000  0.4412880000000 1.0
C      1  0.5058890000000  0.5170910000000  0.5586800000000 1.0
C      1  0.4941520000000  0.5171220000000  0.4413340000000 1.0
C      1  0.5190780000000  0.4816940000000  0.5176240000000 1.0
C      1  0.4808340000000  0.4817410000000  0.4825790000000 1.0
C      1  0.4807590000000  0.5208990000000  0.5174890000000 1.0
C      1  0.5192100000000  0.5209380000000  0.4825140000000 1.0
C      1  0.4927420000000  0.4334040000000  0.4694720000000 1.0
C      1  0.5072950000000  0.4335230000000  0.5304630000000 1.0
C      1  0.5072610000000  0.5690310000000  0.4695450000000 1.0
C      1  0.4927200000000  0.5689880000000  0.5305010000000 1.0
C      1  0.5286690000000  0.5674500000000  0.4892240000000 1.0
C      1  0.4712710000000  0.5673730000000  0.5108550000000 1.0
C      1  0.4713190000000  0.4351110000000  0.4891630000000 1.0
C      1  0.5287780000000  0.4351140000000  0.5108040000000 1.0
C      1  0.4425710000000  0.5234440000000  0.5411440000000 1.0
C      1  0.5573610000000  0.5233980000000  0.4588420000000 1.0
C      1  0.5573920000000  0.4791400000000  0.5411620000000 1.0
C      1  0.4426490000000  0.4791310000000  0.4588680000000 1.0
C      1  0.5193940000000  0.5675180000000  0.5171190000000 1.0
C      1  0.4805780000000  0.5675170000000  0.4829260000000 1.0
C      1  0.4805440000000  0.4351680000000  0.5172110000000 1.0
C      1  0.5195840000000  0.4350480000000  0.4826450000000 1.0
C      1  0.4455100000000  0.4948050000000  0.5362320000000 1.0
C      1  0.5544410000000  0.4947620000000  0.4637710000000 1.0
C      1  0.5544700000000  0.5077260000000  0.5362160000000 1.0
C      1  0.4455360000000  0.5077350000000  0.4637750000000 1.0
C      1  0.4999720000000  0.5234470000000  0.4999900000000 1.0
C      1  0.5002470000000  0.4775020000000  0.4997920000000 1.0
END
