TITL C-3201377-4638-2124 8.95433949172273e-07 125000 -474.181209360781 0 0 79 (C1) n - 1
REM
REM in /home/nfs/bkarasulu/CARBON/AIRSS/Generating-Clusters/LCBOP/Higher-Symm/SD-CG/FIRE-CG
REM
REM
REM
REM
REM
REM ./C.cell (b20cbc046b6831c77cfcea5457e17084)
REM AIRSS Version 0.9.1 bugfix July 2018 build 013d7b7c2542+ Fri, 06 Jul 2018 19:26:36 +0100
REM compiler GCC version 9.2.1 20190827 (Red Hat 9.2.1-1)
REM options -cpp -mtune=generic -march=x86-64 -g -O0 -fpre-include=/usr/include/finclude/math-vector-fortran.h
REM seed 2079210384 -162672559 1495988292 -1804520937 -483429664 1107856135 -1070681326 370358022 -1561864596 -944795846 -476771804 1757202196 -1120241681 -2013372980 -1895619799 -1320890573 -2062941046 898026273 311112662 -1834105265 -249951731 754277271 494052104 -576610322 -1636736569 1175483412 756947696 1488567377 1087038352 1403384376 -583248612 -1802628999 -1532324781
REM
CELL 1.54180   50.00000   50.00000   50.00000   90.00000   90.00000   90.00000
LATT -1
SFAC C  
C      1  0.4628150000000  0.4211350000000  0.4977890000000 1.0
C      1  0.4700580000000  0.4761430000000  0.5735900000000 1.0
C      1  0.4630980000000  0.5643760000000  0.5452290000000 1.0
C      1  0.4584220000000  0.5645210000000  0.4519650000000 1.0
C      1  0.4649410000000  0.4753650000000  0.4237000000000 1.0
C      1  0.4620330000000  0.4525980000000  0.4648180000000 1.0
C      1  0.4666600000000  0.4523990000000  0.5339400000000 1.0
C      1  0.4632130000000  0.5190850000000  0.5551350000000 1.0
C      1  0.4582900000000  0.5595270000000  0.4982900000000 1.0
C      1  0.4596930000000  0.5178380000000  0.4419060000000 1.0
C      1  0.4862540000000  0.5717110000000  0.4567120000000 1.0
C      1  0.4937530000000  0.4823310000000  0.4213850000000 1.0
C      1  0.4894650000000  0.4201710000000  0.4869920000000 1.0
C      1  0.4989310000000  0.4702800000000  0.5708770000000 1.0
C      1  0.4917050000000  0.5612240000000  0.5507410000000 1.0
C      1  0.5725560000000  0.4511910000000  0.4623950000000 1.0
C      1  0.5431890000000  0.4011440000000  0.5424820000000 1.0
C      1  0.5816860000000  0.5091540000000  0.5364470000000 1.0
C      1  0.5656050000000  0.5884550000000  0.5294230000000 1.0
C      1  0.5733320000000  0.5391550000000  0.4445110000000 1.0
C      1  0.5568170000000  0.4631440000000  0.4440390000000 1.0
C      1  0.5314560000000  0.4037300000000  0.5179820000000 1.0
C      1  0.5664690000000  0.4924430000000  0.5510230000000 1.0
C      1  0.5544390000000  0.5702210000000  0.5461960000000 1.0
C      1  0.5522700000000  0.5564500000000  0.4442480000000 1.0
C      1  0.5513430000000  0.5359920000000  0.5090110000000 1.0
C      1  0.5512340000000  0.5616350000000  0.4912650000000 1.0
C      1  0.5523080000000  0.5037520000000  0.4683880000000 1.0
C      1  0.5566850000000  0.4433960000000  0.5102430000000 1.0
C      1  0.5585070000000  0.4467310000000  0.5389390000000 1.0
C      1  0.5117200000000  0.4388030000000  0.4887940000000 1.0
C      1  0.5195710000000  0.4736750000000  0.5504520000000 1.0
C      1  0.5125950000000  0.5438280000000  0.5408750000000 1.0
C      1  0.5081570000000  0.5584280000000  0.4699470000000 1.0
C      1  0.5140160000000  0.4915580000000  0.4403160000000 1.0
C      1  0.4622690000000  0.4261290000000  0.5254420000000 1.0
C      1  0.4645540000000  0.5034870000000  0.5782720000000 1.0
C      1  0.4575840000000  0.5765790000000  0.5204120000000 1.0
C      1  0.4555530000000  0.5439500000000  0.4329240000000 1.0
C      1  0.4611640000000  0.4506960000000  0.4369700000000 1.0
C      1  0.5637540000000  0.5845360000000  0.5026100000000 1.0
C      1  0.5766170000000  0.5186640000000  0.4638770000000 1.0
C      1  0.5741980000000  0.4488730000000  0.4891330000000 1.0
C      1  0.5571520000000  0.4220320000000  0.5531490000000 1.0
C      1  0.5795760000000  0.5249360000000  0.5131240000000 1.0
C      1  0.4751340000000  0.5373710000000  0.4979840000000 1.0
C      1  0.4762710000000  0.5116350000000  0.4631900000000 1.0
C      1  0.4790900000000  0.4706560000000  0.4774040000000 1.0
C      1  0.4827390000000  0.4705780000000  0.5206170000000 1.0
C      1  0.4783740000000  0.5119170000000  0.5329450000000 1.0
C      1  0.5019900000000  0.5061390000000  0.4607750000000 1.0
C      1  0.5053750000000  0.4666930000000  0.4834790000000 1.0
C      1  0.5082520000000  0.4776530000000  0.5249710000000 1.0
C      1  0.5033800000000  0.5204090000000  0.5294360000000 1.0
C      1  0.5001110000000  0.5390530000000  0.4889610000000 1.0
C      1  0.4450390000000  0.4949680000000  0.4334470000000 1.0
C      1  0.4452710000000  0.4383510000000  0.4827580000000 1.0
C      1  0.4509880000000  0.4651100000000  0.5539020000000 1.0
C      1  0.4461380000000  0.5410180000000  0.5495090000000 1.0
C      1  0.4416510000000  0.5602270000000  0.4753770000000 1.0
C      1  0.4264180000000  0.4756670000000  0.5411640000000 1.0
C      1  0.4228790000000  0.5299690000000  0.5351500000000 1.0
C      1  0.4198340000000  0.5412680000000  0.4806630000000 1.0
C      1  0.4216650000000  0.4940740000000  0.4520780000000 1.0
C      1  0.4226610000000  0.4546340000000  0.4900320000000 1.0
C      1  0.4138780000000  0.5198810000000  0.4627700000000 1.0
C      1  0.4144420000000  0.4719590000000  0.4686350000000 1.0
C      1  0.4180150000000  0.4616730000000  0.5172540000000 1.0
C      1  0.4174270000000  0.5026840000000  0.5428840000000 1.0
C      1  0.4143220000000  0.5379080000000  0.5089550000000 1.0
C      1  0.5414660000000  0.4864800000000  0.4474110000000 1.0
C      1  0.5335890000000  0.4279970000000  0.5029270000000 1.0
C      1  0.5483080000000  0.4708950000000  0.5503900000000 1.0
C      1  0.5398710000000  0.5481310000000  0.5358400000000 1.0
C      1  0.5362040000000  0.5620270000000  0.4669120000000 1.0
C      1  0.5110630000000  0.5028510000000  0.4968990000000 1.0
C      1  0.4729710000000  0.4998550000000  0.4987020000000 1.0
C      1  0.5387700000000  0.5107120000000  0.4935490000000 1.0
C      1  0.5923510000000  0.5214440000000  0.4876710000000 1.0
END
