TITL C-3201378-2706-874 -1.06741510072863e-06 125000 -433.568684687246 0 0 70 (C2) n - 1
REM
REM in /home/nfs/bkarasulu/CARBON/AIRSS/Generating-Clusters/LCBOP/Higher-Symm/SD-CG/FIRE-CG
REM
REM
REM
REM
REM
REM ./C.cell (b20cbc046b6831c77cfcea5457e17084)
REM AIRSS Version 0.9.1 bugfix July 2018 build 013d7b7c2542+ Fri, 06 Jul 2018 19:26:36 +0100
REM compiler GCC version 9.2.1 20190827 (Red Hat 9.2.1-1)
REM options -cpp -mtune=generic -march=x86-64 -g -O0 -fpre-include=/usr/include/finclude/math-vector-fortran.h
REM seed 1194698333 1076564905 836128646 -1624886367 -1846465513 -655719708 37619491 -1640188372 139453177 -326358652 2062976632 1250246925 468814981 -968268943 -166618692 -1483537159 -1878188069 1714780385 -1135977317 930102169 753664278 -160629717 179301744 178122674 -949547570 -914894029 -1350117195 1489863202 -2003376952 -1199972881 -630267683 2065405939 1878026397
REM
CELL 1.54180   50.00000   50.00000   50.00000   90.00000   90.00000   90.00000
LATT -1
SFAC C  
C      1  0.4364610000000  0.5096040000000  0.4552840000000 1.0
C      1  0.4947190000000  0.4475330000000  0.4589160000000 1.0
C      1  0.5603130000000  0.4915890000000  0.4570000000000 1.0
C      1  0.5075700000000  0.5544760000000  0.4579350000000 1.0
C      1  0.5542060000000  0.5078410000000  0.5422330000000 1.0
C      1  0.5093370000000  0.4367300000000  0.5448830000000 1.0
C      1  0.4472630000000  0.4949850000000  0.5412510000000 1.0
C      1  0.4913160000000  0.5605810000000  0.5431680000000 1.0
C      1  0.4763800000000  0.5044010000000  0.4169340000000 1.0
C      1  0.4917240000000  0.4800270000000  0.4197890000000 1.0
C      1  0.5252890000000  0.4969380000000  0.4135150000000 1.0
C      1  0.4985830000000  0.5229730000000  0.4189860000000 1.0
C      1  0.5227030000000  0.4988520000000  0.5811820000000 1.0
C      1  0.5041320000000  0.4766480000000  0.5832330000000 1.0
C      1  0.4797570000000  0.4919910000000  0.5803780000000 1.0
C      1  0.4966660000000  0.5255560000000  0.5866530000000 1.0
C      1  0.5147330000000  0.4275510000000  0.4582830000000 1.0
C      1  0.5805100000000  0.5113280000000  0.4595290000000 1.0
C      1  0.4879050000000  0.5748080000000  0.4571250000000 1.0
C      1  0.4168820000000  0.4897750000000  0.4604650000000 1.0
C      1  0.4895090000000  0.4171510000000  0.5397000000000 1.0
C      1  0.4272800000000  0.5149980000000  0.5418840000000 1.0
C      1  0.5110540000000  0.5807790000000  0.5406400000000 1.0
C      1  0.5745380000000  0.4881770000000  0.5430430000000 1.0
C      1  0.5282860000000  0.4173760000000  0.4794190000000 1.0
C      1  0.5866870000000  0.5271470000000  0.4805640000000 1.0
C      1  0.4736160000000  0.5848940000000  0.4778150000000 1.0
C      1  0.4123770000000  0.4742310000000  0.4820290000000 1.0
C      1  0.4739660000000  0.4126440000000  0.5181360000000 1.0
C      1  0.4171050000000  0.5285510000000  0.5207470000000 1.0
C      1  0.5268730000000  0.5869570000000  0.5196050000000 1.0
C      1  0.5846260000000  0.4738900000000  0.5223530000000 1.0
C      1  0.4615690000000  0.5745210000000  0.5013630000000 1.0
C      1  0.4276410000000  0.4631770000000  0.5030940000000 1.0
C      1  0.5396030000000  0.4272220000000  0.5035420000000 1.0
C      1  0.5734360000000  0.5388410000000  0.5027210000000 1.0
C      1  0.5385680000000  0.5737070000000  0.4974480000000 1.0
C      1  0.5742530000000  0.4618420000000  0.4988050000000 1.0
C      1  0.4629120000000  0.4279090000000  0.4970710000000 1.0
C      1  0.4269500000000  0.5398680000000  0.4966250000000 1.0
C      1  0.5146180000000  0.4682030000000  0.5078510000000 1.0
C      1  0.5324520000000  0.5136300000000  0.5028950000000 1.0
C      1  0.4859660000000  0.5333280000000  0.5034020000000 1.0
C      1  0.4685490000000  0.4882590000000  0.5012730000000 1.0
C      1  0.4879910000000  0.4688180000000  0.4988940000000 1.0
C      1  0.4679330000000  0.5148850000000  0.4923160000000 1.0
C      1  0.5133590000000  0.5327230000000  0.4972730000000 1.0
C      1  0.5330600000000  0.4862370000000  0.4967660000000 1.0
C      1  0.5087140000000  0.4526080000000  0.5686680000000 1.0
C      1  0.5278200000000  0.5050240000000  0.5535030000000 1.0
C      1  0.4949450000000  0.5376050000000  0.5603500000000 1.0
C      1  0.4735700000000  0.4971250000000  0.5527760000000 1.0
C      1  0.4968580000000  0.4738400000000  0.4473910000000 1.0
C      1  0.4523390000000  0.5089820000000  0.4314990000000 1.0
C      1  0.5047540000000  0.5280900000000  0.4466650000000 1.0
C      1  0.5373360000000  0.4952170000000  0.4398180000000 1.0
C      1  0.5562610000000  0.4773950000000  0.4821530000000 1.0
C      1  0.5224630000000  0.5554040000000  0.4823310000000 1.0
C      1  0.4439140000000  0.5237430000000  0.4792600000000 1.0
C      1  0.4798870000000  0.4463850000000  0.4831870000000 1.0
C      1  0.4461170000000  0.4801530000000  0.5169790000000 1.0
C      1  0.4771220000000  0.5565290000000  0.5180150000000 1.0
C      1  0.5551330000000  0.5227350000000  0.5178370000000 1.0
C      1  0.5234770000000  0.4441840000000  0.5209060000000 1.0
C      1  0.4343840000000  0.5671270000000  0.4985590000000 1.0
C      1  0.5668610000000  0.4346570000000  0.5016090000000 1.0
C      1  0.4360630000000  0.4363290000000  0.5000830000000 1.0
C      1  0.5656900000000  0.5659630000000  0.5000850000000 1.0
C      1  0.4990870000000  0.5123320000000  0.5443380000000 1.0
C      1  0.5120630000000  0.4993580000000  0.4558290000000 1.0
END
