TITL C-3201379-3821-2108 5.19856876252628 125000 -398.948774560862 0 0 68 (C1) n - 1
REM
REM in /home/nfs/bkarasulu/CARBON/AIRSS/Generating-Clusters/LCBOP/Higher-Symm/SD-CG/FIRE-CG
REM
REM
REM
REM
REM
REM ./C.cell (b20cbc046b6831c77cfcea5457e17084)
REM AIRSS Version 0.9.1 bugfix July 2018 build 013d7b7c2542+ Fri, 06 Jul 2018 19:26:36 +0100
REM compiler GCC version 9.2.1 20190827 (Red Hat 9.2.1-1)
REM options -cpp -mtune=generic -march=x86-64 -g -O0 -fpre-include=/usr/include/finclude/math-vector-fortran.h
REM seed -1655303561 -1435060402 -1985383410 774268325 -166258926 -801149461 813070353 -2036721044 804747025 1031799917 -864740487 1362925499 -1958932341 -1738024752 -735478878 1257750349 1746712217 296343889 -1496902659 -1844041463 -500777557 -1697099383 -980579198 1419031810 742055866 -1623838027 -1399204430 1809601990 1158432275 -1186424338 -17510011 -425831370 756714586
REM
CELL 1.54180   50.00000   50.00000   50.00000   90.00000   90.00000   90.00000
LATT -1
SFAC C  
C      1  0.5019640000000  0.3205660000000  0.5411200000000 1.0
C      1  0.4762410000000  0.6475160000000  0.5115130000000 1.0
C      1  0.3943950000000  0.5437390000000  0.4132830000000 1.0
C      1  0.5032750000000  0.5482290000000  0.5367240000000 1.0
C      1  0.5016880000000  0.5667700000000  0.5155800000000 1.0
C      1  0.4910120000000  0.3607300000000  0.4846570000000 1.0
C      1  0.5164950000000  0.2977910000000  0.5445020000000 1.0
C      1  0.4618220000000  0.6627210000000  0.5288970000000 1.0
C      1  0.5185760000000  0.5079070000000  0.4831640000000 1.0
C      1  0.4849070000000  0.4748220000000  0.4396250000000 1.0
C      1  0.5393020000000  0.4574130000000  0.5323750000000 1.0
C      1  0.4701220000000  0.5026080000000  0.3850570000000 1.0
C      1  0.5864660000000  0.3212740000000  0.5348070000000 1.0
C      1  0.4893360000000  0.6426600000000  0.5950930000000 1.0
C      1  0.5858120000000  0.5424650000000  0.5057920000000 1.0
C      1  0.4258030000000  0.5054840000000  0.5010500000000 1.0
C      1  0.4362250000000  0.5192340000000  0.4148360000000 1.0
C      1  0.5245070000000  0.5034280000000  0.5362170000000 1.0
C      1  0.5537380000000  0.6141780000000  0.4734770000000 1.0
C      1  0.4826400000000  0.4089720000000  0.5610240000000 1.0
C      1  0.4139420000000  0.5300700000000  0.4277540000000 1.0
C      1  0.5260510000000  0.5313160000000  0.5397550000000 1.0
C      1  0.4963400000000  0.6292900000000  0.5202120000000 1.0
C      1  0.5140890000000  0.3456900000000  0.5353100000000 1.0
C      1  0.4869720000000  0.5216350000000  0.4505280000000 1.0
C      1  0.5139530000000  0.4615710000000  0.4759690000000 1.0
C      1  0.4933770000000  0.6410500000000  0.6207890000000 1.0
C      1  0.6124530000000  0.3215400000000  0.5328510000000 1.0
C      1  0.4774280000000  0.5014650000000  0.4328070000000 1.0
C      1  0.5237320000000  0.4819780000000  0.4933040000000 1.0
C      1  0.4656900000000  0.6615080000000  0.5558210000000 1.0
C      1  0.5436520000000  0.2975410000000  0.5425670000000 1.0
C      1  0.5126100000000  0.4688620000000  0.4473690000000 1.0
C      1  0.4902940000000  0.5134020000000  0.4782580000000 1.0
C      1  0.4858680000000  0.4054400000000  0.5013610000000 1.0
C      1  0.5015220000000  0.5800840000000  0.4684090000000 1.0
C      1  0.5751310000000  0.5450210000000  0.5301310000000 1.0
C      1  0.4161340000000  0.5187060000000  0.4802050000000 1.0
C      1  0.4922190000000  0.3784080000000  0.5055330000000 1.0
C      1  0.5028920000000  0.5868040000000  0.4958910000000 1.0
C      1  0.5353120000000  0.6222320000000  0.4911440000000 1.0
C      1  0.4924460000000  0.3852980000000  0.5536920000000 1.0
C      1  0.4850310000000  0.6443170000000  0.5677520000000 1.0
C      1  0.5588170000000  0.3209860000000  0.5368880000000 1.0
C      1  0.4115970000000  0.5269700000000  0.4554340000000 1.0
C      1  0.5517080000000  0.5423380000000  0.5426280000000 1.0
C      1  0.5294020000000  0.4801580000000  0.5210210000000 1.0
C      1  0.4612870000000  0.5076380000000  0.4104360000000 1.0
C      1  0.5583170000000  0.5926870000000  0.4581590000000 1.0
C      1  0.4737370000000  0.4317200000000  0.5503430000000 1.0
C      1  0.3761500000000  0.5565020000000  0.3997390000000 1.0
C      1  0.4826930000000  0.5464650000000  0.5547280000000 1.0
C      1  0.5780310000000  0.5396690000000  0.4804100000000 1.0
C      1  0.4389560000000  0.4880860000000  0.5161190000000 1.0
C      1  0.5463350000000  0.5678400000000  0.4541150000000 1.0
C      1  0.4692440000000  0.4445860000000  0.5258530000000 1.0
C      1  0.5173360000000  0.5652850000000  0.4502930000000 1.0
C      1  0.4805810000000  0.4329690000000  0.5023150000000 1.0
C      1  0.4874630000000  0.4492430000000  0.4805670000000 1.0
C      1  0.5111920000000  0.5371240000000  0.4468730000000 1.0
C      1  0.5331200000000  0.5241410000000  0.4638360000000 1.0
C      1  0.4704160000000  0.4580490000000  0.4586940000000 1.0
C      1  0.5425060000000  0.3441330000000  0.5335690000000 1.0
C      1  0.4994760000000  0.6289710000000  0.5485520000000 1.0
C      1  0.4996040000000  0.3694940000000  0.5316700000000 1.0
C      1  0.5113340000000  0.6132420000000  0.5028000000000 1.0
C      1  0.4537540000000  0.4677140000000  0.5243670000000 1.0
C      1  0.5554830000000  0.5422570000000  0.4643860000000 1.0
END
