TITL C-3201376-6384-2109 0.404397176667764 125000 -291.664162482629 0 0 49 (C1) n - 1
REM
REM in /home/nfs/bkarasulu/CARBON/AIRSS/Generating-Clusters/LCBOP/Higher-Symm/SD-CG/FIRE-CG
REM
REM
REM
REM
REM
REM ./C.cell (b20cbc046b6831c77cfcea5457e17084)
REM AIRSS Version 0.9.1 bugfix July 2018 build 013d7b7c2542+ Fri, 06 Jul 2018 19:26:36 +0100
REM compiler GCC version 9.2.1 20190827 (Red Hat 9.2.1-1)
REM options -cpp -mtune=generic -march=x86-64 -g -O0 -fpre-include=/usr/include/finclude/math-vector-fortran.h
REM seed 280835790 -839850246 23934442 -636286903 -1844301441 -397955083 1032635047 94075842 -1180675745 2073592428 -1711059645 -1666170206 -1064016319 595674675 -939092516 -1071276887 1174853523 -1277876950 -2051969129 976919478 -1127797774 -324336871 -2116715857 518800375 -1191700883 -906209760 -541017424 -1224700973 -1364959941 2084533823 -1813421666 1944876828 43988254
REM
CELL 1.54180   50.00000   50.00000   50.00000   90.00000   90.00000   90.00000
LATT -1
SFAC C  
C      1  0.4739340000000  0.5646670000000  0.5177950000000 1.0
C      1  0.4821460000000  0.4744910000000  0.5608400000000 1.0
C      1  0.5067770000000  0.4807050000000  0.4460920000000 1.0
C      1  0.4219560000000  0.5288560000000  0.5101750000000 1.0
C      1  0.4388280000000  0.4644330000000  0.5216780000000 1.0
C      1  0.4461980000000  0.5003680000000  0.4484870000000 1.0
C      1  0.4476560000000  0.5259530000000  0.5011430000000 1.0
C      1  0.4599240000000  0.4812700000000  0.5168620000000 1.0
C      1  0.4631480000000  0.4920940000000  0.4684230000000 1.0
C      1  0.4667470000000  0.5590310000000  0.5441980000000 1.0
C      1  0.4716160000000  0.4496370000000  0.5699250000000 1.0
C      1  0.5073180000000  0.5030150000000  0.4283410000000 1.0
C      1  0.4852310000000  0.4271040000000  0.4887600000000 1.0
C      1  0.4861630000000  0.5535810000000  0.4484320000000 1.0
C      1  0.5332100000000  0.4917850000000  0.5153110000000 1.0
C      1  0.4943040000000  0.4921470000000  0.5788670000000 1.0
C      1  0.5296760000000  0.4644650000000  0.4472530000000 1.0
C      1  0.4917160000000  0.5856840000000  0.5124830000000 1.0
C      1  0.5497110000000  0.5216180000000  0.4441770000000 1.0
C      1  0.5660760000000  0.5177440000000  0.4647810000000 1.0
C      1  0.4790720000000  0.4264140000000  0.5561310000000 1.0
C      1  0.5689560000000  0.5128600000000  0.4907630000000 1.0
C      1  0.4881020000000  0.4131540000000  0.5349700000000 1.0
C      1  0.5234830000000  0.5254920000000  0.4350810000000 1.0
C      1  0.4841280000000  0.4738350000000  0.4621320000000 1.0
C      1  0.4638100000000  0.5488340000000  0.4963680000000 1.0
C      1  0.4834130000000  0.4801400000000  0.5328550000000 1.0
C      1  0.5098000000000  0.6000180000000  0.4992800000000 1.0
C      1  0.5144480000000  0.5074560000000  0.5870530000000 1.0
C      1  0.5465900000000  0.4453100000000  0.4544820000000 1.0
C      1  0.4935260000000  0.5023320000000  0.4047090000000 1.0
C      1  0.4600680000000  0.5527480000000  0.5685930000000 1.0
C      1  0.4544520000000  0.4485370000000  0.5911670000000 1.0
C      1  0.4821050000000  0.4477220000000  0.4723240000000 1.0
C      1  0.4705970000000  0.5547070000000  0.4698800000000 1.0
C      1  0.5085600000000  0.4839790000000  0.5211430000000 1.0
C      1  0.5444210000000  0.4066680000000  0.4873940000000 1.0
C      1  0.5325760000000  0.5950610000000  0.4540820000000 1.0
C      1  0.5577770000000  0.5223360000000  0.5647380000000 1.0
C      1  0.5276730000000  0.5745840000000  0.4375860000000 1.0
C      1  0.5653430000000  0.5177840000000  0.5395730000000 1.0
C      1  0.5232760000000  0.4016870000000  0.5029190000000 1.0
C      1  0.4980440000000  0.4123440000000  0.5089170000000 1.0
C      1  0.5119580000000  0.5512920000000  0.4377460000000 1.0
C      1  0.5568370000000  0.5069480000000  0.5151960000000 1.0
C      1  0.5529630000000  0.4238260000000  0.4688470000000 1.0
C      1  0.5252820000000  0.6043270000000  0.4780320000000 1.0
C      1  0.5381980000000  0.5185760000000  0.5824310000000 1.0
C      1  0.4579900000000  0.4999820000000  0.4954290000000 1.0
END
