TITL C-3201379-3821-936 0.940027441385903 125000 -1105.63157123968 0 0 181 (C1) n - 1
REM
REM in /home/nfs/bkarasulu/CARBON/AIRSS/Generating-Clusters/LCBOP/Higher-Symm/SD-CG/FIRE-CG
REM
REM
REM
REM
REM
REM ./C.cell (b20cbc046b6831c77cfcea5457e17084)
REM AIRSS Version 0.9.1 bugfix July 2018 build 013d7b7c2542+ Fri, 06 Jul 2018 19:26:36 +0100
REM compiler GCC version 9.2.1 20190827 (Red Hat 9.2.1-1)
REM options -cpp -mtune=generic -march=x86-64 -g -O0 -fpre-include=/usr/include/finclude/math-vector-fortran.h
REM seed -1235652927 -1106879818 -1446785983 -1169483127 -1002212522 108920860 1891974902 1650542555 -752545210 384552976 941103584 -2048215955 2074527904 733698892 69876929 -1672603176 147918050 468102207 1013212491 619892040 -493182438 642747056 147869435 -533865251 -863532312 -1115209581 -1402859668 -957660699 -639286389 1501623579 242330377 -1944744355 84119439
REM
CELL 1.54180   50.00000   50.00000   50.00000   90.00000   90.00000   90.00000
LATT -1
SFAC C  
C      1  0.5603370000000  0.4805390000000  0.4765680000000 1.0
C      1  0.4567660000000  0.4650300000000  0.4500650000000 1.0
C      1  0.5567510000000  0.5494540000000  0.5768610000000 1.0
C      1  0.4727690000000  0.4021580000000  0.5096130000000 1.0
C      1  0.4599730000000  0.4201710000000  0.4914620000000 1.0
C      1  0.4678590000000  0.4552020000000  0.3824150000000 1.0
C      1  0.4778090000000  0.6033940000000  0.4555990000000 1.0
C      1  0.5988510000000  0.4982460000000  0.5890150000000 1.0
C      1  0.5746060000000  0.5095990000000  0.4434030000000 1.0
C      1  0.5556380000000  0.5435280000000  0.4119180000000 1.0
C      1  0.3911450000000  0.4739330000000  0.4684380000000 1.0
C      1  0.5700640000000  0.5183700000000  0.4164170000000 1.0
C      1  0.5006580000000  0.5205090000000  0.3636930000000 1.0
C      1  0.5034270000000  0.6129340000000  0.5089210000000 1.0
C      1  0.5618350000000  0.5213590000000  0.5713510000000 1.0
C      1  0.5134200000000  0.4991890000000  0.5729850000000 1.0
C      1  0.5316720000000  0.4194450000000  0.3990260000000 1.0
C      1  0.6177440000000  0.5094490000000  0.5730700000000 1.0
C      1  0.5658280000000  0.5904820000000  0.5054310000000 1.0
C      1  0.5803570000000  0.5879790000000  0.5507910000000 1.0
C      1  0.5183120000000  0.4940160000000  0.6308180000000 1.0
C      1  0.4308680000000  0.5003290000000  0.5042330000000 1.0
C      1  0.4740080000000  0.5111950000000  0.4341080000000 1.0
C      1  0.4903010000000  0.4687650000000  0.5329450000000 1.0
C      1  0.4622520000000  0.5910330000000  0.5193010000000 1.0
C      1  0.3993320000000  0.5012180000000  0.4658780000000 1.0
C      1  0.5058780000000  0.5067330000000  0.4774370000000 1.0
C      1  0.5566820000000  0.4518670000000  0.6009730000000 1.0
C      1  0.5413910000000  0.5897120000000  0.4905760000000 1.0
C      1  0.5390270000000  0.4427220000000  0.4698250000000 1.0
C      1  0.4068220000000  0.5494840000000  0.4101720000000 1.0
C      1  0.3862780000000  0.5256540000000  0.4728720000000 1.0
C      1  0.5533340000000  0.4188220000000  0.5409510000000 1.0
C      1  0.4858770000000  0.4577110000000  0.6098220000000 1.0
C      1  0.4748760000000  0.4076860000000  0.5381050000000 1.0
C      1  0.4684510000000  0.5684210000000  0.6028760000000 1.0
C      1  0.4762870000000  0.4644690000000  0.4289390000000 1.0
C      1  0.4799880000000  0.4308120000000  0.6002590000000 1.0
C      1  0.5203620000000  0.5868160000000  0.5811940000000 1.0
C      1  0.5057120000000  0.4699890000000  0.6268230000000 1.0
C      1  0.4829810000000  0.4968330000000  0.5386940000000 1.0
C      1  0.5473080000000  0.4282490000000  0.6091520000000 1.0
C      1  0.5160500000000  0.5454000000000  0.6136880000000 1.0
C      1  0.4459440000000  0.4731010000000  0.5884440000000 1.0
C      1  0.4248210000000  0.5903340000000  0.4308260000000 1.0
C      1  0.6081740000000  0.5353970000000  0.5296460000000 1.0
C      1  0.4878760000000  0.4994570000000  0.5878770000000 1.0
C      1  0.5250540000000  0.4873330000000  0.4294540000000 1.0
C      1  0.4178530000000  0.5241750000000  0.4045000000000 1.0
C      1  0.4697790000000  0.4487830000000  0.4934610000000 1.0
C      1  0.5638930000000  0.5558120000000  0.4584500000000 1.0
C      1  0.5397050000000  0.5450080000000  0.3886750000000 1.0
C      1  0.5331070000000  0.5614640000000  0.5925660000000 1.0
C      1  0.3865510000000  0.5497220000000  0.4299190000000 1.0
C      1  0.5786620000000  0.5403840000000  0.5247720000000 1.0
C      1  0.4939110000000  0.4881730000000  0.4297150000000 1.0
C      1  0.5100590000000  0.4547120000000  0.5557170000000 1.0
C      1  0.4274150000000  0.5023830000000  0.4193290000000 1.0
C      1  0.5215860000000  0.5708910000000  0.4403920000000 1.0
C      1  0.6030450000000  0.5875820000000  0.4609390000000 1.0
C      1  0.5818350000000  0.5677890000000  0.5018630000000 1.0
C      1  0.5171990000000  0.3913150000000  0.5249910000000 1.0
C      1  0.4027500000000  0.5411500000000  0.5781680000000 1.0
C      1  0.4385750000000  0.5975350000000  0.5329320000000 1.0
C      1  0.4777740000000  0.5021100000000  0.4790770000000 1.0
C      1  0.4629310000000  0.4605210000000  0.5203760000000 1.0
C      1  0.4022260000000  0.5109830000000  0.5159630000000 1.0
C      1  0.4693120000000  0.5200900000000  0.5318940000000 1.0
C      1  0.5501750000000  0.5625130000000  0.4340190000000 1.0
C      1  0.4318790000000  0.5487680000000  0.5157190000000 1.0
C      1  0.6212410000000  0.5236330000000  0.5503430000000 1.0
C      1  0.4409150000000  0.4159630000000  0.4706030000000 1.0
C      1  0.3916590000000  0.5322270000000  0.5005610000000 1.0
C      1  0.4514450000000  0.4248800000000  0.4199260000000 1.0
C      1  0.4644180000000  0.5265900000000  0.4872940000000 1.0
C      1  0.4195950000000  0.4750870000000  0.4207070000000 1.0
C      1  0.4825300000000  0.5432720000000  0.5392170000000 1.0
C      1  0.6081090000000  0.4719430000000  0.4235920000000 1.0
C      1  0.4722930000000  0.4775340000000  0.5950600000000 1.0
C      1  0.5972050000000  0.4771930000000  0.5254510000000 1.0
C      1  0.3909030000000  0.5499070000000  0.4575150000000 1.0
C      1  0.5845550000000  0.4698460000000  0.4076050000000 1.0
C      1  0.4023210000000  0.4934220000000  0.5868970000000 1.0
C      1  0.5080350000000  0.4154850000000  0.4826640000000 1.0
C      1  0.4995360000000  0.4116940000000  0.6072420000000 1.0
C      1  0.5815790000000  0.4624740000000  0.4858880000000 1.0
C      1  0.4527250000000  0.4187800000000  0.5520270000000 1.0
C      1  0.5452170000000  0.3940150000000  0.5288320000000 1.0
C      1  0.4288520000000  0.4602220000000  0.4436570000000 1.0
C      1  0.5200120000000  0.5363180000000  0.3729410000000 1.0
C      1  0.4180990000000  0.5575520000000  0.5929180000000 1.0
C      1  0.5362900000000  0.5956630000000  0.5401910000000 1.0
C      1  0.6199690000000  0.4747100000000  0.4478870000000 1.0
C      1  0.4870920000000  0.6016760000000  0.5307930000000 1.0
C      1  0.6036410000000  0.4780950000000  0.4959500000000 1.0
C      1  0.4843770000000  0.4995800000000  0.3610040000000 1.0
C      1  0.4446090000000  0.5079510000000  0.4425290000000 1.0
C      1  0.3840390000000  0.4270390000000  0.5167830000000 1.0
C      1  0.4098260000000  0.4526930000000  0.4642970000000 1.0
C      1  0.4021180000000  0.5030990000000  0.5428650000000 1.0
C      1  0.5187210000000  0.4037300000000  0.4589250000000 1.0
C      1  0.4177430000000  0.6067730000000  0.5455800000000 1.0
C      1  0.5736870000000  0.5620960000000  0.5569000000000 1.0
C      1  0.4857220000000  0.5465480000000  0.6125630000000 1.0
C      1  0.4826930000000  0.5384230000000  0.4359520000000 1.0
C      1  0.3965200000000  0.5154120000000  0.5688210000000 1.0
C      1  0.5980590000000  0.4504120000000  0.5376100000000 1.0
C      1  0.5244060000000  0.5202350000000  0.6259030000000 1.0
C      1  0.5105010000000  0.4669360000000  0.5087220000000 1.0
C      1  0.5260770000000  0.4121050000000  0.6111460000000 1.0
C      1  0.4221090000000  0.4762170000000  0.5751860000000 1.0
C      1  0.4116280000000  0.4267690000000  0.5103630000000 1.0
C      1  0.4951790000000  0.5921200000000  0.5649770000000 1.0
C      1  0.4295390000000  0.4232320000000  0.5340390000000 1.0
C      1  0.4890700000000  0.5427010000000  0.5675380000000 1.0
C      1  0.4382450000000  0.4763170000000  0.5231700000000 1.0
C      1  0.4639300000000  0.5532230000000  0.4781150000000 1.0
C      1  0.5978530000000  0.5135340000000  0.4608190000000 1.0
C      1  0.4668260000000  0.4737500000000  0.4752430000000 1.0
C      1  0.4272420000000  0.5881300000000  0.4591480000000 1.0
C      1  0.5028790000000  0.4073410000000  0.5456930000000 1.0
C      1  0.5536820000000  0.4900050000000  0.4505960000000 1.0
C      1  0.5182330000000  0.6057020000000  0.4844630000000 1.0
C      1  0.5200530000000  0.4928610000000  0.4969920000000 1.0
C      1  0.4518990000000  0.4092110000000  0.4441470000000 1.0
C      1  0.5059070000000  0.5566350000000  0.4986490000000 1.0
C      1  0.4209950000000  0.4799760000000  0.5466080000000 1.0
C      1  0.5119420000000  0.4034600000000  0.4115700000000 1.0
C      1  0.5089310000000  0.5444970000000  0.4432210000000 1.0
C      1  0.5747660000000  0.4433010000000  0.4040410000000 1.0
C      1  0.5023430000000  0.5572530000000  0.5256420000000 1.0
C      1  0.5777190000000  0.4317930000000  0.5289280000000 1.0
C      1  0.5901120000000  0.5632310000000  0.4727310000000 1.0
C      1  0.5461400000000  0.3986860000000  0.4540130000000 1.0
C      1  0.5013360000000  0.3976350000000  0.4371630000000 1.0
C      1  0.4598800000000  0.4253590000000  0.5795360000000 1.0
C      1  0.4998390000000  0.4435670000000  0.4907830000000 1.0
C      1  0.5483080000000  0.4979530000000  0.4961160000000 1.0
C      1  0.5203220000000  0.4290040000000  0.5530820000000 1.0
C      1  0.5577030000000  0.5241200000000  0.4981610000000 1.0
C      1  0.6063150000000  0.5389320000000  0.4687850000000 1.0
C      1  0.5489090000000  0.4735440000000  0.5383260000000 1.0
C      1  0.5060990000000  0.5969090000000  0.4582510000000 1.0
C      1  0.5461350000000  0.4395350000000  0.4962370000000 1.0
C      1  0.5003630000000  0.3958130000000  0.5020290000000 1.0
C      1  0.5274670000000  0.4669030000000  0.3839990000000 1.0
C      1  0.5378010000000  0.4843260000000  0.4032830000000 1.0
C      1  0.5580630000000  0.4215040000000  0.4106760000000 1.0
C      1  0.5723680000000  0.4900270000000  0.5349690000000 1.0
C      1  0.4484550000000  0.5238970000000  0.5119010000000 1.0
C      1  0.5210020000000  0.5272440000000  0.4631510000000 1.0
C      1  0.5624400000000  0.4059500000000  0.4338160000000 1.0
C      1  0.5452290000000  0.5409280000000  0.4771090000000 1.0
C      1  0.5657460000000  0.4922620000000  0.4027980000000 1.0
C      1  0.4208950000000  0.5739820000000  0.4096410000000 1.0
C      1  0.5226780000000  0.5723460000000  0.5380130000000 1.0
C      1  0.4284070000000  0.5038140000000  0.4687000000000 1.0
C      1  0.5309230000000  0.5633570000000  0.4891220000000 1.0
C      1  0.4089170000000  0.5687090000000  0.4727190000000 1.0
C      1  0.5683030000000  0.5169040000000  0.5432580000000 1.0
C      1  0.5157210000000  0.5268250000000  0.5645080000000 1.0
C      1  0.4606840000000  0.5789950000000  0.4925060000000 1.0
C      1  0.5314710000000  0.4760250000000  0.5642860000000 1.0
C      1  0.3588170000000  0.4296400000000  0.5227930000000 1.0
C      1  0.4744420000000  0.3918160000000  0.4432270000000 1.0
C      1  0.4645050000000  0.5547220000000  0.4496760000000 1.0
C      1  0.5704290000000  0.4989470000000  0.5871440000000 1.0
C      1  0.4174150000000  0.4302930000000  0.4809830000000 1.0
C      1  0.4788500000000  0.5712100000000  0.5755970000000 1.0
C      1  0.4673310000000  0.4461630000000  0.4088640000000 1.0
C      1  0.4793460000000  0.5264140000000  0.5917750000000 1.0
C      1  0.6126410000000  0.4906560000000  0.4706250000000 1.0
C      1  0.5245340000000  0.4403550000000  0.3816700000000 1.0
C      1  0.4534600000000  0.5961690000000  0.4700400000000 1.0
C      1  0.4731310000000  0.4760380000000  0.3665400000000 1.0
C      1  0.5740630000000  0.4383310000000  0.5002190000000 1.0
C      1  0.4093120000000  0.5561160000000  0.4998250000000 1.0
C      1  0.4402870000000  0.5674330000000  0.6045170000000 1.0
C      1  0.5534370000000  0.4754260000000  0.5861480000000 1.0
C      1  0.5367700000000  0.4565470000000  0.5176940000000 1.0
C      1  0.5629180000000  0.5998030000000  0.5321150000000 1.0
END
