TITL C-3201379-3821-2149 -522.963223313341 125000 -884.691736982251 0 0 145 (C1) n - 1
REM
REM in /home/nfs/bkarasulu/CARBON/AIRSS/Generating-Clusters/LCBOP/Higher-Symm/SD-CG/FIRE-CG
REM
REM
REM
REM
REM
REM ./C.cell (b20cbc046b6831c77cfcea5457e17084)
REM AIRSS Version 0.9.1 bugfix July 2018 build 013d7b7c2542+ Fri, 06 Jul 2018 19:26:36 +0100
REM compiler GCC version 9.2.1 20190827 (Red Hat 9.2.1-1)
REM options -cpp -mtune=generic -march=x86-64 -g -O0 -fpre-include=/usr/include/finclude/math-vector-fortran.h
REM seed -2065390779 1712801656 196324334 -1096286425 285104988 1907122330 1000614524 1578005593 1852871617 -955064831 -471518210 1960643540 409454069 1385554720 -677401680 622795130 172378660 -1714248263 -54271649 527346206 -543291911 -1023226275 2022866996 69595106 -1289384137 -816135899 -1437458167 -1133971909 -150455780 -1363239431 -21716648 319850819 -1237414912
REM
CELL 1.54180   50.00000   50.00000   50.00000   90.00000   90.00000   90.00000
LATT -1
SFAC C  
C      1  0.6119870000000  0.5263790000000  0.4487380000000 1.0
C      1  0.4885690000000  0.5279930000000  0.6209730000000 1.0
C      1  0.3984800000000  0.5256210000000  0.4295870000000 1.0
C      1  0.5802980000000  0.5691940000000  0.5575250000000 1.0
C      1  0.4147900000000  0.5694650000000  0.5391320000000 1.0
C      1  0.5159520000000  0.5723590000000  0.4033970000000 1.0
C      1  0.5217820000000  0.5750080000000  0.4530880000000 1.0
C      1  0.5336210000000  0.5762790000000  0.5433390000000 1.0
C      1  0.4499010000000  0.5714620000000  0.5038180000000 1.0
C      1  0.4226030000000  0.5460150000000  0.5533080000000 1.0
C      1  0.4975570000000  0.5507350000000  0.4002850000000 1.0
C      1  0.5856120000000  0.5447210000000  0.5440600000000 1.0
C      1  0.5824620000000  0.4419470000000  0.4251100000000 1.0
C      1  0.5235390000000  0.4410280000000  0.6088650000000 1.0
C      1  0.3944780000000  0.4409120000000  0.4674140000000 1.0
C      1  0.4276740000000  0.4213970000000  0.4972300000000 1.0
C      1  0.5400090000000  0.4228190000000  0.4388060000000 1.0
C      1  0.5345170000000  0.4200210000000  0.5661330000000 1.0
C      1  0.4833970000000  0.5520840000000  0.6061210000000 1.0
C      1  0.4147470000000  0.5494440000000  0.4308020000000 1.0
C      1  0.6011420000000  0.5489500000000  0.4629710000000 1.0
C      1  0.4524140000000  0.4456890000000  0.5633910000000 1.0
C      1  0.4703610000000  0.4478520000000  0.4275730000000 1.0
C      1  0.5755610000000  0.4510190000000  0.5103780000000 1.0
C      1  0.3798130000000  0.5244020000000  0.4513100000000 1.0
C      1  0.6035320000000  0.5260090000000  0.4213330000000 1.0
C      1  0.5159350000000  0.5268510000000  0.6298660000000 1.0
C      1  0.4538990000000  0.5322010000000  0.4734080000000 1.0
C      1  0.5237630000000  0.5355920000000  0.4812320000000 1.0
C      1  0.5061620000000  0.5410040000000  0.5282510000000 1.0
C      1  0.5058960000000  0.5243690000000  0.4079830000000 1.0
C      1  0.5723760000000  0.5209400000000  0.5515790000000 1.0
C      1  0.4228350000000  0.5210250000000  0.5398810000000 1.0
C      1  0.5135710000000  0.4633220000000  0.4412370000000 1.0
C      1  0.5413290000000  0.4606010000000  0.5429200000000 1.0
C      1  0.4470090000000  0.4617800000000  0.5181920000000 1.0
C      1  0.5986630000000  0.4644220000000  0.5217570000000 1.0
C      1  0.4319280000000  0.4605740000000  0.5775250000000 1.0
C      1  0.4683330000000  0.4630060000000  0.4025820000000 1.0
C      1  0.4693150000000  0.5824250000000  0.4865490000000 1.0
C      1  0.5297720000000  0.5831000000000  0.4802950000000 1.0
C      1  0.5063810000000  0.5857040000000  0.5363260000000 1.0
C      1  0.3895580000000  0.4552770000000  0.5136030000000 1.0
C      1  0.5451720000000  0.4564820000000  0.3975360000000 1.0
C      1  0.5669980000000  0.4546020000000  0.5916380000000 1.0
C      1  0.5667650000000  0.5540920000000  0.4309280000000 1.0
C      1  0.5290120000000  0.5542880000000  0.5935390000000 1.0
C      1  0.4052300000000  0.5547730000000  0.4766650000000 1.0
C      1  0.4667100000000  0.4686620000000  0.4989350000000 1.0
C      1  0.5159070000000  0.4722490000000  0.4679590000000 1.0
C      1  0.5151420000000  0.4673970000000  0.5352620000000 1.0
C      1  0.4355310000000  0.4883780000000  0.4719410000000 1.0
C      1  0.5542150000000  0.4944630000000  0.4596590000000 1.0
C      1  0.5055980000000  0.4875860000000  0.5760940000000 1.0
C      1  0.4439600000000  0.4413040000000  0.5366740000000 1.0
C      1  0.4981710000000  0.4427550000000  0.4309970000000 1.0
C      1  0.5595130000000  0.4425890000000  0.5323670000000 1.0
C      1  0.5222970000000  0.5466350000000  0.4553990000000 1.0
C      1  0.5291250000000  0.5480360000000  0.5434850000000 1.0
C      1  0.4447220000000  0.5445090000000  0.4967460000000 1.0
C      1  0.5330510000000  0.5008730000000  0.5700920000000 1.0
C      1  0.4245950000000  0.5000530000000  0.4974830000000 1.0
C      1  0.5395600000000  0.5042670000000  0.4350460000000 1.0
C      1  0.4806120000000  0.5339730000000  0.5356220000000 1.0
C      1  0.4706110000000  0.5314590000000  0.4516190000000 1.0
C      1  0.5430080000000  0.5283830000000  0.4999240000000 1.0
C      1  0.5958240000000  0.4707360000000  0.5502380000000 1.0
C      1  0.4100900000000  0.4698610000000  0.5602480000000 1.0
C      1  0.4939600000000  0.4713060000000  0.3905150000000 1.0
C      1  0.5865110000000  0.5475430000000  0.5160480000000 1.0
C      1  0.4463480000000  0.5502600000000  0.5678590000000 1.0
C      1  0.4720570000000  0.5576230000000  0.4105650000000 1.0
C      1  0.5220530000000  0.4830630000000  0.4235210000000 1.0
C      1  0.5520920000000  0.4800290000000  0.5596640000000 1.0
C      1  0.4260390000000  0.4800720000000  0.5191710000000 1.0
C      1  0.5594560000000  0.5076150000000  0.4122920000000 1.0
C      1  0.5460010000000  0.5061680000000  0.5976310000000 1.0
C      1  0.3949670000000  0.5060440000000  0.4935390000000 1.0
C      1  0.4923590000000  0.5132910000000  0.4526360000000 1.0
C      1  0.5351200000000  0.5093500000000  0.5202410000000 1.0
C      1  0.4684330000000  0.5136490000000  0.5197660000000 1.0
C      1  0.5633380000000  0.5485340000000  0.5004610000000 1.0
C      1  0.4707950000000  0.5528380000000  0.5545410000000 1.0
C      1  0.4669320000000  0.5565150000000  0.4380320000000 1.0
C      1  0.6158140000000  0.4781590000000  0.4427570000000 1.0
C      1  0.4966240000000  0.4840240000000  0.6029850000000 1.0
C      1  0.3922490000000  0.4772450000000  0.4297340000000 1.0
C      1  0.3810780000000  0.4817800000000  0.5026000000000 1.0
C      1  0.5591110000000  0.4830720000000  0.3962380000000 1.0
C      1  0.5610410000000  0.4814780000000  0.6044570000000 1.0
C      1  0.5549130000000  0.4383520000000  0.4190840000000 1.0
C      1  0.5436400000000  0.4359880000000  0.5891620000000 1.0
C      1  0.4032210000000  0.4371890000000  0.4942560000000 1.0
C      1  0.4175770000000  0.4928100000000  0.5445090000000 1.0
C      1  0.5048020000000  0.4953470000000  0.4026590000000 1.0
C      1  0.5779910000000  0.4928620000000  0.5543380000000 1.0
C      1  0.5214680000000  0.5850490000000  0.4268710000000 1.0
C      1  0.5583400000000  0.5847100000000  0.5533920000000 1.0
C      1  0.4308020000000  0.5825230000000  0.5213890000000 1.0
C      1  0.5356690000000  0.5305170000000  0.6094120000000 1.0
C      1  0.3898670000000  0.5296720000000  0.4774880000000 1.0
C      1  0.5759870000000  0.5307870000000  0.4160380000000 1.0
C      1  0.4513390000000  0.4934180000000  0.6137920000000 1.0
C      1  0.4257600000000  0.4946730000000  0.4009340000000 1.0
C      1  0.6230660000000  0.4954140000000  0.4864400000000 1.0
C      1  0.4368740000000  0.4746950000000  0.6012420000000 1.0
C      1  0.4453990000000  0.4774630000000  0.3957500000000 1.0
C      1  0.6168670000000  0.4787940000000  0.5062770000000 1.0
C      1  0.4550740000000  0.4677130000000  0.4717650000000 1.0
C      1  0.5441210000000  0.4729760000000  0.4758090000000 1.0
C      1  0.4973430000000  0.4671360000000  0.5574960000000 1.0
C      1  0.4046170000000  0.5001310000000  0.4183540000000 1.0
C      1  0.6189360000000  0.5008850000000  0.4593550000000 1.0
C      1  0.4778320000000  0.5024590000000  0.6141250000000 1.0
C      1  0.5182880000000  0.4548680000000  0.3853970000000 1.0
C      1  0.5903460000000  0.4535060000000  0.5736500000000 1.0
C      1  0.3928020000000  0.4537090000000  0.5427220000000 1.0
C      1  0.5022110000000  0.5645010000000  0.5874050000000 1.0
C      1  0.4230180000000  0.5646380000000  0.4549310000000 1.0
C      1  0.5756050000000  0.5622350000000  0.4574470000000 1.0
C      1  0.5260370000000  0.4180830000000  0.4641080000000 1.0
C      1  0.5188900000000  0.4157140000000  0.5413390000000 1.0
C      1  0.4566110000000  0.4160250000000  0.4959070000000 1.0
C      1  0.4905850000000  0.5735240000000  0.5607440000000 1.0
C      1  0.4523270000000  0.5745790000000  0.4556380000000 1.0
C      1  0.5583940000000  0.5701000000000  0.4812390000000 1.0
C      1  0.3903190000000  0.4560570000000  0.4458290000000 1.0
C      1  0.6030980000000  0.4570030000000  0.4327330000000 1.0
C      1  0.5061300000000  0.4605120000000  0.6153870000000 1.0
C      1  0.4976060000000  0.4131040000000  0.4662510000000 1.0
C      1  0.5302950000000  0.4145140000000  0.5144250000000 1.0
C      1  0.4734200000000  0.4126070000000  0.5196290000000 1.0
C      1  0.4812370000000  0.4435320000000  0.5599970000000 1.0
C      1  0.4604610000000  0.4451960000000  0.4551410000000 1.0
C      1  0.5561150000000  0.4501890000000  0.4884830000000 1.0
C      1  0.4393980000000  0.5215510000000  0.5135670000000 1.0
C      1  0.5168930000000  0.5247330000000  0.4373300000000 1.0
C      1  0.5412380000000  0.5218130000000  0.5486680000000 1.0
C      1  0.4901780000000  0.4212920000000  0.5419670000000 1.0
C      1  0.4705470000000  0.4220310000000  0.4708120000000 1.0
C      1  0.5389450000000  0.4257920000000  0.4889700000000 1.0
C      1  0.5130230000000  0.4899190000000  0.5182190000000 1.0
C      1  0.4863220000000  0.4926770000000  0.5029820000000 1.0
C      1  0.4974920000000  0.4942080000000  0.4739800000000 1.0
C      1  0.5015280000000  0.5863560000000  0.5011800000000 1.0
END
