TITL C-3201378-2706-504 -3.12344064713629e-07 125000 -528.105666607749 0 0 88 (C1) n - 1
REM
REM in /home/nfs/bkarasulu/CARBON/AIRSS/Generating-Clusters/LCBOP/Higher-Symm/SD-CG/FIRE-CG
REM
REM
REM
REM
REM
REM ./C.cell (b20cbc046b6831c77cfcea5457e17084)
REM AIRSS Version 0.9.1 bugfix July 2018 build 013d7b7c2542+ Fri, 06 Jul 2018 19:26:36 +0100
REM compiler GCC version 9.2.1 20190827 (Red Hat 9.2.1-1)
REM options -cpp -mtune=generic -march=x86-64 -g -O0 -fpre-include=/usr/include/finclude/math-vector-fortran.h
REM seed 310651947 812449850 1922128579 586550587 1195995104 1515644155 1435512249 -2114851364 -584948704 2076866374 -123760127 1903244022 -1031208695 1174643159 1632359835 120796543 335725563 -1160757412 -819883215 1022794866 20678432 -1015652941 1963628242 -549707821 -1358229940 -542731869 913875584 -423833804 967003284 2126903144 -573631367 -1596600140 -165409738
REM
CELL 1.54180   50.00000   50.00000   50.00000   90.00000   90.00000   90.00000
LATT -1
SFAC C  
C      1  0.5081410000000  0.4727150000000  0.6050490000000 1.0
C      1  0.4784810000000  0.4850250000000  0.3993530000000 1.0
C      1  0.5788850000000  0.4839630000000  0.5199470000000 1.0
C      1  0.4164580000000  0.4725100000000  0.4805660000000 1.0
C      1  0.5109760000000  0.4642380000000  0.5230510000000 1.0
C      1  0.4837850000000  0.4615820000000  0.4822020000000 1.0
C      1  0.4238540000000  0.4912740000000  0.5682370000000 1.0
C      1  0.5792850000000  0.4950840000000  0.4408050000000 1.0
C      1  0.5044360000000  0.5757890000000  0.4959500000000 1.0
C      1  0.5167450000000  0.5624370000000  0.5175210000000 1.0
C      1  0.4412560000000  0.5664540000000  0.5071260000000 1.0
C      1  0.5895490000000  0.5742460000000  0.4375330000000 1.0
C      1  0.4282150000000  0.4567320000000  0.4569030000000 1.0
C      1  0.5752390000000  0.4681370000000  0.5451360000000 1.0
C      1  0.5248620000000  0.4901270000000  0.5177610000000 1.0
C      1  0.4735810000000  0.4871370000000  0.4799860000000 1.0
C      1  0.4650600000000  0.4907480000000  0.5266140000000 1.0
C      1  0.5299160000000  0.4744530000000  0.4694320000000 1.0
C      1  0.4407940000000  0.5307720000000  0.5449120000000 1.0
C      1  0.5591380000000  0.5375510000000  0.4495850000000 1.0
C      1  0.5728920000000  0.4396340000000  0.5365340000000 1.0
C      1  0.4307760000000  0.4296760000000  0.4685800000000 1.0
C      1  0.5766010000000  0.5121370000000  0.5105800000000 1.0
C      1  0.4126260000000  0.5000190000000  0.4923640000000 1.0
C      1  0.5781540000000  0.5178770000000  0.4574900000000 1.0
C      1  0.4191800000000  0.5111710000000  0.5469000000000 1.0
C      1  0.5045200000000  0.4186130000000  0.5159650000000 1.0
C      1  0.4894260000000  0.4180760000000  0.4892370000000 1.0
C      1  0.5078810000000  0.5142820000000  0.5083070000000 1.0
C      1  0.4771430000000  0.5069010000000  0.5020760000000 1.0
C      1  0.4705760000000  0.4388390000000  0.4938470000000 1.0
C      1  0.5256080000000  0.4393160000000  0.5167700000000 1.0
C      1  0.4882840000000  0.4217590000000  0.4538520000000 1.0
C      1  0.4919890000000  0.4218150000000  0.5444270000000 1.0
C      1  0.5113520000000  0.5050870000000  0.5658010000000 1.0
C      1  0.4835360000000  0.5113370000000  0.4420030000000 1.0
C      1  0.5082650000000  0.4590950000000  0.4685550000000 1.0
C      1  0.4848370000000  0.4692440000000  0.5318970000000 1.0
C      1  0.5636930000000  0.4664800000000  0.5013050000000 1.0
C      1  0.4291990000000  0.4579910000000  0.5039720000000 1.0
C      1  0.4500980000000  0.5705470000000  0.4816060000000 1.0
C      1  0.6138270000000  0.5822930000000  0.4325330000000 1.0
C      1  0.5861710000000  0.5177640000000  0.4845160000000 1.0
C      1  0.4157840000000  0.4983030000000  0.5214120000000 1.0
C      1  0.5415300000000  0.5817030000000  0.4429350000000 1.0
C      1  0.4615840000000  0.5741660000000  0.5497960000000 1.0
C      1  0.4671970000000  0.5548160000000  0.4351710000000 1.0
C      1  0.5420060000000  0.5367580000000  0.5734830000000 1.0
C      1  0.5308350000000  0.5618480000000  0.5660830000000 1.0
C      1  0.4700000000000  0.5687190000000  0.4607810000000 1.0
C      1  0.5099210000000  0.5152560000000  0.4491870000000 1.0
C      1  0.4853950000000  0.5138050000000  0.5636320000000 1.0
C      1  0.4430150000000  0.4350450000000  0.4945650000000 1.0
C      1  0.5545070000000  0.4410470000000  0.5138340000000 1.0
C      1  0.5200010000000  0.4974840000000  0.6091710000000 1.0
C      1  0.4716490000000  0.5119150000000  0.3993780000000 1.0
C      1  0.5505370000000  0.4737500000000  0.5589390000000 1.0
C      1  0.4531620000000  0.4651050000000  0.4439970000000 1.0
C      1  0.5327340000000  0.5284740000000  0.4485850000000 1.0
C      1  0.4640240000000  0.5134770000000  0.5466200000000 1.0
C      1  0.5094530000000  0.4530420000000  0.5836760000000 1.0
C      1  0.4903230000000  0.4619900000000  0.4130270000000 1.0
C      1  0.4871440000000  0.4403510000000  0.5684240000000 1.0
C      1  0.5184120000000  0.4592250000000  0.4110910000000 1.0
C      1  0.5440190000000  0.4658400000000  0.4151660000000 1.0
C      1  0.4607560000000  0.4520800000000  0.5731420000000 1.0
C      1  0.5276410000000  0.5365790000000  0.5116160000000 1.0
C      1  0.4543710000000  0.5258470000000  0.4953870000000 1.0
C      1  0.4731420000000  0.5296320000000  0.4223740000000 1.0
C      1  0.5258400000000  0.5168970000000  0.5887130000000 1.0
C      1  0.5640150000000  0.5647670000000  0.4432410000000 1.0
C      1  0.4445730000000  0.5575510000000  0.5344420000000 1.0
C      1  0.5354080000000  0.4536520000000  0.5720220000000 1.0
C      1  0.4754000000000  0.4480740000000  0.4344020000000 1.0
C      1  0.4378970000000  0.5111080000000  0.4540620000000 1.0
C      1  0.5513480000000  0.5222840000000  0.5497450000000 1.0
C      1  0.4377830000000  0.4780340000000  0.5222500000000 1.0
C      1  0.5417090000000  0.4823180000000  0.4931650000000 1.0
C      1  0.5131950000000  0.5702130000000  0.5452410000000 1.0
C      1  0.4962920000000  0.5777090000000  0.4688650000000 1.0
C      1  0.4876310000000  0.5794930000000  0.5525110000000 1.0
C      1  0.5161760000000  0.5852140000000  0.4505230000000 1.0
C      1  0.5345150000000  0.4965290000000  0.5473950000000 1.0
C      1  0.4621030000000  0.4934210000000  0.4529250000000 1.0
C      1  0.4306510000000  0.5188040000000  0.4802400000000 1.0
C      1  0.5551140000000  0.5287410000000  0.5218200000000 1.0
C      1  0.4403170000000  0.4701780000000  0.5746690000000 1.0
C      1  0.5656040000000  0.4778260000000  0.4255090000000 1.0
END
