TITL C-3201374-830-444 0.00556340313069478 125000 -666.34026614645 0 0 109 (C1) n - 1
REM
REM in /home/nfs/bkarasulu/CARBON/AIRSS/Generating-Clusters/LCBOP/Higher-Symm/SD-CG/FIRE-CG
REM
REM
REM
REM
REM
REM ./C.cell (b20cbc046b6831c77cfcea5457e17084)
REM AIRSS Version 0.9.1 bugfix July 2018 build 013d7b7c2542+ Fri, 06 Jul 2018 19:26:36 +0100
REM compiler GCC version 9.2.1 20190827 (Red Hat 9.2.1-1)
REM options -cpp -mtune=generic -march=x86-64 -g -O0 -fpre-include=/usr/include/finclude/math-vector-fortran.h
REM seed 1130041477 73061455 -2005697290 -258883839 753440323 -1721592088 -1051263277 -563941724 -1221021099 -2065385077 -767692632 -320398006 -818063240 2039133429 552361731 -1123330322 754450000 1039032400 -1833382824 41952738 -1732101470 508024495 1663205127 314341836 -840004827 -1618655894 2115520657 1262652618 1170889427 1542913765 -234952963 1334971657 -1301515529
REM
CELL 1.54180   50.00000   50.00000   50.00000   90.00000   90.00000   90.00000
LATT -1
SFAC C  
C      1  0.5109240000000  0.5379460000000  0.5724310000000 1.0
C      1  0.5201100000000  0.4946420000000  0.5557910000000 1.0
C      1  0.4734990000000  0.5004780000000  0.5704650000000 1.0
C      1  0.3759550000000  0.4296170000000  0.4812260000000 1.0
C      1  0.4935870000000  0.6437090000000  0.4631690000000 1.0
C      1  0.6213570000000  0.4281450000000  0.4803310000000 1.0
C      1  0.4901830000000  0.3987610000000  0.4221750000000 1.0
C      1  0.4075380000000  0.5594140000000  0.4250240000000 1.0
C      1  0.5963890000000  0.5457780000000  0.4304540000000 1.0
C      1  0.5155350000000  0.3922860000000  0.4926380000000 1.0
C      1  0.4091030000000  0.5364050000000  0.4993290000000 1.0
C      1  0.5824130000000  0.5696380000000  0.5035380000000 1.0
C      1  0.4881640000000  0.6934510000000  0.4470730000000 1.0
C      1  0.6647060000000  0.3984220000000  0.4803260000000 1.0
C      1  0.3282910000000  0.4075270000000  0.4829340000000 1.0
C      1  0.5634580000000  0.5710920000000  0.4587690000000 1.0
C      1  0.5272160000000  0.4152460000000  0.4518560000000 1.0
C      1  0.4109330000000  0.5186700000000  0.4543730000000 1.0
C      1  0.4646980000000  0.4705230000000  0.4717490000000 1.0
C      1  0.4954010000000  0.5484260000000  0.4673670000000 1.0
C      1  0.5445290000000  0.4860200000000  0.4776950000000 1.0
C      1  0.4738310000000  0.6064370000000  0.4877410000000 1.0
C      1  0.6000590000000  0.4684670000000  0.4974240000000 1.0
C      1  0.4228250000000  0.4263230000000  0.4942940000000 1.0
C      1  0.4672210000000  0.3974010000000  0.4365430000000 1.0
C      1  0.4205680000000  0.5797360000000  0.4372050000000 1.0
C      1  0.6055440000000  0.5250640000000  0.4451650000000 1.0
C      1  0.4287060000000  0.4719330000000  0.5480360000000 1.0
C      1  0.5167010000000  0.5843620000000  0.5406010000000 1.0
C      1  0.5642330000000  0.4387140000000  0.5487930000000 1.0
C      1  0.5944750000000  0.4673180000000  0.5255280000000 1.0
C      1  0.4280290000000  0.4322160000000  0.5220240000000 1.0
C      1  0.4793430000000  0.6001200000000  0.5151430000000 1.0
C      1  0.5534140000000  0.4249230000000  0.4560110000000 1.0
C      1  0.4059470000000  0.4911640000000  0.4584420000000 1.0
C      1  0.5422620000000  0.5897630000000  0.4599480000000 1.0
C      1  0.5983610000000  0.4441750000000  0.4815500000000 1.0
C      1  0.4015210000000  0.4411250000000  0.4811350000000 1.0
C      1  0.4958230000000  0.6171820000000  0.4719560000000 1.0
C      1  0.5069800000000  0.4725920000000  0.4480730000000 1.0
C      1  0.4778370000000  0.5096520000000  0.4432770000000 1.0
C      1  0.5249040000000  0.5161050000000  0.4444260000000 1.0
C      1  0.5078660000000  0.6033340000000  0.5214940000000 1.0
C      1  0.5898210000000  0.4402890000000  0.5358750000000 1.0
C      1  0.4124480000000  0.4546280000000  0.5325430000000 1.0
C      1  0.5311890000000  0.5608800000000  0.5349910000000 1.0
C      1  0.5421730000000  0.4290480000000  0.5341100000000 1.0
C      1  0.4372250000000  0.4971200000000  0.5391870000000 1.0
C      1  0.4510270000000  0.4560920000000  0.5586830000000 1.0
C      1  0.4927730000000  0.5792590000000  0.5566340000000 1.0
C      1  0.5598730000000  0.4659690000000  0.5591630000000 1.0
C      1  0.4706160000000  0.4709430000000  0.5737940000000 1.0
C      1  0.4948390000000  0.5608560000000  0.5782140000000 1.0
C      1  0.5343810000000  0.4737280000000  0.5690190000000 1.0
C      1  0.3519260000000  0.4184920000000  0.4820580000000 1.0
C      1  0.4908820000000  0.6687800000000  0.4550450000000 1.0
C      1  0.6432000000000  0.4131550000000  0.4802750000000 1.0
C      1  0.4452020000000  0.5419210000000  0.5568050000000 1.0
C      1  0.5608350000000  0.5309050000000  0.5602710000000 1.0
C      1  0.4971760000000  0.4052980000000  0.5467000000000 1.0
C      1  0.5790590000000  0.4839070000000  0.5452510000000 1.0
C      1  0.4505540000000  0.4309070000000  0.5422320000000 1.0
C      1  0.4694260000000  0.5841960000000  0.5391330000000 1.0
C      1  0.5154310000000  0.4072320000000  0.4273100000000 1.0
C      1  0.4040520000000  0.5333050000000  0.4311250000000 1.0
C      1  0.5779560000000  0.5649360000000  0.4352400000000 1.0
C      1  0.4501090000000  0.4985760000000  0.5138190000000 1.0
C      1  0.5284040000000  0.5470910000000  0.5100410000000 1.0
C      1  0.5320120000000  0.4485020000000  0.5155250000000 1.0
C      1  0.5234190000000  0.4101230000000  0.5434730000000 1.0
C      1  0.4503970000000  0.5140830000000  0.5588120000000 1.0
C      1  0.5359670000000  0.5441840000000  0.5582210000000 1.0
C      1  0.5969440000000  0.5147520000000  0.4699340000000 1.0
C      1  0.4615070000000  0.4078550000000  0.4621370000000 1.0
C      1  0.4374360000000  0.5795680000000  0.4597450000000 1.0
C      1  0.4048370000000  0.4661640000000  0.4682340000000 1.0
C      1  0.5193190000000  0.6027800000000  0.4651200000000 1.0
C      1  0.5755280000000  0.4355470000000  0.4670250000000 1.0
C      1  0.4760810000000  0.4477050000000  0.4841290000000 1.0
C      1  0.4697550000000  0.5497650000000  0.4794750000000 1.0
C      1  0.5528890000000  0.5105460000000  0.4898810000000 1.0
C      1  0.5434840000000  0.4629000000000  0.4941400000000 1.0
C      1  0.4478460000000  0.4849570000000  0.4893910000000 1.0
C      1  0.5160690000000  0.5551130000000  0.4858920000000 1.0
C      1  0.4483390000000  0.5662850000000  0.5453050000000 1.0
C      1  0.5772270000000  0.5111740000000  0.5520080000000 1.0
C      1  0.4712980000000  0.4120720000000  0.5448360000000 1.0
C      1  0.4435610000000  0.5534770000000  0.4697380000000 1.0
C      1  0.5737610000000  0.5274650000000  0.4808370000000 1.0
C      1  0.4832070000000  0.4228910000000  0.4731300000000 1.0
C      1  0.4713160000000  0.5167780000000  0.5146650000000 1.0
C      1  0.5361440000000  0.5197560000000  0.5104640000000 1.0
C      1  0.5060460000000  0.4562950000000  0.5221020000000 1.0
C      1  0.6061690000000  0.4922030000000  0.4836660000000 1.0
C      1  0.4380540000000  0.4092190000000  0.4776300000000 1.0
C      1  0.4501430000000  0.6003590000000  0.4736840000000 1.0
C      1  0.5292900000000  0.4892740000000  0.4538150000000 1.0
C      1  0.4801050000000  0.4823500000000  0.4511030000000 1.0
C      1  0.4992700000000  0.5283260000000  0.4476800000000 1.0
C      1  0.5263440000000  0.5022730000000  0.5296660000000 1.0
C      1  0.4827710000000  0.4521350000000  0.5106470000000 1.0
C      1  0.4715530000000  0.5418040000000  0.5061150000000 1.0
C      1  0.4221260000000  0.5350940000000  0.4751770000000 1.0
C      1  0.5723380000000  0.5562060000000  0.4818350000000 1.0
C      1  0.5094000000000  0.4114730000000  0.4740870000000 1.0
C      1  0.4835260000000  0.5651610000000  0.6026310000000 1.0
C      1  0.5183010000000  0.4585400000000  0.5865290000000 1.0
C      1  0.4913710000000  0.4577570000000  0.5877660000000 1.0
C      1  0.5006340000000  0.5112510000000  0.5689920000000 1.0
END
