TITL C-3201379-3821-2270 56494.7122200828 125000 -848.811542896833 0 0 142 (C1) n - 1
REM
REM in /home/nfs/bkarasulu/CARBON/AIRSS/Generating-Clusters/LCBOP/Higher-Symm/SD-CG/FIRE-CG
REM
REM
REM
REM
REM
REM ./C.cell (b20cbc046b6831c77cfcea5457e17084)
REM AIRSS Version 0.9.1 bugfix July 2018 build 013d7b7c2542+ Fri, 06 Jul 2018 19:26:36 +0100
REM compiler GCC version 9.2.1 20190827 (Red Hat 9.2.1-1)
REM options -cpp -mtune=generic -march=x86-64 -g -O0 -fpre-include=/usr/include/finclude/math-vector-fortran.h
REM seed 1760399526 -582547471 -1028969185 -1181550044 2107279794 -53540681 -1999566199 1894872047 441154875 -2084607706 -196147437 613160399 -853799090 -1690190470 1812438784 388646617 -1909925836 985778519 254235385 111155860 215515981 -2035179083 1212570196 1167954854 -1766154016 -1482073990 -1913714309 -2080322004 -1540009848 1924318480 282901292 1515683048 1026335686
REM
CELL 1.54180   50.00000   50.00000   50.00000   90.00000   90.00000   90.00000
LATT -1
SFAC C  
C      1  0.5172380000000  0.6052970000000  0.4548220000000 1.0
C      1  0.4403320000000  0.5915000000000  0.5018840000000 1.0
C      1  0.5262060000000  0.5965240000000  0.5481030000000 1.0
C      1  0.5990910000000  0.4524700000000  0.4938310000000 1.0
C      1  0.4460390000000  0.4540960000000  0.4185660000000 1.0
C      1  0.4510310000000  0.4542760000000  0.5873520000000 1.0
C      1  0.3639520000000  0.4827510000000  0.5034710000000 1.0
C      1  0.5651700000000  0.4767500000000  0.6001130000000 1.0
C      1  0.5648130000000  0.4769490000000  0.3803990000000 1.0
C      1  0.5786120000000  0.4924800000000  0.4007430000000 1.0
C      1  0.3765610000000  0.4973900000000  0.4817600000000 1.0
C      1  0.5382200000000  0.4825940000000  0.5943280000000 1.0
C      1  0.4641610000000  0.5408930000000  0.4947900000000 1.0
C      1  0.5120030000000  0.5378970000000  0.5397980000000 1.0
C      1  0.5278820000000  0.5395790000000  0.4694900000000 1.0
C      1  0.4452400000000  0.4992400000000  0.6002690000000 1.0
C      1  0.6181880000000  0.4955990000000  0.4942130000000 1.0
C      1  0.4389180000000  0.4974800000000  0.4017670000000 1.0
C      1  0.5448030000000  0.5724580000000  0.4133580000000 1.0
C      1  0.4139190000000  0.5791600000000  0.5013510000000 1.0
C      1  0.5377440000000  0.5839200000000  0.5717540000000 1.0
C      1  0.4387280000000  0.5635640000000  0.5412050000000 1.0
C      1  0.5611970000000  0.5678060000000  0.5314240000000 1.0
C      1  0.4948600000000  0.5669640000000  0.4283280000000 1.0
C      1  0.5594240000000  0.5460410000000  0.5118530000000 1.0
C      1  0.4799370000000  0.5439890000000  0.4417020000000 1.0
C      1  0.4589110000000  0.5430630000000  0.5498540000000 1.0
C      1  0.4325440000000  0.4765150000000  0.5907740000000 1.0
C      1  0.6138270000000  0.4726240000000  0.5089030000000 1.0
C      1  0.4525320000000  0.4737530000000  0.3980430000000 1.0
C      1  0.5277370000000  0.5832920000000  0.5026730000000 1.0
C      1  0.4842150000000  0.5794100000000  0.4700180000000 1.0
C      1  0.4787770000000  0.5841530000000  0.5275340000000 1.0
C      1  0.3890630000000  0.4897130000000  0.4574790000000 1.0
C      1  0.5165490000000  0.4818870000000  0.6128070000000 1.0
C      1  0.5938620000000  0.4856180000000  0.4237200000000 1.0
C      1  0.4053800000000  0.4485160000000  0.4779570000000 1.0
C      1  0.5207200000000  0.4399140000000  0.5883040000000 1.0
C      1  0.5664030000000  0.4455550000000  0.4303040000000 1.0
C      1  0.5353190000000  0.5024410000000  0.4987690000000 1.0
C      1  0.4814080000000  0.5024040000000  0.4736110000000 1.0
C      1  0.4862260000000  0.4995880000000  0.5389450000000 1.0
C      1  0.4598540000000  0.5896220000000  0.4809440000000 1.0
C      1  0.4984270000000  0.5975470000000  0.5426580000000 1.0
C      1  0.5282940000000  0.5990630000000  0.4791360000000 1.0
C      1  0.5602580000000  0.5078840000000  0.5508350000000 1.0
C      1  0.5171930000000  0.5056050000000  0.4245770000000 1.0
C      1  0.4268990000000  0.5076140000000  0.5252440000000 1.0
C      1  0.5903560000000  0.5589070000000  0.4380450000000 1.0
C      1  0.4037650000000  0.5609800000000  0.4524660000000 1.0
C      1  0.5054880000000  0.5583070000000  0.6077980000000 1.0
C      1  0.5586490000000  0.5253880000000  0.4322200000000 1.0
C      1  0.4156220000000  0.5285780000000  0.4846200000000 1.0
C      1  0.5346880000000  0.5307850000000  0.5839910000000 1.0
C      1  0.5346520000000  0.5264140000000  0.5543360000000 1.0
C      1  0.5318140000000  0.5251590000000  0.4438090000000 1.0
C      1  0.4384270000000  0.5273740000000  0.5035740000000 1.0
C      1  0.3976690000000  0.5076090000000  0.5243660000000 1.0
C      1  0.5781140000000  0.5129410000000  0.5742610000000 1.0
C      1  0.5313310000000  0.5038970000000  0.3990220000000 1.0
C      1  0.4658220000000  0.4016240000000  0.5349900000000 1.0
C      1  0.5462020000000  0.4007370000000  0.5098530000000 1.0
C      1  0.4850690000000  0.4016750000000  0.4564380000000 1.0
C      1  0.5859480000000  0.4899000000000  0.5886010000000 1.0
C      1  0.5377120000000  0.4835720000000  0.3794750000000 1.0
C      1  0.3761230000000  0.4886750000000  0.5278700000000 1.0
C      1  0.4013540000000  0.5761250000000  0.4764580000000 1.0
C      1  0.5219380000000  0.5774270000000  0.5941930000000 1.0
C      1  0.5696990000000  0.5727950000000  0.4238410000000 1.0
C      1  0.5416090000000  0.4416860000000  0.5704100000000 1.0
C      1  0.5404200000000  0.4465440000000  0.4233800000000 1.0
C      1  0.4109900000000  0.4497710000000  0.5042140000000 1.0
C      1  0.4828250000000  0.5598220000000  0.5109620000000 1.0
C      1  0.5102720000000  0.5548010000000  0.5164530000000 1.0
C      1  0.5061930000000  0.5583830000000  0.4735940000000 1.0
C      1  0.4741960000000  0.5298650000000  0.4677350000000 1.0
C      1  0.4841080000000  0.5274900000000  0.5460880000000 1.0
C      1  0.5426260000000  0.5299530000000  0.4939030000000 1.0
C      1  0.5586020000000  0.5131630000000  0.4066720000000 1.0
C      1  0.3924760000000  0.5171610000000  0.4966400000000 1.0
C      1  0.5626520000000  0.5310790000000  0.5909480000000 1.0
C      1  0.5580520000000  0.4800670000000  0.5394010000000 1.0
C      1  0.5061180000000  0.4806520000000  0.4342710000000 1.0
C      1  0.4389580000000  0.4816430000000  0.5309350000000 1.0
C      1  0.4043850000000  0.5102430000000  0.4421760000000 1.0
C      1  0.4992360000000  0.5060010000000  0.6104010000000 1.0
C      1  0.6007000000000  0.5071020000000  0.4435820000000 1.0
C      1  0.4929910000000  0.3922460000000  0.4812590000000 1.0
C      1  0.4842560000000  0.3924540000000  0.5163190000000 1.0
C      1  0.5201790000000  0.3921850000000  0.5051410000000 1.0
C      1  0.4661650000000  0.4425030000000  0.4719530000000 1.0
C      1  0.4899240000000  0.4408660000000  0.5467240000000 1.0
C      1  0.5427280000000  0.4424690000000  0.4870180000000 1.0
C      1  0.4640540000000  0.4901270000000  0.4926680000000 1.0
C      1  0.5125300000000  0.4880960000000  0.5429690000000 1.0
C      1  0.5292030000000  0.4888640000000  0.4742400000000 1.0
C      1  0.4230720000000  0.4664390000000  0.4330660000000 1.0
C      1  0.4757430000000  0.4643570000000  0.5998210000000 1.0
C      1  0.5984400000000  0.4638150000000  0.4661210000000 1.0
C      1  0.5593090000000  0.4053030000000  0.5354030000000 1.0
C      1  0.5016710000000  0.4072730000000  0.4332780000000 1.0
C      1  0.4378180000000  0.4082450000000  0.5308720000000 1.0
C      1  0.4680940000000  0.4819170000000  0.5226160000000 1.0
C      1  0.5333590000000  0.4822170000000  0.5211050000000 1.0
C      1  0.5011250000000  0.4821130000000  0.4639170000000 1.0
C      1  0.5614960000000  0.5700310000000  0.5606270000000 1.0
C      1  0.5185080000000  0.5660900000000  0.4125270000000 1.0
C      1  0.4129290000000  0.5638140000000  0.5268140000000 1.0
C      1  0.4639900000000  0.4221000000000  0.4530010000000 1.0
C      1  0.4727640000000  0.4209600000000  0.5563240000000 1.0
C      1  0.5597150000000  0.4211550000000  0.4933020000000 1.0
C      1  0.3997170000000  0.5715940000000  0.4277280000000 1.0
C      1  0.4854380000000  0.5654780000000  0.6247890000000 1.0
C      1  0.6127360000000  0.5711520000000  0.4475460000000 1.0
C      1  0.4402700000000  0.4825350000000  0.4814420000000 1.0
C      1  0.5240820000000  0.4848900000000  0.5688870000000 1.0
C      1  0.5509300000000  0.4815120000000  0.4596570000000 1.0
C      1  0.5119770000000  0.5310490000000  0.6015960000000 1.0
C      1  0.5848260000000  0.5311270000000  0.4415240000000 1.0
C      1  0.4112080000000  0.5338900000000  0.4569460000000 1.0
C      1  0.5887720000000  0.4606620000000  0.4386760000000 1.0
C      1  0.4033430000000  0.4640550000000  0.4545200000000 1.0
C      1  0.5030240000000  0.4563800000000  0.6043380000000 1.0
C      1  0.4941310000000  0.4328310000000  0.4204550000000 1.0
C      1  0.4303900000000  0.4331970000000  0.5447850000000 1.0
C      1  0.5740040000000  0.4311410000000  0.5355690000000 1.0
C      1  0.4731180000000  0.4943630000000  0.6054190000000 1.0
C      1  0.6081550000000  0.4929410000000  0.4675000000000 1.0
C      1  0.4209930000000  0.4956510000000  0.4240040000000 1.0
C      1  0.4512200000000  0.5872200000000  0.5286240000000 1.0
C      1  0.5426850000000  0.5896560000000  0.5249770000000 1.0
C      1  0.4941410000000  0.5911220000000  0.4451160000000 1.0
C      1  0.4650430000000  0.4348330000000  0.4264660000000 1.0
C      1  0.4489190000000  0.4342600000000  0.5676740000000 1.0
C      1  0.5827960000000  0.4335310000000  0.5070930000000 1.0
C      1  0.4834250000000  0.4560850000000  0.5241690000000 1.0
C      1  0.5273490000000  0.4567170000000  0.5056950000000 1.0
C      1  0.4898910000000  0.4567150000000  0.4767940000000 1.0
C      1  0.5128960000000  0.4543100000000  0.4234470000000 1.0
C      1  0.4248020000000  0.4559590000000  0.5283940000000 1.0
C      1  0.5607200000000  0.4521530000000  0.5503760000000 1.0
C      1  0.5001370000000  0.4521720000000  0.5023750000000 1.0
END
