TITL C-3201373-1215-1212 0.0165890502036718 125000 -366.164131561513 0 0 68 (C1) n - 1
REM
REM in /home/nfs/bkarasulu/CARBON/AIRSS/Generating-Clusters/LCBOP/Higher-Symm/SD-CG/FIRE-CG
REM
REM
REM
REM
REM
REM ./C.cell (b20cbc046b6831c77cfcea5457e17084)
REM AIRSS Version 0.9.1 bugfix July 2018 build 013d7b7c2542+ Fri, 06 Jul 2018 19:26:36 +0100
REM compiler GCC version 9.2.1 20190827 (Red Hat 9.2.1-1)
REM options -cpp -mtune=generic -march=x86-64 -g -O0 -fpre-include=/usr/include/finclude/math-vector-fortran.h
REM seed 655096006 -1086527798 -198229769 789649972 -795189605 1032894785 1779246706 2002713772 388935076 371509832 1174792818 -2138760300 -657683609 1808893006 222965850 -2078064802 -768541252 -1907205333 -999422780 -380402408 1288138962 -232714629 1051664798 1948308291 277073461 -298883344 2147264736 1853960502 -1098019065 -81601451 -2025095819 1710479199 104920492
REM
CELL 1.54180   50.00000   50.00000   50.00000   90.00000   90.00000   90.00000
LATT -1
SFAC C  
C      1  0.4980430000000  0.5299560000000  0.4801480000000 1.0
C      1  0.4726130000000  0.4863440000000  0.4802730000000 1.0
C      1  0.5226560000000  0.4866750000000  0.4801440000000 1.0
C      1  0.4982070000000  0.5299850000000  0.5249110000000 1.0
C      1  0.4727690000000  0.4863720000000  0.5250410000000 1.0
C      1  0.5227870000000  0.4866950000000  0.5247940000000 1.0
C      1  0.4496690000000  0.5523050000000  0.5427320000000 1.0
C      1  0.4792900000000  0.4322070000000  0.5426450000000 1.0
C      1  0.5678870000000  0.5164400000000  0.5421830000000 1.0
C      1  0.4493540000000  0.5522580000000  0.4626700000000 1.0
C      1  0.4789820000000  0.4321630000000  0.4626950000000 1.0
C      1  0.5675210000000  0.5163500000000  0.4623960000000 1.0
C      1  0.4337750000000  0.5453390000000  0.4873950000000 1.0
C      1  0.4932220000000  0.4226630000000  0.4872990000000 1.0
C      1  0.5693920000000  0.5338190000000  0.4868780000000 1.0
C      1  0.4338940000000  0.5453580000000  0.5181380000000 1.0
C      1  0.4933320000000  0.4226710000000  0.5179400000000 1.0
C      1  0.5695220000000  0.5338500000000  0.5176430000000 1.0
C      1  0.4964070000000  0.4452490000000  0.5631320000000 1.0
C      1  0.5482660000000  0.5252100000000  0.5628090000000 1.0
C      1  0.4520600000000  0.5308600000000  0.5632100000000 1.0
C      1  0.4959340000000  0.4451730000000  0.4420540000000 1.0
C      1  0.5477760000000  0.5251170000000  0.4418910000000 1.0
C      1  0.4515830000000  0.5307880000000  0.4421990000000 1.0
C      1  0.4484710000000  0.5005580000000  0.4876640000000 1.0
C      1  0.5236770000000  0.4586770000000  0.4873750000000 1.0
C      1  0.5229560000000  0.5431400000000  0.4872870000000 1.0
C      1  0.4485790000000  0.5005760000000  0.5178040000000 1.0
C      1  0.5237590000000  0.4586920000000  0.5175730000000 1.0
C      1  0.5230710000000  0.5431550000000  0.5175700000000 1.0
C      1  0.5465210000000  0.5536880000000  0.4483160000000 1.0
C      1  0.4274650000000  0.5154800000000  0.4487900000000 1.0
C      1  0.5216830000000  0.4327950000000  0.4485310000000 1.0
C      1  0.5469290000000  0.5537680000000  0.5563470000000 1.0
C      1  0.4278900000000  0.5155430000000  0.5568270000000 1.0
C      1  0.5221050000000  0.4328630000000  0.5564650000000 1.0
C      1  0.5935790000000  0.4568940000000  0.5263210000000 1.0
C      1  0.4809010000000  0.5842840000000  0.5259690000000 1.0
C      1  0.4357660000000  0.4431080000000  0.5262390000000 1.0
C      1  0.6067810000000  0.4713510000000  0.4829630000000 1.0
C      1  0.4807300000000  0.5842500000000  0.4791380000000 1.0
C      1  0.4355830000000  0.4431000000000  0.4794010000000 1.0
C      1  0.5487100000000  0.5572400000000  0.4782710000000 1.0
C      1  0.4234600000000  0.5158630000000  0.4787980000000 1.0
C      1  0.5236610000000  0.4293320000000  0.4785100000000 1.0
C      1  0.5488910000000  0.5572740000000  0.5263700000000 1.0
C      1  0.4236450000000  0.5158930000000  0.5268500000000 1.0
C      1  0.5238360000000  0.4293600000000  0.5264780000000 1.0
C      1  0.5256280000000  0.5116420000000  0.5740710000000 1.0
C      1  0.4754060000000  0.5182310000000  0.5742360000000 1.0
C      1  0.4950670000000  0.4716320000000  0.5742730000000 1.0
C      1  0.5250540000000  0.5115490000000  0.4308030000000 1.0
C      1  0.4748390000000  0.5181400000000  0.4310120000000 1.0
C      1  0.4944990000000  0.4715400000000  0.4308880000000 1.0
C      1  0.5891600000000  0.4719910000000  0.5039010000000 1.0
C      1  0.4488180000000  0.4491960000000  0.5027670000000 1.0
C      1  0.4791450000000  0.5698660000000  0.5025710000000 1.0
C      1  0.5662630000000  0.4881050000000  0.5023900000000 1.0
C      1  0.4815820000000  0.5408510000000  0.5025820000000 1.0
C      1  0.4721950000000  0.4665210000000  0.5026720000000 1.0
C      1  0.4049730000000  0.5102050000000  0.5028990000000 1.0
C      1  0.5529800000000  0.5762240000000  0.5022910000000 1.0
C      1  0.5383430000000  0.4165250000000  0.5024470000000 1.0
C      1  0.4977260000000  0.5009620000000  0.5289750000000 1.0
C      1  0.4975470000000  0.5009260000000  0.4761320000000 1.0
C      1  0.4986640000000  0.5005580000000  0.5761380000000 1.0
C      1  0.4980780000000  0.5004620000000  0.4289570000000 1.0
C      1  0.5393790000000  0.4969230000000  0.5024150000000 1.0
END
