TITL C-3201374-830-566 0.012191139435774 125000 -975.511811621474 0 0 153 (C1) n - 1
REM
REM in /home/nfs/bkarasulu/CARBON/AIRSS/Generating-Clusters/LCBOP/Higher-Symm/SD-CG/FIRE-CG
REM
REM
REM
REM
REM
REM ./C.cell (b20cbc046b6831c77cfcea5457e17084)
REM AIRSS Version 0.9.1 bugfix July 2018 build 013d7b7c2542+ Fri, 06 Jul 2018 19:26:36 +0100
REM compiler GCC version 9.2.1 20190827 (Red Hat 9.2.1-1)
REM options -cpp -mtune=generic -march=x86-64 -g -O0 -fpre-include=/usr/include/finclude/math-vector-fortran.h
REM seed -1802757433 1735514993 644432722 -1822604806 -1874897946 -600187522 1969390661 -804151818 800113049 -1830466085 607345233 2101961935 1869260635 -120646760 -1095428339 -433310126 -1194983606 309111305 -201163625 1670387125 -1406360820 -1018773734 2079152672 1398969117 -903842999 1252710328 -798065079 1418227914 -871257189 1026552614 -1632096902 -591353868 1254237482
REM
CELL 1.54180   50.00000   50.00000   50.00000   90.00000   90.00000   90.00000
LATT -1
SFAC C  
C      1  0.4854730000000  0.5194820000000  0.5958360000000 1.0
C      1  0.4739190000000  0.4929860000000  0.5939200000000 1.0
C      1  0.4956810000000  0.4738910000000  0.5935130000000 1.0
C      1  0.5208810000000  0.4884970000000  0.5952580000000 1.0
C      1  0.5146270000000  0.5169130000000  0.5974050000000 1.0
C      1  0.4881340000000  0.5193730000000  0.4026620000000 1.0
C      1  0.4763030000000  0.4931230000000  0.4055090000000 1.0
C      1  0.4973670000000  0.4733750000000  0.4039800000000 1.0
C      1  0.5228460000000  0.4872850000000  0.3996090000000 1.0
C      1  0.5170850000000  0.5163440000000  0.3974440000000 1.0
C      1  0.4797580000000  0.4098260000000  0.5352160000000 1.0
C      1  0.5751360000000  0.4564770000000  0.5331270000000 1.0
C      1  0.5681260000000  0.5680610000000  0.5375100000000 1.0
C      1  0.4617430000000  0.5794500000000  0.5385470000000 1.0
C      1  0.4062080000000  0.4874110000000  0.5367010000000 1.0
C      1  0.4810570000000  0.4089430000000  0.4653320000000 1.0
C      1  0.5769010000000  0.4542160000000  0.4643830000000 1.0
C      1  0.5736820000000  0.5657480000000  0.4581870000000 1.0
C      1  0.4684900000000  0.5776250000000  0.4677020000000 1.0
C      1  0.4103550000000  0.4884410000000  0.4655610000000 1.0
C      1  0.4064710000000  0.6001310000000  0.4865890000000 1.0
C      1  0.3727930000000  0.4362000000000  0.4853710000000 1.0
C      1  0.5198970000000  0.3588660000000  0.4870110000000 1.0
C      1  0.6353110000000  0.4777270000000  0.4862650000000 1.0
C      1  0.5671350000000  0.6254110000000  0.4871760000000 1.0
C      1  0.4037590000000  0.6007210000000  0.5131930000000 1.0
C      1  0.3717320000000  0.4354650000000  0.5120870000000 1.0
C      1  0.5196570000000  0.3595020000000  0.5137530000000 1.0
C      1  0.6343990000000  0.4789650000000  0.5129690000000 1.0
C      1  0.5647330000000  0.6263650000000  0.5138450000000 1.0
C      1  0.5557690000000  0.4617610000000  0.5123160000000 1.0
C      1  0.5566910000000  0.5612090000000  0.5114180000000 1.0
C      1  0.4741360000000  0.5637670000000  0.5182550000000 1.0
C      1  0.4243760000000  0.4941750000000  0.5152310000000 1.0
C      1  0.4780410000000  0.4293550000000  0.5141480000000 1.0
C      1  0.5572440000000  0.4608480000000  0.4847360000000 1.0
C      1  0.5618870000000  0.5565230000000  0.4837610000000 1.0
C      1  0.4790100000000  0.5646600000000  0.4907440000000 1.0
C      1  0.4275800000000  0.4940880000000  0.4878210000000 1.0
C      1  0.4803870000000  0.4283840000000  0.4866310000000 1.0
C      1  0.4858040000000  0.5660500000000  0.5809980000000 1.0
C      1  0.4292950000000  0.5075180000000  0.5784660000000 1.0
C      1  0.4679360000000  0.4365940000000  0.5768290000000 1.0
C      1  0.5474980000000  0.4518090000000  0.5757670000000 1.0
C      1  0.5586170000000  0.5326770000000  0.5788550000000 1.0
C      1  0.4906330000000  0.5641660000000  0.4222640000000 1.0
C      1  0.4339850000000  0.5088590000000  0.4255840000000 1.0
C      1  0.4695920000000  0.4370790000000  0.4238850000000 1.0
C      1  0.5491720000000  0.4503220000000  0.4208940000000 1.0
C      1  0.5622070000000  0.5311980000000  0.4151840000000 1.0
C      1  0.6195380000000  0.4771530000000  0.4646540000000 1.0
C      1  0.5655300000000  0.6133190000000  0.4632750000000 1.0
C      1  0.4209710000000  0.5883220000000  0.4674780000000 1.0
C      1  0.3875410000000  0.4456880000000  0.4651630000000 1.0
C      1  0.5153960000000  0.3747530000000  0.4659530000000 1.0
C      1  0.6172170000000  0.4802030000000  0.5334460000000 1.0
C      1  0.5593830000000  0.6150800000000  0.5376450000000 1.0
C      1  0.4144100000000  0.5896920000000  0.5351300000000 1.0
C      1  0.3848060000000  0.4440100000000  0.5338220000000 1.0
C      1  0.5147780000000  0.3762370000000  0.5340440000000 1.0
C      1  0.4861960000000  0.4543790000000  0.4741160000000 1.0
C      1  0.5347010000000  0.4718750000000  0.4696380000000 1.0
C      1  0.5384480000000  0.5411270000000  0.4754650000000 1.0
C      1  0.4891040000000  0.5375490000000  0.4841870000000 1.0
C      1  0.4554840000000  0.4959710000000  0.4781340000000 1.0
C      1  0.4830520000000  0.4557860000000  0.5263200000000 1.0
C      1  0.5324790000000  0.4739420000000  0.5255300000000 1.0
C      1  0.5287590000000  0.5517220000000  0.5163070000000 1.0
C      1  0.4772800000000  0.5372750000000  0.5289240000000 1.0
C      1  0.4500710000000  0.4968020000000  0.5292520000000 1.0
C      1  0.4370120000000  0.4516200000000  0.4637880000000 1.0
C      1  0.5237810000000  0.4237610000000  0.4613890000000 1.0
C      1  0.5746530000000  0.4983730000000  0.4558630000000 1.0
C      1  0.5330830000000  0.5793340000000  0.4471880000000 1.0
C      1  0.4399940000000  0.5422730000000  0.4682350000000 1.0
C      1  0.4339450000000  0.4508130000000  0.5381470000000 1.0
C      1  0.5225440000000  0.4255350000000  0.5357570000000 1.0
C      1  0.5717600000000  0.5014220000000  0.5376220000000 1.0
C      1  0.5270700000000  0.5784800000000  0.5516950000000 1.0
C      1  0.4317230000000  0.5434780000000  0.5406050000000 1.0
C      1  0.5924730000000  0.4761340000000  0.4579300000000 1.0
C      1  0.5595210000000  0.5891240000000  0.4503570000000 1.0
C      1  0.4421000000000  0.5703950000000  0.4641750000000 1.0
C      1  0.4103130000000  0.4612650000000  0.4607150000000 1.0
C      1  0.5070020000000  0.4008180000000  0.4604710000000 1.0
C      1  0.5897690000000  0.4792790000000  0.5385100000000 1.0
C      1  0.5534820000000  0.5898360000000  0.5484780000000 1.0
C      1  0.4349440000000  0.5718950000000  0.5418190000000 1.0
C      1  0.4068800000000  0.4598710000000  0.5404020000000 1.0
C      1  0.5061050000000  0.4023630000000  0.5387350000000 1.0
C      1  0.4538690000000  0.5241780000000  0.5361710000000 1.0
C      1  0.4581020000000  0.4690320000000  0.5335600000000 1.0
C      1  0.5121230000000  0.4541940000000  0.5315250000000 1.0
C      1  0.5418410000000  0.4990180000000  0.5372370000000 1.0
C      1  0.5236200000000  0.5496110000000  0.5438760000000 1.0
C      1  0.4638050000000  0.5236740000000  0.4748840000000 1.0
C      1  0.4616410000000  0.4688280000000  0.4695490000000 1.0
C      1  0.5140270000000  0.4522010000000  0.4658880000000 1.0
C      1  0.5446760000000  0.4949440000000  0.4551900000000 1.0
C      1  0.5304150000000  0.5431760000000  0.4492970000000 1.0
C      1  0.5503680000000  0.4199950000000  0.5365650000000 1.0
C      1  0.5846710000000  0.5260990000000  0.5354520000000 1.0
C      1  0.5049590000000  0.5945820000000  0.5433940000000 1.0
C      1  0.4056130000000  0.5323590000000  0.5404400000000 1.0
C      1  0.4374470000000  0.4226810000000  0.5387160000000 1.0
C      1  0.5515060000000  0.4181760000000  0.4605790000000 1.0
C      1  0.5877460000000  0.5229910000000  0.4584780000000 1.0
C      1  0.5110170000000  0.5917870000000  0.4591780000000 1.0
C      1  0.4133550000000  0.5326140000000  0.4651000000000 1.0
C      1  0.4392810000000  0.4233710000000  0.4623490000000 1.0
C      1  0.4417590000000  0.5336580000000  0.5856730000000 1.0
C      1  0.4468100000000  0.4560680000000  0.5840190000000 1.0
C      1  0.5224120000000  0.4374080000000  0.5822910000000 1.0
C      1  0.5643570000000  0.5036060000000  0.5843330000000 1.0
C      1  0.5136950000000  0.5631250000000  0.5907940000000 1.0
C      1  0.4466670000000  0.5344290000000  0.4193030000000 1.0
C      1  0.4488700000000  0.4573310000000  0.4181830000000 1.0
C      1  0.5235470000000  0.4364730000000  0.4153680000000 1.0
C      1  0.5670790000000  0.5018310000000  0.4094010000000 1.0
C      1  0.5172690000000  0.5623870000000  0.4090060000000 1.0
C      1  0.5469990000000  0.4801110000000  0.5860590000000 1.0
C      1  0.5314550000000  0.5399440000000  0.5911090000000 1.0
C      1  0.4694480000000  0.5421500000000  0.5881690000000 1.0
C      1  0.4472810000000  0.4848700000000  0.5863200000000 1.0
C      1  0.4950690000000  0.4464130000000  0.5849040000000 1.0
C      1  0.5492220000000  0.4783840000000  0.4086760000000 1.0
C      1  0.5344900000000  0.5391660000000  0.4040550000000 1.0
C      1  0.4738450000000  0.5415530000000  0.4142590000000 1.0
C      1  0.4503380000000  0.4859690000000  0.4157880000000 1.0
C      1  0.4964340000000  0.4461370000000  0.4137410000000 1.0
C      1  0.4622690000000  0.4169580000000  0.4452140000000 1.0
C      1  0.5648030000000  0.4381390000000  0.4438680000000 1.0
C      1  0.5778990000000  0.5430690000000  0.4396740000000 1.0
C      1  0.4870570000000  0.5812610000000  0.4466190000000 1.0
C      1  0.4132360000000  0.5096960000000  0.4467570000000 1.0
C      1  0.4608270000000  0.4167090000000  0.5555070000000 1.0
C      1  0.5634270000000  0.4400080000000  0.5533430000000 1.0
C      1  0.5737790000000  0.5450980000000  0.5545790000000 1.0
C      1  0.4812370000000  0.5854170000000  0.5584290000000 1.0
C      1  0.4075710000000  0.5078460000000  0.5570680000000 1.0
C      1  0.6000860000000  0.5284040000000  0.4838750000000 1.0
C      1  0.5101830000000  0.6018900000000  0.4872140000000 1.0
C      1  0.3959960000000  0.5359150000000  0.4879400000000 1.0
C      1  0.4314750000000  0.4095900000000  0.4865570000000 1.0
C      1  0.5621140000000  0.4077510000000  0.4853090000000 1.0
C      1  0.5986920000000  0.5305560000000  0.5109050000000 1.0
C      1  0.5062210000000  0.6034650000000  0.5148180000000 1.0
C      1  0.3923450000000  0.5351940000000  0.5150070000000 1.0
C      1  0.4307860000000  0.4093370000000  0.5138960000000 1.0
C      1  0.5614000000000  0.4085410000000  0.5125490000000 1.0
C      1  0.5281310000000  0.5149000000000  0.4425410000000 1.0
C      1  0.5258620000000  0.5207300000000  0.5474200000000 1.0
C      1  0.5170840000000  0.5383180000000  0.4938250000000 1.0
END
