TITL C-3201373-1215-755 3923427.40701697 125000 -1047.54455266639 0 0 173 (C1) n - 1
REM
REM in /home/nfs/bkarasulu/CARBON/AIRSS/Generating-Clusters/LCBOP/Higher-Symm/SD-CG/FIRE-CG
REM
REM
REM
REM
REM
REM ./C.cell (b20cbc046b6831c77cfcea5457e17084)
REM AIRSS Version 0.9.1 bugfix July 2018 build 013d7b7c2542+ Fri, 06 Jul 2018 19:26:36 +0100
REM compiler GCC version 9.2.1 20190827 (Red Hat 9.2.1-1)
REM options -cpp -mtune=generic -march=x86-64 -g -O0 -fpre-include=/usr/include/finclude/math-vector-fortran.h
REM seed -1521617549 -1489690850 -822128700 1476128144 -821215542 -239939713 11629771 -2115692999 -1297428451 749912023 1466280834 -2134018536 -1962190027 -443171200 -1312527180 492818458 -430265819 753666552 -47151002 -849432827 -871674386 1974025748 903195226 1622493957 -770577093 -1911021774 398043281 -791239740 1784033908 -1548652860 1619069028 -872458446 1396466247
REM
CELL 1.54180   50.00000   50.00000   50.00000   90.00000   90.00000   90.00000
LATT -1
SFAC C  
C      1  0.5330130000000  0.5138310000000  0.4928610000000 1.0
C      1  0.5345720000000  0.5235740000000  0.4578360000000 1.0
C      1  0.5101510000000  0.5199270000000  0.4439720000000 1.0
C      1  0.4599010000000  0.5303390000000  0.4909220000000 1.0
C      1  0.4480800000000  0.5237840000000  0.5194380000000 1.0
C      1  0.4675710000000  0.5193780000000  0.5420720000000 1.0
C      1  0.5242420000000  0.5284380000000  0.5552550000000 1.0
C      1  0.4396790000000  0.5733830000000  0.5630710000000 1.0
C      1  0.5090950000000  0.5755170000000  0.5857700000000 1.0
C      1  0.5723210000000  0.5758270000000  0.5435590000000 1.0
C      1  0.5761660000000  0.5711520000000  0.4690160000000 1.0
C      1  0.5227960000000  0.5744550000000  0.4184910000000 1.0
C      1  0.4503570000000  0.5695970000000  0.4324080000000 1.0
C      1  0.4112420000000  0.5726210000000  0.4949130000000 1.0
C      1  0.5376820000000  0.5585610000000  0.3991190000000 1.0
C      1  0.4458830000000  0.5533010000000  0.4093880000000 1.0
C      1  0.3909210000000  0.5539040000000  0.4858880000000 1.0
C      1  0.4184100000000  0.5580630000000  0.5748120000000 1.0
C      1  0.5027110000000  0.5576890000000  0.6075830000000 1.0
C      1  0.5874860000000  0.5586620000000  0.5612430000000 1.0
C      1  0.5978540000000  0.5523390000000  0.4660430000000 1.0
C      1  0.3963400000000  0.4613320000000  0.5257640000000 1.0
C      1  0.4595270000000  0.4727090000000  0.5952750000000 1.0
C      1  0.5533110000000  0.4775130000000  0.5964020000000 1.0
C      1  0.6054080000000  0.4749320000000  0.5199160000000 1.0
C      1  0.5838770000000  0.4606750000000  0.4297100000000 1.0
C      1  0.4975820000000  0.4703730000000  0.3953680000000 1.0
C      1  0.4129000000000  0.4668190000000  0.4352880000000 1.0
C      1  0.4102910000000  0.5215120000000  0.4560760000000 1.0
C      1  0.4028210000000  0.5225960000000  0.5429270000000 1.0
C      1  0.4716830000000  0.5223600000000  0.5935380000000 1.0
C      1  0.5618010000000  0.5265300000000  0.5846260000000 1.0
C      1  0.6055060000000  0.5243490000000  0.5019960000000 1.0
C      1  0.5677780000000  0.5242620000000  0.4187450000000 1.0
C      1  0.4820350000000  0.5206280000000  0.4029990000000 1.0
C      1  0.4765500000000  0.5802340000000  0.4366540000000 1.0
C      1  0.4322370000000  0.5821280000000  0.4773770000000 1.0
C      1  0.4371950000000  0.5844770000000  0.5365290000000 1.0
C      1  0.4875220000000  0.5823790000000  0.5679670000000 1.0
C      1  0.5453980000000  0.5854380000000  0.5507350000000 1.0
C      1  0.5659830000000  0.5822850000000  0.4940730000000 1.0
C      1  0.5351280000000  0.5832650000000  0.4431210000000 1.0
C      1  0.5442280000000  0.4759770000000  0.4434290000000 1.0
C      1  0.4770250000000  0.4870310000000  0.4341900000000 1.0
C      1  0.4368110000000  0.4810480000000  0.4707270000000 1.0
C      1  0.4330470000000  0.4802780000000  0.5402270000000 1.0
C      1  0.4939010000000  0.4874390000000  0.5666270000000 1.0
C      1  0.5516820000000  0.4783800000000  0.5483310000000 1.0
C      1  0.5686910000000  0.4837650000000  0.4909860000000 1.0
C      1  0.5550760000000  0.5011460000000  0.5070140000000 1.0
C      1  0.5178670000000  0.4736440000000  0.4560200000000 1.0
C      1  0.5003250000000  0.4939390000000  0.4470540000000 1.0
C      1  0.4598840000000  0.4672820000000  0.4800360000000 1.0
C      1  0.4373100000000  0.4957230000000  0.5170360000000 1.0
C      1  0.4830810000000  0.4858290000000  0.5398690000000 1.0
C      1  0.5292850000000  0.4647100000000  0.5352570000000 1.0
C      1  0.5802810000000  0.5719970000000  0.5166130000000 1.0
C      1  0.5568900000000  0.5658490000000  0.4494760000000 1.0
C      1  0.4968110000000  0.5645600000000  0.4235120000000 1.0
C      1  0.4369200000000  0.5632130000000  0.4562960000000 1.0
C      1  0.4208930000000  0.5669870000000  0.5207610000000 1.0
C      1  0.4657870000000  0.5635310000000  0.5678530000000 1.0
C      1  0.5346060000000  0.5711770000000  0.5733500000000 1.0
C      1  0.5291190000000  0.5081070000000  0.3966930000000 1.0
C      1  0.4372270000000  0.5077210000000  0.4219730000000 1.0
C      1  0.3958470000000  0.5045040000000  0.4968540000000 1.0
C      1  0.4261020000000  0.5093970000000  0.5849340000000 1.0
C      1  0.5188970000000  0.5121530000000  0.5994360000000 1.0
C      1  0.5860890000000  0.5124270000000  0.5440950000000 1.0
C      1  0.5889980000000  0.5035390000000  0.4547370000000 1.0
C      1  0.5890330000000  0.4655300000000  0.4986930000000 1.0
C      1  0.5559150000000  0.4520430000000  0.4285390000000 1.0
C      1  0.4780190000000  0.4650020000000  0.4153060000000 1.0
C      1  0.4165430000000  0.4599550000000  0.4626970000000 1.0
C      1  0.4204150000000  0.4544570000000  0.5404670000000 1.0
C      1  0.4872710000000  0.4701880000000  0.5882720000000 1.0
C      1  0.5654390000000  0.4693080000000  0.5715910000000 1.0
C      1  0.5313090000000  0.5401610000000  0.5056060000000 1.0
C      1  0.5231170000000  0.5561100000000  0.4840330000000 1.0
C      1  0.4995630000000  0.5525320000000  0.4710130000000 1.0
C      1  0.4769410000000  0.5547650000000  0.4877780000000 1.0
C      1  0.4874790000000  0.5718240000000  0.5079940000000 1.0
C      1  0.4966470000000  0.5575280000000  0.5299470000000 1.0
C      1  0.5186890000000  0.5407180000000  0.5307670000000 1.0
C      1  0.5103910000000  0.4533260000000  0.5890060000000 1.0
C      1  0.5897740000000  0.4564010000000  0.5653810000000 1.0
C      1  0.5822190000000  0.4431210000000  0.4818550000000 1.0
C      1  0.5348280000000  0.4356510000000  0.4152560000000 1.0
C      1  0.4630030000000  0.4433850000000  0.4318440000000 1.0
C      1  0.4133560000000  0.4391470000000  0.4818630000000 1.0
C      1  0.4359780000000  0.4367700000000  0.5587950000000 1.0
C      1  0.5187480000000  0.4505490000000  0.3955770000000 1.0
C      1  0.4332320000000  0.4504890000000  0.4227280000000 1.0
C      1  0.3944140000000  0.4453560000000  0.5023780000000 1.0
C      1  0.4438230000000  0.4503110000000  0.5841060000000 1.0
C      1  0.5325710000000  0.4599040000000  0.6055010000000 1.0
C      1  0.6058380000000  0.4591290000000  0.5436760000000 1.0
C      1  0.5930400000000  0.4464770000000  0.4543560000000 1.0
C      1  0.5550520000000  0.5375060000000  0.4434500000000 1.0
C      1  0.4960440000000  0.5358910000000  0.4241700000000 1.0
C      1  0.4356360000000  0.5358700000000  0.4648680000000 1.0
C      1  0.4226950000000  0.5390230000000  0.5269790000000 1.0
C      1  0.4690390000000  0.5346440000000  0.5664500000000 1.0
C      1  0.5415440000000  0.5437300000000  0.5724140000000 1.0
C      1  0.5995690000000  0.5510540000000  0.5121970000000 1.0
C      1  0.4675890000000  0.4215320000000  0.4875690000000 1.0
C      1  0.4806320000000  0.4297870000000  0.5349650000000 1.0
C      1  0.5067350000000  0.4215480000000  0.5500000000000 1.0
C      1  0.5313420000000  0.4168750000000  0.5302780000000 1.0
C      1  0.5384460000000  0.4179170000000  0.4729200000000 1.0
C      1  0.5120580000000  0.4237620000000  0.4576110000000 1.0
C      1  0.4838420000000  0.4113310000000  0.4630950000000 1.0
C      1  0.5196330000000  0.5955500000000  0.4656890000000 1.0
C      1  0.4828530000000  0.5952220000000  0.4606760000000 1.0
C      1  0.4554720000000  0.5970560000000  0.4863960000000 1.0
C      1  0.4586630000000  0.5997010000000  0.5239280000000 1.0
C      1  0.4906300000000  0.5982580000000  0.5443720000000 1.0
C      1  0.5262430000000  0.5963980000000  0.5320170000000 1.0
C      1  0.5386130000000  0.5946930000000  0.4972590000000 1.0
C      1  0.5460510000000  0.3801550000000  0.4990970000000 1.0
C      1  0.5369730000000  0.3858800000000  0.4419590000000 1.0
C      1  0.4907010000000  0.4039970000000  0.4182160000000 1.0
C      1  0.4392000000000  0.4037240000000  0.4529330000000 1.0
C      1  0.4358900000000  0.4054310000000  0.5179110000000 1.0
C      1  0.4697840000000  0.3916610000000  0.5600600000000 1.0
C      1  0.5215250000000  0.3762820000000  0.5476490000000 1.0
C      1  0.5472030000000  0.5312260000000  0.3976560000000 1.0
C      1  0.4527440000000  0.5256380000000  0.4055400000000 1.0
C      1  0.3918280000000  0.5260120000000  0.4783210000000 1.0
C      1  0.4105790000000  0.5305200000000  0.5717440000000 1.0
C      1  0.4968110000000  0.5295300000000  0.6071920000000 1.0
C      1  0.5842270000000  0.5304700000000  0.5664720000000 1.0
C      1  0.6006580000000  0.5238370000000  0.4726420000000 1.0
C      1  0.4994560000000  0.3926020000000  0.5587490000000 1.0
C      1  0.5377010000000  0.3887080000000  0.5259830000000 1.0
C      1  0.5440070000000  0.3895610000000  0.4712230000000 1.0
C      1  0.5200450000000  0.4110480000000  0.4295240000000 1.0
C      1  0.4668780000000  0.4118360000000  0.4374100000000 1.0
C      1  0.4384130000000  0.4145850000000  0.4859100000000 1.0
C      1  0.4544250000000  0.4142910000000  0.5448230000000 1.0
C      1  0.4526190000000  0.4956740000000  0.4423460000000 1.0
C      1  0.4225550000000  0.4934770000000  0.4931870000000 1.0
C      1  0.4258500000000  0.4899730000000  0.5649090000000 1.0
C      1  0.5125840000000  0.5077460000000  0.5707650000000 1.0
C      1  0.5613670000000  0.5007680000000  0.5345530000000 1.0
C      1  0.5659970000000  0.4880990000000  0.4638730000000 1.0
C      1  0.5386320000000  0.4922900000000  0.4184910000000 1.0
C      1  0.5013490000000  0.5003000000000  0.3913640000000 1.0
C      1  0.4108040000000  0.5022910000000  0.4327320000000 1.0
C      1  0.3909760000000  0.4980360000000  0.5256840000000 1.0
C      1  0.4512110000000  0.5022410000000  0.5984930000000 1.0
C      1  0.5480020000000  0.5059690000000  0.5999230000000 1.0
C      1  0.6051840000000  0.5043200000000  0.5230380000000 1.0
C      1  0.5864950000000  0.4982380000000  0.4267710000000 1.0
C      1  0.4714170000000  0.4585210000000  0.5289850000000 1.0
C      1  0.5167180000000  0.4451670000000  0.5635670000000 1.0
C      1  0.5353740000000  0.4421790000000  0.5135180000000 1.0
C      1  0.5546840000000  0.4348120000000  0.4897100000000 1.0
C      1  0.5052070000000  0.4506410000000  0.4685910000000 1.0
C      1  0.4749700000000  0.4537080000000  0.4611170000000 1.0
C      1  0.4612570000000  0.4559280000000  0.5035340000000 1.0
C      1  0.4974460000000  0.6260560000000  0.5005620000000 1.0
C      1  0.4988910000000  0.6525150000000  0.5001610000000 1.0
C      1  0.4821510000000  0.5087670000000  0.4892630000000 1.0
C      1  0.4994850000000  0.3383500000000  0.5000280000000 1.0
C      1  0.5083290000000  0.4426900000000  0.4980750000000 1.0
C      1  0.4947780000000  0.3638730000000  0.5026280000000 1.0
C      1  0.5073310000000  0.5000310000000  0.4994330000000 1.0
C      1  0.4887010000000  0.4191960000000  0.5074560000000 1.0
C      1  0.4957780000000  0.5992650000000  0.5015970000000 1.0
C      1  0.4994750000000  0.6785720000000  0.4999610000000 1.0
C      1  0.4950760000000  0.3901520000000  0.5065430000000 1.0
C      1  0.5085550000000  0.4850090000000  0.5236120000000 1.0
END
