TITL C-3201378-2706-1003 -7.03813384323337e-08 125000 -25.0790098697788 0 0 5 (D(inf)h) n - 1
REM
REM in /home/nfs/bkarasulu/CARBON/AIRSS/Generating-Clusters/LCBOP/Higher-Symm/SD-CG/FIRE-CG
REM
REM
REM
REM
REM
REM ./C.cell (b20cbc046b6831c77cfcea5457e17084)
REM AIRSS Version 0.9.1 bugfix July 2018 build 013d7b7c2542+ Fri, 06 Jul 2018 19:26:36 +0100
REM compiler GCC version 9.2.1 20190827 (Red Hat 9.2.1-1)
REM options -cpp -mtune=generic -march=x86-64 -g -O0 -fpre-include=/usr/include/finclude/math-vector-fortran.h
REM seed -545605345 2001357277 -722707000 1659766145 376862783 -2126267062 -603771123 -89300618 1466975558 -1292221929 -1153408248 -1924714239 -196816312 324824228 1686606576 -780938290 735607423 285851482 -774480435 -1175580359 697061290 1967265613 -565686329 -586913335 -2110418205 -631055182 -1275330344 1294421125 1692524767 -1011410646 -1164721587 -2014136572 298909685
REM
CELL 1.54180   50.00000   50.00000   50.00000   90.00000   90.00000   90.00000
LATT -1
SFAC C  
C      1  0.5035910000000  0.5005040000000  0.5265070000000 1.0
C      1  0.5035910000000  0.5005040000000  0.4734930000000 1.0
C      1  0.5035910000000  0.5005040000000  0.5000000000000 1.0
C      1  0.5035910000000  0.5005040000000  0.4474230000000 1.0
C      1  0.5035910000000  0.5005040000000  0.5525770000000 1.0
END
