TITL C-3201378-2706-523 5.90146144934063e-09 125000 -933.517829712888 0 0 162 (D3) n - 1
REM
REM in /home/nfs/bkarasulu/CARBON/AIRSS/Generating-Clusters/LCBOP/Higher-Symm/SD-CG/FIRE-CG
REM
REM
REM
REM
REM
REM ./C.cell (b20cbc046b6831c77cfcea5457e17084)
REM AIRSS Version 0.9.1 bugfix July 2018 build 013d7b7c2542+ Fri, 06 Jul 2018 19:26:36 +0100
REM compiler GCC version 9.2.1 20190827 (Red Hat 9.2.1-1)
REM options -cpp -mtune=generic -march=x86-64 -g -O0 -fpre-include=/usr/include/finclude/math-vector-fortran.h
REM seed 1911772513 545430881 265651928 -1564407417 -1943351473 1141723980 -1155767352 -1511085735 -1052193795 -201025847 -47503554 -53418894 -331572878 -1504418073 1561636221 1590380339 -1172356448 1324548928 -514557927 669630836 1821333526 2106199298 -194876914 10032947 1647253209 -578592372 -1659716777 48696323 -739026580 -740503672 -656110529 -1801507532 1505254261
REM
CELL 1.54180   50.00000   50.00000   50.00000   90.00000   90.00000   90.00000
LATT -1
SFAC C  
C      1  0.5561980000000  0.4345900000000  0.5707780000000 1.0
C      1  0.5562040000000  0.4714090000000  0.4079680000000 1.0
C      1  0.5562040000000  0.5939970000000  0.5212590000000 1.0
C      1  0.4437980000000  0.5654160000000  0.5707700000000 1.0
C      1  0.4438010000000  0.5285840000000  0.4079620000000 1.0
C      1  0.4437950000000  0.4060040000000  0.5212630000000 1.0
C      1  0.4182070000000  0.3928830000000  0.4765510000000 1.0
C      1  0.4182130000000  0.5738680000000  0.4189530000000 1.0
C      1  0.4182070000000  0.5332560000000  0.6044890000000 1.0
C      1  0.5817940000000  0.6071160000000  0.4765470000000 1.0
C      1  0.5817910000000  0.4261260000000  0.4189630000000 1.0
C      1  0.5817870000000  0.4667520000000  0.6044960000000 1.0
C      1  0.4849020000000  0.4442640000000  0.5668050000000 1.0
C      1  0.4849070000000  0.4700130000000  0.4183280000000 1.0
C      1  0.4849070000000  0.5857240000000  0.5148650000000 1.0
C      1  0.5150940000000  0.5557410000000  0.5668020000000 1.0
C      1  0.5150970000000  0.5299810000000  0.4183270000000 1.0
C      1  0.5150920000000  0.4142770000000  0.5148730000000 1.0
C      1  0.4953700000000  0.5296800000000  0.5321010000000 1.0
C      1  0.4953690000000  0.4573590000000  0.5096520000000 1.0
C      1  0.4953720000000  0.5129610000000  0.4582460000000 1.0
C      1  0.5046280000000  0.4703230000000  0.5321040000000 1.0
C      1  0.5046310000000  0.5426410000000  0.5096500000000 1.0
C      1  0.5046300000000  0.4870360000000  0.4582470000000 1.0
C      1  0.5926930000000  0.4189450000000  0.4911590000000 1.0
C      1  0.5926980000000  0.5481820000000  0.4342310000000 1.0
C      1  0.5926930000000  0.5328650000000  0.5746170000000 1.0
C      1  0.4073080000000  0.5810540000000  0.4911480000000 1.0
C      1  0.4073060000000  0.4518130000000  0.4342300000000 1.0
C      1  0.4073030000000  0.4671410000000  0.5746150000000 1.0
C      1  0.5475810000000  0.5020450000000  0.4470050000000 1.0
C      1  0.5475800000000  0.5448710000000  0.5282710000000 1.0
C      1  0.5475780000000  0.4530800000000  0.5247270000000 1.0
C      1  0.4524210000000  0.4979510000000  0.4470030000000 1.0
C      1  0.4524180000000  0.4551310000000  0.5282720000000 1.0
C      1  0.4524210000000  0.5469220000000  0.5247210000000 1.0
C      1  0.3918910000000  0.5417540000000  0.4620760000000 1.0
C      1  0.3918880000000  0.5119670000000  0.5551150000000 1.0
C      1  0.3918880000000  0.4462870000000  0.4827990000000 1.0
C      1  0.6081110000000  0.4582430000000  0.4620850000000 1.0
C      1  0.6081090000000  0.4880370000000  0.5551220000000 1.0
C      1  0.6081130000000  0.5537120000000  0.4828010000000 1.0
C      1  0.5988390000000  0.5597970000000  0.5353270000000 1.0
C      1  0.5988360000000  0.4395060000000  0.5341290000000 1.0
C      1  0.5988400000000  0.5006890000000  0.4305530000000 1.0
C      1  0.4011590000000  0.4402060000000  0.5353260000000 1.0
C      1  0.4011630000000  0.5604960000000  0.5341190000000 1.0
C      1  0.4011640000000  0.4993060000000  0.4305480000000 1.0
C      1  0.4409540000000  0.5395160000000  0.4788170000000 1.0
C      1  0.4409510000000  0.4985880000000  0.5448100000000 1.0
C      1  0.4409520000000  0.4619000000000  0.4763690000000 1.0
C      1  0.5590480000000  0.4604820000000  0.4788230000000 1.0
C      1  0.5590470000000  0.5014150000000  0.5448130000000 1.0
C      1  0.5590500000000  0.5380980000000  0.4763690000000 1.0
C      1  0.6066480000000  0.4637430000000  0.5432270000000 1.0
C      1  0.6066510000000  0.4806910000000  0.4469930000000 1.0
C      1  0.6066510000000  0.5555580000000  0.5097880000000 1.0
C      1  0.3933500000000  0.5362610000000  0.5432190000000 1.0
C      1  0.3933520000000  0.5193050000000  0.4469860000000 1.0
C      1  0.3933480000000  0.4444430000000  0.5097860000000 1.0
C      1  0.6003230000000  0.4308810000000  0.4661400000000 1.0
C      1  0.6003270000000  0.5638810000000  0.4570770000000 1.0
C      1  0.6003220000000  0.5052300000000  0.5767910000000 1.0
C      1  0.3996780000000  0.5691170000000  0.4661300000000 1.0
C      1  0.3996750000000  0.4361160000000  0.4570760000000 1.0
C      1  0.3996730000000  0.4947760000000  0.5767860000000 1.0
C      1  0.5678640000000  0.6072090000000  0.4993980000000 1.0
C      1  0.5678570000000  0.4469160000000  0.5931510000000 1.0
C      1  0.5678620000000  0.4458700000000  0.4074570000000 1.0
C      1  0.4321360000000  0.3927910000000  0.4994020000000 1.0
C      1  0.4321380000000  0.5530910000000  0.5931430000000 1.0
C      1  0.4321430000000  0.5541230000000  0.4074490000000 1.0
C      1  0.4930210000000  0.4668140000000  0.6101350000000 1.0
C      1  0.4930250000000  0.4212130000000  0.4161920000000 1.0
C      1  0.4930290000000  0.6119730000000  0.4736720000000 1.0
C      1  0.5069730000000  0.5331940000000  0.6101330000000 1.0
C      1  0.5069790000000  0.5787810000000  0.4161870000000 1.0
C      1  0.5069730000000  0.3880250000000  0.4736810000000 1.0
C      1  0.5337390000000  0.5261780000000  0.6069990000000 1.0
C      1  0.5337390000000  0.3942460000000  0.4691730000000 1.0
C      1  0.5337450000000  0.5795730000000  0.4238300000000 1.0
C      1  0.4662560000000  0.4738300000000  0.6069990000000 1.0
C      1  0.4662630000000  0.6057520000000  0.4691640000000 1.0
C      1  0.4662590000000  0.4204210000000  0.4238340000000 1.0
C      1  0.4280120000000  0.5130080000000  0.3639730000000 1.0
C      1  0.4280090000000  0.6112990000000  0.5792740000000 1.0
C      1  0.4280030000000  0.3756980000000  0.5567460000000 1.0
C      1  0.5719950000000  0.4869810000000  0.3639780000000 1.0
C      1  0.5719870000000  0.3887060000000  0.5792870000000 1.0
C      1  0.5719930000000  0.6243060000000  0.5567410000000 1.0
C      1  0.5110990000000  0.5717990000000  0.5117220000000 1.0
C      1  0.5110950000000  0.4539480000000  0.5563190000000 1.0
C      1  0.5110990000000  0.4742520000000  0.4319590000000 1.0
C      1  0.4889000000000  0.4282020000000  0.5117270000000 1.0
C      1  0.4889020000000  0.5460560000000  0.5563150000000 1.0
C      1  0.4889050000000  0.5257430000000  0.4319570000000 1.0
C      1  0.4150090000000  0.4431130000000  0.5608440000000 1.0
C      1  0.4150130000000  0.4757530000000  0.4203070000000 1.0
C      1  0.4150140000000  0.5811420000000  0.5188420000000 1.0
C      1  0.5849880000000  0.5568920000000  0.5608450000000 1.0
C      1  0.5849910000000  0.5242420000000  0.4203090000000 1.0
C      1  0.5849850000000  0.4188600000000  0.5188530000000 1.0
C      1  0.4672140000000  0.4609330000000  0.5519110000000 1.0
C      1  0.4672180000000  0.4745770000000  0.4402090000000 1.0
C      1  0.4672180000000  0.5644920000000  0.5078770000000 1.0
C      1  0.5327830000000  0.5390710000000  0.5519100000000 1.0
C      1  0.5327850000000  0.5254180000000  0.4402090000000 1.0
C      1  0.5327810000000  0.4355090000000  0.5078830000000 1.0
C      1  0.5100040000000  0.4186620000000  0.4394040000000 1.0
C      1  0.5100080000000  0.5931470000000  0.4598580000000 1.0
C      1  0.5100020000000  0.4881900000000  0.6007390000000 1.0
C      1  0.4899990000000  0.5813330000000  0.4393970000000 1.0
C      1  0.4899940000000  0.4068510000000  0.4598640000000 1.0
C      1  0.4899930000000  0.5118170000000  0.6007370000000 1.0
C      1  0.5352330000000  0.3954970000000  0.5249950000000 1.0
C      1  0.5352400000000  0.5306050000000  0.3970030000000 1.0
C      1  0.5352360000000  0.5738960000000  0.5780050000000 1.0
C      1  0.4647660000000  0.6045050000000  0.5249850000000 1.0
C      1  0.4647660000000  0.4693880000000  0.3970030000000 1.0
C      1  0.4647600000000  0.4261100000000  0.5780090000000 1.0
C      1  0.5619160000000  0.4679600000000  0.5050070000000 1.0
C      1  0.5619180000000  0.5116830000000  0.4697530000000 1.0
C      1  0.5619170000000  0.5203520000000  0.5252450000000 1.0
C      1  0.4380840000000  0.5320410000000  0.5050010000000 1.0
C      1  0.4380830000000  0.4883140000000  0.4697500000000 1.0
C      1  0.4380820000000  0.4796500000000  0.5252440000000 1.0
C      1  0.5492410000000  0.4416810000000  0.4620080000000 1.0
C      1  0.5492440000000  0.5620600000000  0.4684940000000 1.0
C      1  0.5492400000000  0.4962540000000  0.5695020000000 1.0
C      1  0.4507610000000  0.5583160000000  0.4620010000000 1.0
C      1  0.4507570000000  0.4379370000000  0.4684950000000 1.0
C      1  0.4507560000000  0.5037510000000  0.5694990000000 1.0
C      1  0.5395170000000  0.5711840000000  0.5177030000000 1.0
C      1  0.5395130000000  0.4490760000000  0.5527980000000 1.0
C      1  0.5395170000000  0.4797370000000  0.4295020000000 1.0
C      1  0.4604820000000  0.4288170000000  0.5177060000000 1.0
C      1  0.4604840000000  0.5509280000000  0.5527920000000 1.0
C      1  0.4604870000000  0.5202580000000  0.4294980000000 1.0
C      1  0.5627820000000  0.5768270000000  0.5662960000000 1.0
C      1  0.5627790000000  0.4041720000000  0.5333900000000 1.0
C      1  0.5627850000000  0.5189970000000  0.4003190000000 1.0
C      1  0.4372140000000  0.4231780000000  0.5662980000000 1.0
C      1  0.4372200000000  0.5958310000000  0.5333790000000 1.0
C      1  0.4372200000000  0.4809960000000  0.4003170000000 1.0
C      1  0.4062110000000  0.5819320000000  0.4416390000000 1.0
C      1  0.4062050000000  0.5095780000000  0.6001300000000 1.0
C      1  0.4062060000000  0.4084980000000  0.4582240000000 1.0
C      1  0.5937920000000  0.4180640000000  0.4416500000000 1.0
C      1  0.5937890000000  0.4904300000000  0.6001360000000 1.0
C      1  0.5937960000000  0.5914990000000  0.4582220000000 1.0
C      1  0.4641620000000  0.4999250000000  0.5939570000000 1.0
C      1  0.4641640000000  0.4186690000000  0.4529540000000 1.0
C      1  0.4641680000000  0.5814090000000  0.4530860000000 1.0
C      1  0.5358330000000  0.5000820000000  0.5939590000000 1.0
C      1  0.5358390000000  0.5813280000000  0.4529500000000 1.0
C      1  0.5358350000000  0.4185870000000  0.4530940000000 1.0
C      1  0.5640820000000  0.5995970000000  0.5482500000000 1.0
C      1  0.5640770000000  0.4084150000000  0.5621330000000 1.0
C      1  0.5640840000000  0.4919830000000  0.3896230000000 1.0
C      1  0.4359150000000  0.4004070000000  0.5482530000000 1.0
C      1  0.4359200000000  0.5915900000000  0.5621230000000 1.0
C      1  0.4359220000000  0.5080090000000  0.3896190000000 1.0
END
