TITL C-3201378-2706-1607 1.69429010905379e-07 125000 -635.130923122137 0 0 105 (C1) n - 1
REM
REM in /home/nfs/bkarasulu/CARBON/AIRSS/Generating-Clusters/LCBOP/Higher-Symm/SD-CG/FIRE-CG
REM
REM
REM
REM
REM
REM ./C.cell (b20cbc046b6831c77cfcea5457e17084)
REM AIRSS Version 0.9.1 bugfix July 2018 build 013d7b7c2542+ Fri, 06 Jul 2018 19:26:36 +0100
REM compiler GCC version 9.2.1 20190827 (Red Hat 9.2.1-1)
REM options -cpp -mtune=generic -march=x86-64 -g -O0 -fpre-include=/usr/include/finclude/math-vector-fortran.h
REM seed -968051235 -804085587 1261222020 445394408 1811868791 -85286654 1556412644 -1214560978 2006630670 -1255069511 1380419514 -1961847357 -586512717 259884779 -1112417406 586192561 -1731934231 -1076754484 -918217485 1011444974 -1300361653 -947533750 1058118607 1113552470 -481823541 -1905613886 45560669 1348652836 -524265931 2049454215 -432691096 -1747382821 -1956434116
REM
CELL 1.54180   50.00000   50.00000   50.00000   90.00000   90.00000   90.00000
LATT -1
SFAC C  
C      1  0.5193900000000  0.5298910000000  0.4281740000000 1.0
C      1  0.4593140000000  0.4959430000000  0.4251980000000 1.0
C      1  0.5250960000000  0.4603300000000  0.4311130000000 1.0
C      1  0.4667210000000  0.5841220000000  0.4574630000000 1.0
C      1  0.4520070000000  0.4275680000000  0.4584840000000 1.0
C      1  0.5822700000000  0.5064100000000  0.4620380000000 1.0
C      1  0.4833280000000  0.5646540000000  0.5035120000000 1.0
C      1  0.4647140000000  0.4499820000000  0.5052940000000 1.0
C      1  0.5674950000000  0.4925560000000  0.5062100000000 1.0
C      1  0.5691510000000  0.5803530000000  0.4743860000000 1.0
C      1  0.4060540000000  0.5160510000000  0.4868310000000 1.0
C      1  0.5198550000000  0.3926900000000  0.4763170000000 1.0
C      1  0.6212070000000  0.5182030000000  0.4938680000000 1.0
C      1  0.4914980000000  0.6198640000000  0.4802270000000 1.0
C      1  0.4170210000000  0.4127720000000  0.4913450000000 1.0
C      1  0.4593960000000  0.4331090000000  0.4320610000000 1.0
C      1  0.5786270000000  0.4991910000000  0.4352210000000 1.0
C      1  0.4630760000000  0.5686620000000  0.4343990000000 1.0
C      1  0.4652380000000  0.5718830000000  0.4828860000000 1.0
C      1  0.4671590000000  0.4390090000000  0.4794130000000 1.0
C      1  0.5603630000000  0.5045070000000  0.4808590000000 1.0
C      1  0.4784040000000  0.4487070000000  0.4179430000000 1.0
C      1  0.5566100000000  0.5024500000000  0.4180640000000 1.0
C      1  0.4676090000000  0.5438300000000  0.4218360000000 1.0
C      1  0.5114760000000  0.4136430000000  0.4300300000000 1.0
C      1  0.5622690000000  0.5525040000000  0.4273640000000 1.0
C      1  0.4227670000000  0.5260170000000  0.4379000000000 1.0
C      1  0.4440530000000  0.4389220000000  0.5209150000000 1.0
C      1  0.5863400000000  0.5055430000000  0.5227130000000 1.0
C      1  0.5038550000000  0.5835820000000  0.5105200000000 1.0
C      1  0.5315090000000  0.4023320000000  0.5005650000000 1.0
C      1  0.5502740000000  0.5855340000000  0.4956140000000 1.0
C      1  0.4207470000000  0.5026750000000  0.5075420000000 1.0
C      1  0.5276890000000  0.4063750000000  0.4526520000000 1.0
C      1  0.5570710000000  0.5675030000000  0.4518590000000 1.0
C      1  0.4139910000000  0.5096650000000  0.4603640000000 1.0
C      1  0.4984240000000  0.6116210000000  0.5063920000000 1.0
C      1  0.4213240000000  0.4224440000000  0.5175610000000 1.0
C      1  0.6130140000000  0.5143790000000  0.5205580000000 1.0
C      1  0.4299450000000  0.4749030000000  0.6147190000000 1.0
C      1  0.5542960000000  0.4548520000000  0.5786750000000 1.0
C      1  0.5098790000000  0.5818800000000  0.5824740000000 1.0
C      1  0.3762760000000  0.5382640000000  0.5203630000000 1.0
C      1  0.4814220000000  0.3734620000000  0.5015240000000 1.0
C      1  0.6047990000000  0.5762660000000  0.5082360000000 1.0
C      1  0.4844200000000  0.5407460000000  0.5811210000000 1.0
C      1  0.4655610000000  0.4598960000000  0.5852310000000 1.0
C      1  0.5288630000000  0.4907640000000  0.5585130000000 1.0
C      1  0.4996370000000  0.6293990000000  0.5271100000000 1.0
C      1  0.4046930000000  0.4163130000000  0.5382660000000 1.0
C      1  0.6293500000000  0.5181520000000  0.5419820000000 1.0
C      1  0.5525060000000  0.4418530000000  0.5189390000000 1.0
C      1  0.4784150000000  0.5202570000000  0.5307320000000 1.0
C      1  0.4657310000000  0.4949140000000  0.5265630000000 1.0
C      1  0.5414050000000  0.5621440000000  0.5377430000000 1.0
C      1  0.4277860000000  0.5051820000000  0.5560270000000 1.0
C      1  0.5131690000000  0.4227710000000  0.5415640000000 1.0
C      1  0.4293730000000  0.4853920000000  0.4600280000000 1.0
C      1  0.5462580000000  0.4276050000000  0.4579910000000 1.0
C      1  0.5310620000000  0.5595050000000  0.4614800000000 1.0
C      1  0.4862960000000  0.4484090000000  0.5733760000000 1.0
C      1  0.5300570000000  0.5171300000000  0.5547540000000 1.0
C      1  0.4636850000000  0.5242240000000  0.5835650000000 1.0
C      1  0.3852020000000  0.5325840000000  0.4956330000000 1.0
C      1  0.4972200000000  0.3764060000000  0.4799010000000 1.0
C      1  0.5958850000000  0.5798830000000  0.4830100000000 1.0
C      1  0.4838840000000  0.5371900000000  0.5089500000000 1.0
C      1  0.4796280000000  0.4734180000000  0.5119950000000 1.0
C      1  0.5616150000000  0.4658690000000  0.5122170000000 1.0
C      1  0.5385900000000  0.4804120000000  0.4166390000000 1.0
C      1  0.4945620000000  0.5361690000000  0.4171350000000 1.0
C      1  0.4706060000000  0.4749790000000  0.4104430000000 1.0
C      1  0.5065380000000  0.5559140000000  0.5726770000000 1.0
C      1  0.4469090000000  0.4792150000000  0.5930110000000 1.0
C      1  0.5313740000000  0.4635370000000  0.5651860000000 1.0
C      1  0.6074850000000  0.5148810000000  0.4710770000000 1.0
C      1  0.4786660000000  0.6096560000000  0.4587910000000 1.0
C      1  0.4287400000000  0.4143150000000  0.4671660000000 1.0
C      1  0.4935630000000  0.4024300000000  0.5410660000000 1.0
C      1  0.5692060000000  0.5647140000000  0.5424580000000 1.0
C      1  0.4029820000000  0.5182310000000  0.5581480000000 1.0
C      1  0.4563800000000  0.4903920000000  0.4534270000000 1.0
C      1  0.5339500000000  0.4532390000000  0.4577720000000 1.0
C      1  0.5242940000000  0.5328730000000  0.4564050000000 1.0
C      1  0.4884840000000  0.5198380000000  0.4869940000000 1.0
C      1  0.5048600000000  0.4772590000000  0.4972650000000 1.0
C      1  0.5114620000000  0.5037970000000  0.4902430000000 1.0
C      1  0.5333730000000  0.4215370000000  0.5212210000000 1.0
C      1  0.5312830000000  0.5765830000000  0.5150030000000 1.0
C      1  0.4371700000000  0.4974090000000  0.5299220000000 1.0
C      1  0.5105340000000  0.4447330000000  0.5597300000000 1.0
C      1  0.5258620000000  0.5450110000000  0.5545850000000 1.0
C      1  0.4455120000000  0.5034590000000  0.5782540000000 1.0
C      1  0.4136330000000  0.4713360000000  0.6347280000000 1.0
C      1  0.5763060000000  0.4465260000000  0.5898700000000 1.0
C      1  0.5139470000000  0.6060150000000  0.5914250000000 1.0
C      1  0.5056070000000  0.4409620000000  0.4216630000000 1.0
C      1  0.5464000000000  0.5293740000000  0.4174890000000 1.0
C      1  0.4479170000000  0.5229620000000  0.4228940000000 1.0
C      1  0.4697330000000  0.5085820000000  0.4700570000000 1.0
C      1  0.5182410000000  0.4591570000000  0.4805040000000 1.0
C      1  0.5333890000000  0.5130920000000  0.4752570000000 1.0
C      1  0.4808890000000  0.3841740000000  0.5261360000000 1.0
C      1  0.5930700000000  0.5704830000000  0.5317220000000 1.0
C      1  0.3837590000000  0.5316460000000  0.5452610000000 1.0
END
