TITL C-3201373-1215-2272 0.0010918744125737 125000 -7.76135469379083 0 0 6 (Oh) n - 1
REM
REM in /home/nfs/bkarasulu/CARBON/AIRSS/Generating-Clusters/LCBOP/Higher-Symm/SD-CG/FIRE-CG
REM
REM
REM
REM
REM
REM ./C.cell (b20cbc046b6831c77cfcea5457e17084)
REM AIRSS Version 0.9.1 bugfix July 2018 build 013d7b7c2542+ Fri, 06 Jul 2018 19:26:36 +0100
REM compiler GCC version 9.2.1 20190827 (Red Hat 9.2.1-1)
REM options -cpp -mtune=generic -march=x86-64 -g -O0 -fpre-include=/usr/include/finclude/math-vector-fortran.h
REM seed -928890283 1167891934 -1832661211 808405023 -1263704641 1284819505 -1348246552 -932312400 1031887472 876666118 745141819 -598102702 968560793 -474311632 -1130309361 1609416973 -711825732 -1668097297 261371676 -831869126 1427873385 -1177361132 -1612680006 51965817 -400239322 2113579345 1524885250 1992311372 -629533854 -1471666796 -1740999098 -1688028495 -1136151411
REM
CELL 1.54180   50.00000   50.00000   50.00000   90.00000   90.00000   90.00000
LATT -1
SFAC C  
C      1  0.4740250000000  0.4983940000000  0.4991660000000 1.0
C      1  0.4997440000000  0.4983940000000  0.4734460000000 1.0
C      1  0.5254630000000  0.4983940000000  0.4991660000000 1.0
C      1  0.4997440000000  0.4726750000000  0.4991660000000 1.0
C      1  0.4997440000000  0.5241140000000  0.4991660000000 1.0
C      1  0.4997440000000  0.4983940000000  0.5248850000000 1.0
END
