TITL C-3201373-1215-638 -0.00010267254949352 125000 -880.688137808025 0 0 144 (C1) n - 1
REM
REM in /home/nfs/bkarasulu/CARBON/AIRSS/Generating-Clusters/LCBOP/Higher-Symm/SD-CG/FIRE-CG
REM
REM
REM
REM
REM
REM ./C.cell (b20cbc046b6831c77cfcea5457e17084)
REM AIRSS Version 0.9.1 bugfix July 2018 build 013d7b7c2542+ Fri, 06 Jul 2018 19:26:36 +0100
REM compiler GCC version 9.2.1 20190827 (Red Hat 9.2.1-1)
REM options -cpp -mtune=generic -march=x86-64 -g -O0 -fpre-include=/usr/include/finclude/math-vector-fortran.h
REM seed 1274291020 284861334 262418324 -453705822 1475048995 660103353 848090452 1519951067 24560468 2115389095 1609839318 1061373514 2079053676 1824556028 813228090 1774967489 -239978208 -1892130832 -2094027284 -98480033 -347725730 -1228942672 1869028794 -1361837887 -637788969 1559690734 791506603 1901287627 -325501590 -1605044540 -1277789347 -1791590687 665978413
REM
CELL 1.54180   50.00000   50.00000   50.00000   90.00000   90.00000   90.00000
LATT -1
SFAC C  
C      1  0.4863940000000  0.5805290000000  0.5724830000000 1.0
C      1  0.4895250000000  0.5786370000000  0.4237080000000 1.0
C      1  0.6028830000000  0.5381710000000  0.5486240000000 1.0
C      1  0.6012030000000  0.5361770000000  0.4509150000000 1.0
C      1  0.5982680000000  0.4554140000000  0.5670820000000 1.0
C      1  0.5982980000000  0.4566310000000  0.4390670000000 1.0
C      1  0.5478290000000  0.4941390000000  0.5484980000000 1.0
C      1  0.5429200000000  0.4976470000000  0.4506970000000 1.0
C      1  0.4773770000000  0.4899750000000  0.5305670000000 1.0
C      1  0.4791980000000  0.4927160000000  0.4722860000000 1.0
C      1  0.6219080000000  0.5256240000000  0.4637880000000 1.0
C      1  0.6234180000000  0.5273790000000  0.5356620000000 1.0
C      1  0.5255990000000  0.5405330000000  0.5350140000000 1.0
C      1  0.5137850000000  0.5432430000000  0.4771370000000 1.0
C      1  0.4534930000000  0.4875630000000  0.4718390000000 1.0
C      1  0.4519630000000  0.4847130000000  0.5268600000000 1.0
C      1  0.5349030000000  0.4387710000000  0.5792060000000 1.0
C      1  0.5359150000000  0.4385220000000  0.4221680000000 1.0
C      1  0.4976610000000  0.5006590000000  0.4894930000000 1.0
C      1  0.4966810000000  0.5008420000000  0.5159320000000 1.0
C      1  0.4219950000000  0.4382810000000  0.4853590000000 1.0
C      1  0.4225710000000  0.4368030000000  0.5119890000000 1.0
C      1  0.5565080000000  0.5067110000000  0.5251400000000 1.0
C      1  0.5497490000000  0.5115280000000  0.4735140000000 1.0
C      1  0.5538830000000  0.5531230000000  0.4054680000000 1.0
C      1  0.5557440000000  0.5516840000000  0.5945220000000 1.0
C      1  0.6353290000000  0.5204300000000  0.5129230000000 1.0
C      1  0.6347250000000  0.5197610000000  0.4863370000000 1.0
C      1  0.5115140000000  0.3948280000000  0.4843800000000 1.0
C      1  0.5153150000000  0.3963210000000  0.5150670000000 1.0
C      1  0.5011610000000  0.4761760000000  0.4026270000000 1.0
C      1  0.5001470000000  0.4780440000000  0.5942650000000 1.0
C      1  0.4627610000000  0.5253730000000  0.5541980000000 1.0
C      1  0.4634800000000  0.5207560000000  0.4375890000000 1.0
C      1  0.5764310000000  0.5485990000000  0.5507270000000 1.0
C      1  0.5754000000000  0.5479770000000  0.4487200000000 1.0
C      1  0.4065040000000  0.4984350000000  0.4716110000000 1.0
C      1  0.4051550000000  0.4948520000000  0.5260700000000 1.0
C      1  0.5534940000000  0.5077270000000  0.5732750000000 1.0
C      1  0.5518300000000  0.5087040000000  0.4259410000000 1.0
C      1  0.5703000000000  0.5689010000000  0.5295750000000 1.0
C      1  0.5700530000000  0.5682480000000  0.4696740000000 1.0
C      1  0.4322810000000  0.4468000000000  0.4607060000000 1.0
C      1  0.4324910000000  0.4441650000000  0.5371450000000 1.0
C      1  0.4417910000000  0.5252240000000  0.5735770000000 1.0
C      1  0.4430250000000  0.5230580000000  0.4164020000000 1.0
C      1  0.4009060000000  0.5383020000000  0.5585600000000 1.0
C      1  0.4098010000000  0.5442880000000  0.4455130000000 1.0
C      1  0.5437190000000  0.4907900000000  0.5951230000000 1.0
C      1  0.5449660000000  0.4897620000000  0.4048080000000 1.0
C      1  0.5598490000000  0.5367230000000  0.4267150000000 1.0
C      1  0.5613970000000  0.5359660000000  0.5725660000000 1.0
C      1  0.5415890000000  0.5286450000000  0.5158350000000 1.0
C      1  0.5362970000000  0.5305460000000  0.4889090000000 1.0
C      1  0.4857070000000  0.5441310000000  0.6056080000000 1.0
C      1  0.4905100000000  0.5423950000000  0.3904140000000 1.0
C      1  0.5455610000000  0.5802060000000  0.5170300000000 1.0
C      1  0.5456420000000  0.5799430000000  0.4816910000000 1.0
C      1  0.6085930000000  0.4557200000000  0.4635910000000 1.0
C      1  0.6089610000000  0.4547710000000  0.5427140000000 1.0
C      1  0.4460590000000  0.5531300000000  0.4129080000000 1.0
C      1  0.4417490000000  0.5546200000000  0.5807430000000 1.0
C      1  0.5072990000000  0.5213450000000  0.3858500000000 1.0
C      1  0.5035910000000  0.5238120000000  0.6107840000000 1.0
C      1  0.4630060000000  0.5709250000000  0.5244230000000 1.0
C      1  0.4666230000000  0.5453710000000  0.4801990000000 1.0
C      1  0.5230920000000  0.4584830000000  0.5252260000000 1.0
C      1  0.5214980000000  0.4598650000000  0.4727540000000 1.0
C      1  0.4888180000000  0.5216800000000  0.5627300000000 1.0
C      1  0.4913950000000  0.5211340000000  0.4359750000000 1.0
C      1  0.5254970000000  0.5884790000000  0.4629750000000 1.0
C      1  0.5248650000000  0.5888540000000  0.5351670000000 1.0
C      1  0.4193380000000  0.4620460000000  0.5579720000000 1.0
C      1  0.4199380000000  0.4653440000000  0.4397900000000 1.0
C      1  0.5463830000000  0.4501680000000  0.5115290000000 1.0
C      1  0.5456240000000  0.4511520000000  0.4846390000000 1.0
C      1  0.4154940000000  0.5141510000000  0.5676600000000 1.0
C      1  0.4159050000000  0.5176660000000  0.4294970000000 1.0
C      1  0.5075880000000  0.5870310000000  0.4423700000000 1.0
C      1  0.5061780000000  0.5881050000000  0.5551670000000 1.0
C      1  0.3932570000000  0.5199670000000  0.4851790000000 1.0
C      1  0.3908310000000  0.5168280000000  0.5144050000000 1.0
C      1  0.4845810000000  0.5776510000000  0.5062100000000 1.0
C      1  0.4912480000000  0.5556690000000  0.4895230000000 1.0
C      1  0.5168310000000  0.4986070000000  0.6054550000000 1.0
C      1  0.5190270000000  0.4958720000000  0.3920820000000 1.0
C      1  0.4287690000000  0.4881610000000  0.5124170000000 1.0
C      1  0.4295490000000  0.4899030000000  0.4851980000000 1.0
C      1  0.4555140000000  0.4366700000000  0.5766340000000 1.0
C      1  0.4555070000000  0.4384810000000  0.4215860000000 1.0
C      1  0.5110090000000  0.5344420000000  0.5560940000000 1.0
C      1  0.5091460000000  0.5352610000000  0.4502590000000 1.0
C      1  0.4699690000000  0.5626060000000  0.5885600000000 1.0
C      1  0.4744080000000  0.5606530000000  0.4065270000000 1.0
C      1  0.5927710000000  0.5746660000000  0.4859080000000 1.0
C      1  0.5928640000000  0.5752030000000  0.5129440000000 1.0
C      1  0.4353790000000  0.5595190000000  0.4404770000000 1.0
C      1  0.4182440000000  0.5632600000000  0.5640990000000 1.0
C      1  0.5312700000000  0.3457670000000  0.4857870000000 1.0
C      1  0.5395040000000  0.3493200000000  0.5129130000000 1.0
C      1  0.5223370000000  0.4778180000000  0.4513030000000 1.0
C      1  0.5255460000000  0.4759590000000  0.5470570000000 1.0
C      1  0.5226710000000  0.4210870000000  0.4392280000000 1.0
C      1  0.5225620000000  0.4213690000000  0.5614200000000 1.0
C      1  0.4894010000000  0.4544120000000  0.3897680000000 1.0
C      1  0.4880990000000  0.4567160000000  0.6075420000000 1.0
C      1  0.4352460000000  0.6029340000000  0.5003290000000 1.0
C      1  0.4396740000000  0.5876530000000  0.5246670000000 1.0
C      1  0.4001760000000  0.5684410000000  0.4908590000000 1.0
C      1  0.3977670000000  0.5644520000000  0.5195790000000 1.0
C      1  0.5059590000000  0.4128410000000  0.5382810000000 1.0
C      1  0.5048380000000  0.4128470000000  0.4614340000000 1.0
C      1  0.4965530000000  0.4500460000000  0.4849480000000 1.0
C      1  0.4973090000000  0.4494310000000  0.5138350000000 1.0
C      1  0.4094460000000  0.4892290000000  0.5540190000000 1.0
C      1  0.4097860000000  0.4926860000000  0.4436970000000 1.0
C      1  0.4740580000000  0.4362070000000  0.5974110000000 1.0
C      1  0.4737820000000  0.4355010000000  0.4007480000000 1.0
C      1  0.5052990000000  0.4750980000000  0.5666590000000 1.0
C      1  0.5032260000000  0.4749800000000  0.4308060000000 1.0
C      1  0.5511030000000  0.4613480000000  0.5900820000000 1.0
C      1  0.5526120000000  0.4611060000000  0.4123100000000 1.0
C      1  0.4542250000000  0.5424310000000  0.4561530000000 1.0
C      1  0.4602400000000  0.5443130000000  0.5333140000000 1.0
C      1  0.4591450000000  0.4343630000000  0.5472500000000 1.0
C      1  0.4587690000000  0.4361380000000  0.4509650000000 1.0
C      1  0.4586910000000  0.6156010000000  0.4908700000000 1.0
C      1  0.4828830000000  0.6039770000000  0.4955280000000 1.0
C      1  0.3979510000000  0.5458040000000  0.4725990000000 1.0
C      1  0.3898340000000  0.5396340000000  0.5314120000000 1.0
C      1  0.5178690000000  0.3681900000000  0.4751590000000 1.0
C      1  0.5313270000000  0.3739610000000  0.5239250000000 1.0
C      1  0.4321830000000  0.4547930000000  0.4159310000000 1.0
C      1  0.4311760000000  0.4514870000000  0.5819510000000 1.0
C      1  0.5790530000000  0.4574930000000  0.5854760000000 1.0
C      1  0.5800250000000  0.4582420000000  0.4197260000000 1.0
C      1  0.6129080000000  0.4551190000000  0.4898360000000 1.0
C      1  0.6131060000000  0.4548010000000  0.5164340000000 1.0
C      1  0.5538620000000  0.3308760000000  0.5268890000000 1.0
C      1  0.5357900000000  0.3230430000000  0.4714740000000 1.0
C      1  0.4169400000000  0.5774210000000  0.5381510000000 1.0
C      1  0.4139600000000  0.5926270000000  0.4846010000000 1.0
C      1  0.4837520000000  0.4311930000000  0.5321870000000 1.0
C      1  0.4828920000000  0.4318880000000  0.4666720000000 1.0
END
