TITL C-3201375-1262-86 45577.4012123427 125000 -213.791275703899 0 0 36 (C1) n - 1
REM
REM in /home/nfs/bkarasulu/CARBON/AIRSS/Generating-Clusters/LCBOP/Higher-Symm/SD-CG/FIRE-CG
REM
REM
REM
REM
REM
REM ./C.cell (b20cbc046b6831c77cfcea5457e17084)
REM AIRSS Version 0.9.1 bugfix July 2018 build 013d7b7c2542+ Fri, 06 Jul 2018 19:26:36 +0100
REM compiler GCC version 9.2.1 20190827 (Red Hat 9.2.1-1)
REM options -cpp -mtune=generic -march=x86-64 -g -O0 -fpre-include=/usr/include/finclude/math-vector-fortran.h
REM seed 1906062575 -933298974 -1369145640 1951044869 -18467161 1976339360 57188870 1338262585 -1160592204 -1716917212 1226885591 -1463369842 -1681184975 -96269713 1797381667 1138470364 893156673 461531774 1467938427 1158211866 -408875285 -129122898 -816202912 1231972545 -736022924 57146886 951632153 -372736157 1755904614 1492842820 -978207956 88764956 406459196
REM
CELL 1.54180   50.00000   50.00000   50.00000   90.00000   90.00000   90.00000
LATT -1
SFAC C  
C      1  0.5079080000000  0.4662060000000  0.5067860000000 1.0
C      1  0.4370590000000  0.4983790000000  0.5762660000000 1.0
C      1  0.5167400000000  0.5468140000000  0.5359380000000 1.0
C      1  0.5359190000000  0.5094660000000  0.4219860000000 1.0
C      1  0.5383530000000  0.4478680000000  0.4019870000000 1.0
C      1  0.5359470000000  0.4948860000000  0.3543620000000 1.0
C      1  0.5355410000000  0.5204390000000  0.3976800000000 1.0
C      1  0.5380650000000  0.4615770000000  0.4248660000000 1.0
C      1  0.5368580000000  0.4681480000000  0.3559630000000 1.0
C      1  0.5379610000000  0.5380360000000  0.5197800000000 1.0
C      1  0.4798740000000  0.4645630000000  0.5083100000000 1.0
C      1  0.4369960000000  0.5270430000000  0.5733400000000 1.0
C      1  0.5471580000000  0.5139680000000  0.5084900000000 1.0
C      1  0.4582770000000  0.4770940000000  0.5209090000000 1.0
C      1  0.4544450000000  0.5411080000000  0.5555500000000 1.0
C      1  0.5348210000000  0.4880390000000  0.4660810000000 1.0
C      1  0.4135680000000  0.4704490000000  0.5428230000000 1.0
C      1  0.4817920000000  0.5816820000000  0.5450590000000 1.0
C      1  0.5012860000000  0.5267900000000  0.5491610000000 1.0
C      1  0.5234240000000  0.4735810000000  0.5300040000000 1.0
C      1  0.4626730000000  0.4872470000000  0.5682340000000 1.0
C      1  0.5364630000000  0.4863730000000  0.4380140000000 1.0
C      1  0.5378250000000  0.4496760000000  0.3753270000000 1.0
C      1  0.5354880000000  0.5155350000000  0.3714080000000 1.0
C      1  0.5061680000000  0.5729180000000  0.5374250000000 1.0
C      1  0.5199380000000  0.4696020000000  0.4814560000000 1.0
C      1  0.4150160000000  0.4831680000000  0.5667770000000 1.0
C      1  0.5139130000000  0.4740180000000  0.5558940000000 1.0
C      1  0.4871540000000  0.4809620000000  0.5788210000000 1.0
C      1  0.5108760000000  0.5084070000000  0.5674790000000 1.0
C      1  0.5471330000000  0.5088660000000  0.4807740000000 1.0
C      1  0.4315880000000  0.4678170000000  0.5227350000000 1.0
C      1  0.4595630000000  0.5686310000000  0.5531090000000 1.0
C      1  0.4651590000000  0.4963820000000  0.5403830000000 1.0
C      1  0.4735440000000  0.5236160000000  0.5422690000000 1.0
C      1  0.5455080000000  0.4906460000000  0.5245560000000 1.0
END
