TITL C-3201372-1405-109 1.37418019548987 125000 -281.487331725529 0 0 48 (C1) n - 1
REM
REM in /home/nfs/bkarasulu/CARBON/AIRSS/Generating-Clusters/LCBOP/Higher-Symm/SD-CG/FIRE-CG
REM
REM
REM
REM
REM
REM ./C.cell (b20cbc046b6831c77cfcea5457e17084)
REM AIRSS Version 0.9.1 bugfix July 2018 build 013d7b7c2542+ Fri, 06 Jul 2018 19:26:36 +0100
REM compiler GCC version 9.2.1 20190827 (Red Hat 9.2.1-1)
REM options -cpp -mtune=generic -march=x86-64 -g -O0 -fpre-include=/usr/include/finclude/math-vector-fortran.h
REM seed 785655921 -84749636 1314774396 516282655 -347596337 -1493600444 -1120569967 117663209 -1258122277 -2081904008 -44916217 727498743 -1953256645 -106421881 -379472450 -535996215 -1067405823 1816145578 810049570 182102985 388836775 1023964209 -870719755 1684023812 514537164 -129045915 43384623 692687691 141535829 -1615994424 -870117361 1266402129 2044101384
REM
CELL 1.54180   50.00000   50.00000   50.00000   90.00000   90.00000   90.00000
LATT -1
SFAC C  
C      1  0.5057850000000  0.5579130000000  0.5135520000000 1.0
C      1  0.4559800000000  0.4566080000000  0.5567260000000 1.0
C      1  0.4717310000000  0.4728120000000  0.5714150000000 1.0
C      1  0.5161340000000  0.4338120000000  0.4603020000000 1.0
C      1  0.5278330000000  0.5358730000000  0.4707680000000 1.0
C      1  0.5450170000000  0.5577360000000  0.5371140000000 1.0
C      1  0.4915340000000  0.5430380000000  0.4396530000000 1.0
C      1  0.5542380000000  0.5269470000000  0.4631830000000 1.0
C      1  0.4175620000000  0.4865580000000  0.4879620000000 1.0
C      1  0.5098490000000  0.4542820000000  0.5311450000000 1.0
C      1  0.5513040000000  0.5567140000000  0.5101750000000 1.0
C      1  0.5713480000000  0.4228230000000  0.5027570000000 1.0
C      1  0.4573870000000  0.5771210000000  0.4987140000000 1.0
C      1  0.5289380000000  0.4782150000000  0.4514100000000 1.0
C      1  0.4869610000000  0.4725520000000  0.4665040000000 1.0
C      1  0.5049960000000  0.5398340000000  0.5618980000000 1.0
C      1  0.5883270000000  0.4053500000000  0.5131420000000 1.0
C      1  0.4561140000000  0.5093360000000  0.5075330000000 1.0
C      1  0.5252170000000  0.4346600000000  0.4876400000000 1.0
C      1  0.6220400000000  0.3706980000000  0.5338070000000 1.0
C      1  0.4420800000000  0.4861750000000  0.4997770000000 1.0
C      1  0.4887490000000  0.5015170000000  0.4638110000000 1.0
C      1  0.5760290000000  0.5113090000000  0.4681570000000 1.0
C      1  0.4090620000000  0.5883780000000  0.4801120000000 1.0
C      1  0.3848180000000  0.5935390000000  0.4707400000000 1.0
C      1  0.5075740000000  0.4591630000000  0.4503720000000 1.0
C      1  0.3367170000000  0.6037740000000  0.4521440000000 1.0
C      1  0.4564170000000  0.4619920000000  0.5054330000000 1.0
C      1  0.4332800000000  0.5830960000000  0.4894810000000 1.0
C      1  0.5254190000000  0.4970980000000  0.4989140000000 1.0
C      1  0.5061520000000  0.4999860000000  0.5188920000000 1.0
C      1  0.5273230000000  0.5524140000000  0.4940380000000 1.0
C      1  0.5822750000000  0.4864450000000  0.4782590000000 1.0
C      1  0.4810870000000  0.5688630000000  0.5071760000000 1.0
C      1  0.4816510000000  0.5132350000000  0.5146780000000 1.0
C      1  0.4977020000000  0.5159140000000  0.5717260000000 1.0
C      1  0.6053230000000  0.3878800000000  0.5235600000000 1.0
C      1  0.5535120000000  0.4413180000000  0.4921210000000 1.0
C      1  0.5164360000000  0.5545810000000  0.5410780000000 1.0
C      1  0.4516220000000  0.4506680000000  0.5308630000000 1.0
C      1  0.4810730000000  0.4580150000000  0.4913210000000 1.0
C      1  0.4936680000000  0.4890150000000  0.5642620000000 1.0
C      1  0.3605680000000  0.5986990000000  0.4613650000000 1.0
C      1  0.5029110000000  0.5263480000000  0.4585110000000 1.0
C      1  0.5379900000000  0.4835370000000  0.4779160000000 1.0
C      1  0.5612610000000  0.4680490000000  0.4848880000000 1.0
C      1  0.5067070000000  0.4808960000000  0.5401850000000 1.0
C      1  0.5043010000000  0.4452150000000  0.5048220000000 1.0
END
