TITL C-3201376-6384-195 16.1704465285728 125000 -770.211932153745 0 0 128 (C1) n - 1
REM
REM in /home/nfs/bkarasulu/CARBON/AIRSS/Generating-Clusters/LCBOP/Higher-Symm/SD-CG/FIRE-CG
REM
REM
REM
REM
REM
REM ./C.cell (b20cbc046b6831c77cfcea5457e17084)
REM AIRSS Version 0.9.1 bugfix July 2018 build 013d7b7c2542+ Fri, 06 Jul 2018 19:26:36 +0100
REM compiler GCC version 9.2.1 20190827 (Red Hat 9.2.1-1)
REM options -cpp -mtune=generic -march=x86-64 -g -O0 -fpre-include=/usr/include/finclude/math-vector-fortran.h
REM seed 209770596 -1603496317 1308441374 1351886502 -605758770 791327458 1945437790 1001554215 -2076174130 1586177923 407967433 -705227217 285977856 599048084 -1011643323 -1487581787 1025939938 -1952078371 808772371 -175199738 -636188256 -103471424 -970661723 368915313 -1495719247 1061192072 -794520808 -1928758392 158240080 381049603 327930451 -1531361418 1723852970
REM
CELL 1.54180   50.00000   50.00000   50.00000   90.00000   90.00000   90.00000
LATT -1
SFAC C  
C      1  0.5768380000000  0.5390240000000  0.4605000000000 1.0
C      1  0.4226730000000  0.5033460000000  0.5375280000000 1.0
C      1  0.3635090000000  0.4942210000000  0.5022510000000 1.0
C      1  0.5364510000000  0.4997570000000  0.4456280000000 1.0
C      1  0.5625140000000  0.4637360000000  0.4127710000000 1.0
C      1  0.4332150000000  0.5424320000000  0.4562900000000 1.0
C      1  0.5447820000000  0.5662940000000  0.4360840000000 1.0
C      1  0.5295690000000  0.4070310000000  0.4451880000000 1.0
C      1  0.5418080000000  0.4699570000000  0.4848610000000 1.0
C      1  0.5748080000000  0.4924220000000  0.5964130000000 1.0
C      1  0.4727170000000  0.4956320000000  0.4545250000000 1.0
C      1  0.4900680000000  0.5052880000000  0.5562390000000 1.0
C      1  0.4414110000000  0.4247460000000  0.4786520000000 1.0
C      1  0.3923310000000  0.4369220000000  0.5605720000000 1.0
C      1  0.4538760000000  0.4964670000000  0.5891270000000 1.0
C      1  0.5554930000000  0.4483240000000  0.5549210000000 1.0
C      1  0.5791390000000  0.4786350000000  0.5277160000000 1.0
C      1  0.5558810000000  0.5085110000000  0.6063260000000 1.0
C      1  0.5548950000000  0.5158160000000  0.5445830000000 1.0
C      1  0.5947270000000  0.5419740000000  0.5357200000000 1.0
C      1  0.5308270000000  0.5862700000000  0.4526120000000 1.0
C      1  0.5101420000000  0.4023530000000  0.4927900000000 1.0
C      1  0.4611700000000  0.4402530000000  0.5314980000000 1.0
C      1  0.4848730000000  0.4722230000000  0.4670220000000 1.0
C      1  0.5035280000000  0.6106500000000  0.4926730000000 1.0
C      1  0.5330620000000  0.5322090000000  0.5472600000000 1.0
C      1  0.5321530000000  0.4081550000000  0.5102350000000 1.0
C      1  0.5001650000000  0.5151750000000  0.4927430000000 1.0
C      1  0.5326910000000  0.5244050000000  0.4591610000000 1.0
C      1  0.4243120000000  0.5164270000000  0.4652910000000 1.0
C      1  0.6046610000000  0.5309440000000  0.5100240000000 1.0
C      1  0.5652500000000  0.4656700000000  0.4645720000000 1.0
C      1  0.5636800000000  0.5822590000000  0.5250290000000 1.0
C      1  0.5504200000000  0.5439660000000  0.4975980000000 1.0
C      1  0.4751530000000  0.4722690000000  0.3975710000000 1.0
C      1  0.4573550000000  0.4944290000000  0.3966320000000 1.0
C      1  0.4444960000000  0.5480000000000  0.5739130000000 1.0
C      1  0.4181390000000  0.5559880000000  0.5283860000000 1.0
C      1  0.5753910000000  0.5545060000000  0.4847750000000 1.0
C      1  0.4379640000000  0.5217070000000  0.5865050000000 1.0
C      1  0.4792140000000  0.4379310000000  0.5093240000000 1.0
C      1  0.4827500000000  0.4106510000000  0.4999460000000 1.0
C      1  0.4186460000000  0.4406680000000  0.5553390000000 1.0
C      1  0.4648010000000  0.4469070000000  0.5600910000000 1.0
C      1  0.4845430000000  0.6128640000000  0.5118100000000 1.0
C      1  0.5587190000000  0.4145910000000  0.5015430000000 1.0
C      1  0.5304230000000  0.5207400000000  0.4888720000000 1.0
C      1  0.5156180000000  0.5772280000000  0.5354420000000 1.0
C      1  0.4077790000000  0.5223140000000  0.4889890000000 1.0
C      1  0.5209070000000  0.4526930000000  0.4890490000000 1.0
C      1  0.4596140000000  0.4479340000000  0.3983790000000 1.0
C      1  0.4455830000000  0.4979080000000  0.4653270000000 1.0
C      1  0.4641130000000  0.4079560000000  0.4774070000000 1.0
C      1  0.4747990000000  0.5281290000000  0.5459420000000 1.0
C      1  0.5324390000000  0.5056490000000  0.3997840000000 1.0
C      1  0.3442000000000  0.4785490000000  0.5100710000000 1.0
C      1  0.4329840000000  0.4931200000000  0.4089020000000 1.0
C      1  0.4601920000000  0.4896250000000  0.5090060000000 1.0
C      1  0.6021920000000  0.5548700000000  0.4938210000000 1.0
C      1  0.5523730000000  0.4842920000000  0.3976910000000 1.0
C      1  0.5875100000000  0.5706270000000  0.5368330000000 1.0
C      1  0.4821180000000  0.4078230000000  0.4546380000000 1.0
C      1  0.5856080000000  0.4774530000000  0.5769050000000 1.0
C      1  0.4389440000000  0.4506900000000  0.5732700000000 1.0
C      1  0.4879620000000  0.5674210000000  0.4422510000000 1.0
C      1  0.5345620000000  0.5245550000000  0.6076340000000 1.0
C      1  0.5154200000000  0.5488670000000  0.5346140000000 1.0
C      1  0.4042880000000  0.5055970000000  0.5570750000000 1.0
C      1  0.5271400000000  0.5944690000000  0.4873750000000 1.0
C      1  0.6046370000000  0.5874620000000  0.5503780000000 1.0
C      1  0.5400690000000  0.5584360000000  0.4086220000000 1.0
C      1  0.4995030000000  0.4009970000000  0.5487010000000 1.0
C      1  0.4486180000000  0.5070430000000  0.5286420000000 1.0
C      1  0.4886060000000  0.5133280000000  0.4362340000000 1.0
C      1  0.4495720000000  0.5433050000000  0.4334420000000 1.0
C      1  0.5364570000000  0.5868560000000  0.5159290000000 1.0
C      1  0.4928990000000  0.4548250000000  0.4887010000000 1.0
C      1  0.5469050000000  0.3959300000000  0.5557700000000 1.0
C      1  0.5650610000000  0.4934980000000  0.4540270000000 1.0
C      1  0.5064470000000  0.5883110000000  0.4376810000000 1.0
C      1  0.5031580000000  0.4430700000000  0.4253180000000 1.0
C      1  0.4778860000000  0.5738730000000  0.4679550000000 1.0
C      1  0.4262190000000  0.5580370000000  0.5540950000000 1.0
C      1  0.5288740000000  0.4420280000000  0.5477760000000 1.0
C      1  0.4389110000000  0.5547970000000  0.4825120000000 1.0
C      1  0.5426170000000  0.4948370000000  0.4999840000000 1.0
C      1  0.5093320000000  0.4005660000000  0.4636880000000 1.0
C      1  0.5264880000000  0.4272600000000  0.4273210000000 1.0
C      1  0.4843750000000  0.5387550000000  0.4985100000000 1.0
C      1  0.4192810000000  0.5461960000000  0.5020580000000 1.0
C      1  0.5940170000000  0.4786470000000  0.5030720000000 1.0
C      1  0.4666500000000  0.5571210000000  0.4866850000000 1.0
C      1  0.5142750000000  0.4967100000000  0.4231800000000 1.0
C      1  0.5842620000000  0.5117870000000  0.4658840000000 1.0
C      1  0.3841950000000  0.5093230000000  0.4954780000000 1.0
C      1  0.5798420000000  0.5257200000000  0.5528440000000 1.0
C      1  0.4868510000000  0.4619730000000  0.5691570000000 1.0
C      1  0.4899590000000  0.4930030000000  0.5093800000000 1.0
C      1  0.5562750000000  0.4958690000000  0.5248450000000 1.0
C      1  0.5860460000000  0.4567790000000  0.4849620000000 1.0
C      1  0.4732150000000  0.5518750000000  0.5659600000000 1.0
C      1  0.5514100000000  0.5432950000000  0.4498800000000 1.0
C      1  0.4359910000000  0.4537200000000  0.4411080000000 1.0
C      1  0.5795560000000  0.4306090000000  0.4949780000000 1.0
C      1  0.5261120000000  0.4126690000000  0.5399560000000 1.0
C      1  0.5982310000000  0.5061750000000  0.4925840000000 1.0
C      1  0.4794560000000  0.4285180000000  0.4352920000000 1.0
C      1  0.4921640000000  0.5494280000000  0.5885110000000 1.0
C      1  0.4785040000000  0.5413300000000  0.4328680000000 1.0
C      1  0.4235040000000  0.4751070000000  0.4269540000000 1.0
C      1  0.4796090000000  0.4897180000000  0.5778000000000 1.0
C      1  0.4548620000000  0.4383000000000  0.4249350000000 1.0
C      1  0.4996110000000  0.4699910000000  0.4140980000000 1.0
C      1  0.4102770000000  0.5151750000000  0.5818030000000 1.0
C      1  0.4526590000000  0.6144790000000  0.5486310000000 1.0
C      1  0.5779160000000  0.4650690000000  0.5527090000000 1.0
C      1  0.5361380000000  0.5339810000000  0.3967970000000 1.0
C      1  0.5020640000000  0.4877000000000  0.5352870000000 1.0
C      1  0.4887240000000  0.5816500000000  0.5480600000000 1.0
C      1  0.4323480000000  0.4353680000000  0.5304420000000 1.0
C      1  0.5129650000000  0.5391460000000  0.6017770000000 1.0
C      1  0.4374750000000  0.4517300000000  0.4705180000000 1.0
C      1  0.4899460000000  0.5414820000000  0.5255760000000 1.0
C      1  0.5660340000000  0.4518810000000  0.4375750000000 1.0
C      1  0.4443480000000  0.4768620000000  0.4860430000000 1.0
C      1  0.5087300000000  0.4624370000000  0.5494000000000 1.0
C      1  0.4743280000000  0.6031220000000  0.5366070000000 1.0
C      1  0.4379540000000  0.4723250000000  0.5915090000000 1.0
END
