TITL C-3201373-1215-1932 -7.1531704598212e-07 125000 -1243.68579894268 0 0 199 (C1) n - 1
REM
REM in /home/nfs/bkarasulu/CARBON/AIRSS/Generating-Clusters/LCBOP/Higher-Symm/SD-CG/FIRE-CG
REM
REM
REM
REM
REM
REM ./C.cell (b20cbc046b6831c77cfcea5457e17084)
REM AIRSS Version 0.9.1 bugfix July 2018 build 013d7b7c2542+ Fri, 06 Jul 2018 19:26:36 +0100
REM compiler GCC version 9.2.1 20190827 (Red Hat 9.2.1-1)
REM options -cpp -mtune=generic -march=x86-64 -g -O0 -fpre-include=/usr/include/finclude/math-vector-fortran.h
REM seed 1328914781 -1108926435 -1040453418 -1814949824 -758404574 668207061 -790303348 -594796443 178024732 -83221951 -1188240274 848882466 -551681607 -1817144203 -651409428 290969870 -1596048772 -1757795265 -1218048383 -1938266176 1832961303 -228239924 179608804 -460199443 -1510480877 -874725378 -1573224757 1128267379 -2139084610 1286639932 725801063 -1379250800 1562674804
REM
CELL 1.54180   50.00000   50.00000   50.00000   90.00000   90.00000   90.00000
LATT -1
SFAC C  
C      1  0.4953150000000  0.4561580000000  0.5254610000000 1.0
C      1  0.5011890000000  0.4993450000000  0.5504320000000 1.0
C      1  0.5028350000000  0.5424650000000  0.5264860000000 1.0
C      1  0.4921880000000  0.5445290000000  0.4783590000000 1.0
C      1  0.4790150000000  0.4950910000000  0.4578000000000 1.0
C      1  0.4807300000000  0.4616370000000  0.4799280000000 1.0
C      1  0.5246530000000  0.4575500000000  0.5241160000000 1.0
C      1  0.5202460000000  0.5002690000000  0.5297780000000 1.0
C      1  0.5287620000000  0.5412350000000  0.5139890000000 1.0
C      1  0.5188800000000  0.5381690000000  0.4753260000000 1.0
C      1  0.5049380000000  0.5002060000000  0.4489420000000 1.0
C      1  0.5066030000000  0.4555220000000  0.4722110000000 1.0
C      1  0.5073500000000  0.5903100000000  0.5236260000000 1.0
C      1  0.5168750000000  0.5655620000000  0.4346120000000 1.0
C      1  0.5190850000000  0.4742320000000  0.4103990000000 1.0
C      1  0.5080790000000  0.4097250000000  0.4766700000000 1.0
C      1  0.5144450000000  0.4359520000000  0.5662520000000 1.0
C      1  0.5157170000000  0.5244910000000  0.5891160000000 1.0
C      1  0.4786030000000  0.5893080000000  0.5248050000000 1.0
C      1  0.4881980000000  0.5647150000000  0.4351890000000 1.0
C      1  0.4903920000000  0.4737650000000  0.4108650000000 1.0
C      1  0.4793890000000  0.4108970000000  0.4756820000000 1.0
C      1  0.4858150000000  0.4360050000000  0.5661070000000 1.0
C      1  0.4869590000000  0.5248980000000  0.5889530000000 1.0
C      1  0.5885220000000  0.4807340000000  0.4185090000000 1.0
C      1  0.5850150000000  0.4212710000000  0.4764710000000 1.0
C      1  0.5867210000000  0.4397520000000  0.5575610000000 1.0
C      1  0.5873180000000  0.5193790000000  0.5815400000000 1.0
C      1  0.5850380000000  0.5790130000000  0.5239140000000 1.0
C      1  0.5881660000000  0.5606730000000  0.4425830000000 1.0
C      1  0.4162390000000  0.4808700000000  0.4189650000000 1.0
C      1  0.4124570000000  0.4190480000000  0.4752620000000 1.0
C      1  0.4139720000000  0.4383790000000  0.5570340000000 1.0
C      1  0.4146870000000  0.5184820000000  0.5816790000000 1.0
C      1  0.4121570000000  0.5803410000000  0.5252670000000 1.0
C      1  0.4150910000000  0.5608740000000  0.4436010000000 1.0
C      1  0.6002650000000  0.5282540000000  0.5065430000000 1.0
C      1  0.5998170000000  0.5197280000000  0.4790240000000 1.0
C      1  0.5986900000000  0.4917140000000  0.4728200000000 1.0
C      1  0.5987580000000  0.4724360000000  0.4941150000000 1.0
C      1  0.5996230000000  0.4808250000000  0.5216150000000 1.0
C      1  0.6001790000000  0.5088950000000  0.5278960000000 1.0
C      1  0.4065850000000  0.5276230000000  0.5067230000000 1.0
C      1  0.4063360000000  0.5191290000000  0.4794430000000 1.0
C      1  0.4062220000000  0.4912750000000  0.4728580000000 1.0
C      1  0.4056700000000  0.4715640000000  0.4935490000000 1.0
C      1  0.4061940000000  0.4800730000000  0.5208280000000 1.0
C      1  0.4068940000000  0.5079020000000  0.5273680000000 1.0
C      1  0.4674890000000  0.5663590000000  0.5856300000000 1.0
C      1  0.4625370000000  0.6105490000000  0.4877680000000 1.0
C      1  0.4697800000000  0.5402170000000  0.4010170000000 1.0
C      1  0.4696690000000  0.4326090000000  0.4143410000000 1.0
C      1  0.4633030000000  0.3906570000000  0.5131970000000 1.0
C      1  0.4672500000000  0.4594310000000  0.6007470000000 1.0
C      1  0.5331920000000  0.5665910000000  0.5876410000000 1.0
C      1  0.5284750000000  0.6060560000000  0.4855870000000 1.0
C      1  0.5355460000000  0.5421750000000  0.3988920000000 1.0
C      1  0.5363250000000  0.4318700000000  0.4102930000000 1.0
C      1  0.5288670000000  0.3948590000000  0.5151170000000 1.0
C      1  0.5330160000000  0.4585560000000  0.6012180000000 1.0
C      1  0.5303050000000  0.4709690000000  0.4788830000000 1.0
C      1  0.5422410000000  0.4707770000000  0.5053750000000 1.0
C      1  0.5471490000000  0.4969760000000  0.5188970000000 1.0
C      1  0.5484220000000  0.5214280000000  0.5039470000000 1.0
C      1  0.5391950000000  0.5191250000000  0.4757220000000 1.0
C      1  0.5297010000000  0.4952970000000  0.4638640000000 1.0
C      1  0.4647220000000  0.4778620000000  0.4959490000000 1.0
C      1  0.4732730000000  0.4765370000000  0.5228610000000 1.0
C      1  0.4759900000000  0.5028110000000  0.5358140000000 1.0
C      1  0.4780680000000  0.5275750000000  0.5199400000000 1.0
C      1  0.4730840000000  0.5275390000000  0.4918480000000 1.0
C      1  0.4646990000000  0.5031230000000  0.4803750000000 1.0
C      1  0.5113420000000  0.3739630000000  0.5854750000000 1.0
C      1  0.5138990000000  0.5108510000000  0.6527820000000 1.0
C      1  0.5134610000000  0.6367190000000  0.5673050000000 1.0
C      1  0.5110830000000  0.6273150000000  0.4153730000000 1.0
C      1  0.5156510000000  0.4898310000000  0.3473530000000 1.0
C      1  0.5148190000000  0.3624770000000  0.4338510000000 1.0
C      1  0.4840040000000  0.3739030000000  0.5847840000000 1.0
C      1  0.4865610000000  0.5111730000000  0.6523970000000 1.0
C      1  0.4861660000000  0.6379110000000  0.5683800000000 1.0
C      1  0.4837560000000  0.6265740000000  0.4160350000000 1.0
C      1  0.4883260000000  0.4894090000000  0.3483300000000 1.0
C      1  0.4875180000000  0.3612240000000  0.4331760000000 1.0
C      1  0.5350450000000  0.5231920000000  0.6106500000000 1.0
C      1  0.5299560000000  0.6048110000000  0.5346530000000 1.0
C      1  0.5346730000000  0.5855770000000  0.4256790000000 1.0
C      1  0.5379110000000  0.4761790000000  0.3884700000000 1.0
C      1  0.5307010000000  0.3950400000000  0.4659680000000 1.0
C      1  0.5337120000000  0.4164940000000  0.5756100000000 1.0
C      1  0.4667260000000  0.5234150000000  0.6095740000000 1.0
C      1  0.4615360000000  0.6092090000000  0.5372040000000 1.0
C      1  0.4670400000000  0.5823550000000  0.4264730000000 1.0
C      1  0.4692730000000  0.4761880000000  0.3912170000000 1.0
C      1  0.4625440000000  0.3906710000000  0.4636080000000 1.0
C      1  0.4654600000000  0.4175490000000  0.5748790000000 1.0
C      1  0.4153920000000  0.5315360000000  0.4045330000000 1.0
C      1  0.4155920000000  0.4325650000000  0.4241600000000 1.0
C      1  0.4120500000000  0.3999740000000  0.5201620000000 1.0
C      1  0.4131060000000  0.4677910000000  0.5960820000000 1.0
C      1  0.4132970000000  0.5668410000000  0.5764930000000 1.0
C      1  0.4119290000000  0.5993680000000  0.4803620000000 1.0
C      1  0.5890110000000  0.5316200000000  0.4036760000000 1.0
C      1  0.5878500000000  0.4325320000000  0.4247510000000 1.0
C      1  0.5835110000000  0.4019420000000  0.5209580000000 1.0
C      1  0.5859420000000  0.4685090000000  0.5965570000000 1.0
C      1  0.5857690000000  0.5675350000000  0.5755570000000 1.0
C      1  0.5828410000000  0.5981090000000  0.4793770000000 1.0
C      1  0.4707180000000  0.6140130000000  0.5645990000000 1.0
C      1  0.4706020000000  0.6097320000000  0.4352260000000 1.0
C      1  0.4748530000000  0.4974680000000  0.3723270000000 1.0
C      1  0.4722090000000  0.3853130000000  0.4363050000000 1.0
C      1  0.4702870000000  0.3904760000000  0.5657520000000 1.0
C      1  0.4726750000000  0.5025710000000  0.6288280000000 1.0
C      1  0.5263030000000  0.6115300000000  0.5625040000000 1.0
C      1  0.5259520000000  0.6119510000000  0.4344570000000 1.0
C      1  0.5305610000000  0.4979910000000  0.3705250000000 1.0
C      1  0.5276390000000  0.3878010000000  0.4381160000000 1.0
C      1  0.5258730000000  0.3898520000000  0.5665410000000 1.0
C      1  0.5282390000000  0.5021170000000  0.6295030000000 1.0
C      1  0.5965320000000  0.5172290000000  0.5546810000000 1.0
C      1  0.5962870000000  0.5554790000000  0.5127460000000 1.0
C      1  0.5971510000000  0.5387840000000  0.4583340000000 1.0
C      1  0.5952100000000  0.4832490000000  0.4460790000000 1.0
C      1  0.5948770000000  0.4452680000000  0.4878790000000 1.0
C      1  0.5961510000000  0.4617550000000  0.5422040000000 1.0
C      1  0.4088210000000  0.5158740000000  0.5541640000000 1.0
C      1  0.4075540000000  0.5550100000000  0.5132470000000 1.0
C      1  0.4079110000000  0.5383510000000  0.4591230000000 1.0
C      1  0.4086050000000  0.4832960000000  0.4460740000000 1.0
C      1  0.4064330000000  0.4441590000000  0.4870760000000 1.0
C      1  0.4074260000000  0.4608870000000  0.5412110000000 1.0
C      1  0.4124180000000  0.4135800000000  0.5434430000000 1.0
C      1  0.4127640000000  0.4946490000000  0.5965970000000 1.0
C      1  0.4112230000000  0.5805540000000  0.5534790000000 1.0
C      1  0.4130650000000  0.5856630000000  0.4571570000000 1.0
C      1  0.4150310000000  0.5047020000000  0.4040110000000 1.0
C      1  0.4127500000000  0.4188330000000  0.4470530000000 1.0
C      1  0.5859550000000  0.4150300000000  0.5441770000000 1.0
C      1  0.5872080000000  0.4953080000000  0.5962280000000 1.0
C      1  0.5854890000000  0.5804270000000  0.5520380000000 1.0
C      1  0.5862060000000  0.5852590000000  0.4561330000000 1.0
C      1  0.5896500000000  0.5047700000000  0.4037640000000 1.0
C      1  0.5865850000000  0.4197870000000  0.4483610000000 1.0
C      1  0.5766940000000  0.4445330000000  0.5841870000000 1.0
C      1  0.5771750000000  0.5449220000000  0.5906430000000 1.0
C      1  0.5729070000000  0.5980570000000  0.5060020000000 1.0
C      1  0.5794350000000  0.5557830000000  0.4154940000000 1.0
C      1  0.5796790000000  0.4548310000000  0.4088650000000 1.0
C      1  0.5733980000000  0.4019200000000  0.4944190000000 1.0
C      1  0.4232330000000  0.4441130000000  0.5838810000000 1.0
C      1  0.4238060000000  0.5443520000000  0.5905320000000 1.0
C      1  0.4198310000000  0.6022190000000  0.5078310000000 1.0
C      1  0.4252070000000  0.5551290000000  0.4170810000000 1.0
C      1  0.4260930000000  0.4552090000000  0.4104100000000 1.0
C      1  0.4204650000000  0.3974450000000  0.4928360000000 1.0
C      1  0.5515540000000  0.5484480000000  0.6044390000000 1.0
C      1  0.5466660000000  0.6096180000000  0.5096350000000 1.0
C      1  0.5542300000000  0.5655450000000  0.4048770000000 1.0
C      1  0.5546490000000  0.4506410000000  0.3937910000000 1.0
C      1  0.5470970000000  0.3904730000000  0.4911670000000 1.0
C      1  0.5508650000000  0.4346550000000  0.5938250000000 1.0
C      1  0.4499760000000  0.5479760000000  0.6025250000000 1.0
C      1  0.4448810000000  0.6176500000000  0.5123620000000 1.0
C      1  0.4514560000000  0.5636810000000  0.4082980000000 1.0
C      1  0.4522250000000  0.4517860000000  0.3983640000000 1.0
C      1  0.4459330000000  0.3827110000000  0.4886130000000 1.0
C      1  0.4493720000000  0.4356460000000  0.5932630000000 1.0
C      1  0.4695860000000  0.5837130000000  0.4970960000000 1.0
C      1  0.4820060000000  0.5366990000000  0.4270940000000 1.0
C      1  0.4837200000000  0.4522290000000  0.4300730000000 1.0
C      1  0.4702940000000  0.4173410000000  0.5033150000000 1.0
C      1  0.4788640000000  0.4637630000000  0.5744920000000 1.0
C      1  0.4798760000000  0.5459930000000  0.5692650000000 1.0
C      1  0.5130100000000  0.5839250000000  0.4952740000000 1.0
C      1  0.5254100000000  0.5389180000000  0.4256470000000 1.0
C      1  0.5271800000000  0.4524470000000  0.4287910000000 1.0
C      1  0.5137400000000  0.4170050000000  0.5047910000000 1.0
C      1  0.5223800000000  0.4632210000000  0.5746720000000 1.0
C      1  0.5234000000000  0.5457340000000  0.5699220000000 1.0
C      1  0.5202570000000  0.5241890000000  0.3811950000000 1.0
C      1  0.5188380000000  0.4080040000000  0.4180350000000 1.0
C      1  0.5151970000000  0.3859660000000  0.5388800000000 1.0
C      1  0.5177880000000  0.4757800000000  0.6195970000000 1.0
C      1  0.5167010000000  0.5906950000000  0.5813710000000 1.0
C      1  0.5150230000000  0.6155910000000  0.4620350000000 1.0
C      1  0.4850440000000  0.5236820000000  0.3821670000000 1.0
C      1  0.4832030000000  0.4073600000000  0.4187930000000 1.0
C      1  0.4798540000000  0.3852700000000  0.5378590000000 1.0
C      1  0.4827630000000  0.4761180000000  0.6193290000000 1.0
C      1  0.4815200000000  0.5913550000000  0.5813280000000 1.0
C      1  0.4795290000000  0.6158680000000  0.4631230000000 1.0
C      1  0.4902550000000  0.5714450000000  0.4834430000000 1.0
C      1  0.5010660000000  0.4807700000000  0.5703130000000 1.0
C      1  0.5050960000000  0.5205140000000  0.4304040000000 1.0
C      1  0.5021540000000  0.5509880000000  0.5526690000000 1.0
C      1  0.5063890000000  0.4465430000000  0.4461520000000 1.0
C      1  0.4910450000000  0.4299630000000  0.5166750000000 1.0
C      1  0.5060830000000  0.4985330000000  0.5048640000000 1.0
END
