TITL C-3201373-1215-1927 -1.23628963658924e-07 125000 -504.634646219933 0 0 83 (C1) n - 1
REM
REM in /home/nfs/bkarasulu/CARBON/AIRSS/Generating-Clusters/LCBOP/Higher-Symm/SD-CG/FIRE-CG
REM
REM
REM
REM
REM
REM ./C.cell (b20cbc046b6831c77cfcea5457e17084)
REM AIRSS Version 0.9.1 bugfix July 2018 build 013d7b7c2542+ Fri, 06 Jul 2018 19:26:36 +0100
REM compiler GCC version 9.2.1 20190827 (Red Hat 9.2.1-1)
REM options -cpp -mtune=generic -march=x86-64 -g -O0 -fpre-include=/usr/include/finclude/math-vector-fortran.h
REM seed -249702127 -2051497491 -1090117984 -1629047384 1634216900 1305913995 1906307703 1467461621 1373450247 -1469786218 716037019 -2086339898 1570174560 -663390852 1651001243 66916995 -849433218 -673414499 -1079835283 -1809549971 1380538554 -1496892003 -602478524 704519762 816069976 982936854 -470696807 1367789557 1401572058 -995738638 -2343621 1092960919 -1322880768
REM
CELL 1.54180   50.00000   50.00000   50.00000   90.00000   90.00000   90.00000
LATT -1
SFAC C  
C      1  0.4877510000000  0.4551860000000  0.4686120000000 1.0
C      1  0.4271520000000  0.4559270000000  0.4936440000000 1.0
C      1  0.4544800000000  0.4938660000000  0.4312630000000 1.0
C      1  0.4867710000000  0.4555490000000  0.5651280000000 1.0
C      1  0.4985670000000  0.5464840000000  0.4423810000000 1.0
C      1  0.5139250000000  0.5655890000000  0.5285700000000 1.0
C      1  0.5539870000000  0.4715260000000  0.4810140000000 1.0
C      1  0.5409860000000  0.5616710000000  0.5166650000000 1.0
C      1  0.4360090000000  0.5448740000000  0.4935610000000 1.0
C      1  0.6039310000000  0.4486320000000  0.5857510000000 1.0
C      1  0.5531250000000  0.4867780000000  0.4552320000000 1.0
C      1  0.4719890000000  0.4798080000000  0.5723980000000 1.0
C      1  0.6027180000000  0.4517140000000  0.5590440000000 1.0
C      1  0.5021740000000  0.5597410000000  0.5550630000000 1.0
C      1  0.5477290000000  0.5795370000000  0.4947460000000 1.0
C      1  0.4334750000000  0.4785820000000  0.4188780000000 1.0
C      1  0.4471300000000  0.4927810000000  0.5636050000000 1.0
C      1  0.5730090000000  0.5092910000000  0.4570130000000 1.0
C      1  0.5172090000000  0.5532990000000  0.4216870000000 1.0
C      1  0.5138770000000  0.4499340000000  0.5724860000000 1.0
C      1  0.4928600000000  0.4429380000000  0.4440590000000 1.0
C      1  0.4285350000000  0.5637260000000  0.5136640000000 1.0
C      1  0.4260440000000  0.4292250000000  0.4835690000000 1.0
C      1  0.5420620000000  0.4496690000000  0.4971600000000 1.0
C      1  0.4861320000000  0.4408180000000  0.5392200000000 1.0
C      1  0.4240600000000  0.5188810000000  0.4969610000000 1.0
C      1  0.5353560000000  0.4947110000000  0.4316500000000 1.0
C      1  0.4853460000000  0.4348270000000  0.4898770000000 1.0
C      1  0.4913500000000  0.5758120000000  0.5120280000000 1.0
C      1  0.4958410000000  0.5675380000000  0.4616790000000 1.0
C      1  0.5612450000000  0.5397010000000  0.5139150000000 1.0
C      1  0.5690630000000  0.4878150000000  0.5008110000000 1.0
C      1  0.4121890000000  0.4742360000000  0.4769910000000 1.0
C      1  0.4895050000000  0.5030910000000  0.5754440000000 1.0
C      1  0.4810280000000  0.4878130000000  0.4193760000000 1.0
C      1  0.5829670000000  0.4484270000000  0.6027120000000 1.0
C      1  0.5317430000000  0.5152800000000  0.4890110000000 1.0
C      1  0.5132760000000  0.4898040000000  0.5343020000000 1.0
C      1  0.4643930000000  0.5429530000000  0.4903390000000 1.0
C      1  0.4752080000000  0.5210460000000  0.5047920000000 1.0
C      1  0.4504340000000  0.4960110000000  0.4597250000000 1.0
C      1  0.5396760000000  0.4983320000000  0.5340820000000 1.0
C      1  0.4692210000000  0.4797290000000  0.4764870000000 1.0
C      1  0.4826460000000  0.5235050000000  0.5313490000000 1.0
C      1  0.5007020000000  0.5191670000000  0.4501510000000 1.0
C      1  0.5081150000000  0.5109720000000  0.4758490000000 1.0
C      1  0.4978450000000  0.4780040000000  0.5130910000000 1.0
C      1  0.4532780000000  0.4655780000000  0.5008190000000 1.0
C      1  0.4688750000000  0.5844010000000  0.5280940000000 1.0
C      1  0.5803480000000  0.5433210000000  0.4921510000000 1.0
C      1  0.5569460000000  0.4500670000000  0.5961480000000 1.0
C      1  0.5176460000000  0.5856400000000  0.4594900000000 1.0
C      1  0.5126010000000  0.4311230000000  0.5363660000000 1.0
C      1  0.4698660000000  0.4135140000000  0.4783630000000 1.0
C      1  0.4236650000000  0.5126470000000  0.5252330000000 1.0
C      1  0.4046460000000  0.4616750000000  0.4523090000000 1.0
C      1  0.5860930000000  0.4744920000000  0.5188900000000 1.0
C      1  0.4780210000000  0.4619300000000  0.4066880000000 1.0
C      1  0.4834810000000  0.5277880000000  0.5877050000000 1.0
C      1  0.5480470000000  0.5175200000000  0.4180430000000 1.0
C      1  0.5820170000000  0.4573770000000  0.5408920000000 1.0
C      1  0.4780880000000  0.5488980000000  0.5688660000000 1.0
C      1  0.5437270000000  0.5768400000000  0.4666560000000 1.0
C      1  0.4243900000000  0.4550410000000  0.4325890000000 1.0
C      1  0.4389830000000  0.5175380000000  0.5496640000000 1.0
C      1  0.5739810000000  0.5369070000000  0.4648920000000 1.0
C      1  0.5441400000000  0.5449040000000  0.4261300000000 1.0
C      1  0.5417870000000  0.4505620000000  0.5725110000000 1.0
C      1  0.4716630000000  0.4405160000000  0.4250770000000 1.0
C      1  0.4465020000000  0.5678710000000  0.5354260000000 1.0
C      1  0.4454880000000  0.4205620000000  0.4642790000000 1.0
C      1  0.5370900000000  0.4405860000000  0.5249340000000 1.0
C      1  0.4976840000000  0.5076410000000  0.5486100000000 1.0
C      1  0.5054510000000  0.4980660000000  0.4308100000000 1.0
C      1  0.5519830000000  0.5111180000000  0.5108870000000 1.0
C      1  0.4778220000000  0.4526390000000  0.5139590000000 1.0
C      1  0.4254340000000  0.4999540000000  0.4751830000000 1.0
C      1  0.4831060000000  0.5642340000000  0.4866860000000 1.0
C      1  0.5551440000000  0.4487630000000  0.5463640000000 1.0
C      1  0.5565120000000  0.5553660000000  0.4507580000000 1.0
C      1  0.4518690000000  0.5456920000000  0.5541610000000 1.0
C      1  0.4455390000000  0.4349020000000  0.4378810000000 1.0
C      1  0.4877780000000  0.4977200000000  0.4918780000000 1.0
END
