TITL C-3201379-3821-1178 8196.5511493532 125000 -658.219216490787 0 0 110 (C1) n - 1
REM
REM in /home/nfs/bkarasulu/CARBON/AIRSS/Generating-Clusters/LCBOP/Higher-Symm/SD-CG/FIRE-CG
REM
REM
REM
REM
REM
REM ./C.cell (b20cbc046b6831c77cfcea5457e17084)
REM AIRSS Version 0.9.1 bugfix July 2018 build 013d7b7c2542+ Fri, 06 Jul 2018 19:26:36 +0100
REM compiler GCC version 9.2.1 20190827 (Red Hat 9.2.1-1)
REM options -cpp -mtune=generic -march=x86-64 -g -O0 -fpre-include=/usr/include/finclude/math-vector-fortran.h
REM seed -1592382908 1458731678 -796915383 810237794 250629916 -2071707255 316651158 -979996726 -2002977431 -176812495 462372319 388412453 1171823950 311576688 -124202209 1703567941 -1121958704 1416492164 -296802730 252417094 1290480477 -1715499182 136373777 552010855 -1189382386 660100296 -819417605 -516104393 915246913 2136814115 -715425865 1367469473 2105198811
REM
CELL 1.54180   50.00000   50.00000   50.00000   90.00000   90.00000   90.00000
LATT -1
SFAC C  
C      1  0.4825980000000  0.4017820000000  0.4846840000000 1.0
C      1  0.4818620000000  0.5627120000000  0.4226480000000 1.0
C      1  0.4832560000000  0.5349910000000  0.5931450000000 1.0
C      1  0.5136300000000  0.4009080000000  0.4847720000000 1.0
C      1  0.5129200000000  0.5634910000000  0.4220000000000 1.0
C      1  0.5126660000000  0.5368350000000  0.5927590000000 1.0
C      1  0.4812390000000  0.4013550000000  0.5156930000000 1.0
C      1  0.4791800000000  0.5669720000000  0.5769340000000 1.0
C      1  0.4809690000000  0.5360710000000  0.4067500000000 1.0
C      1  0.5144190000000  0.3999810000000  0.5181420000000 1.0
C      1  0.5137920000000  0.5635020000000  0.5787450000000 1.0
C      1  0.5142050000000  0.5351600000000  0.4045330000000 1.0
C      1  0.4391010000000  0.5253480000000  0.5234900000000 1.0
C      1  0.4394200000000  0.4669140000000  0.5101310000000 1.0
C      1  0.4392520000000  0.5075990000000  0.4662320000000 1.0
C      1  0.5609590000000  0.5466740000000  0.5271260000000 1.0
C      1  0.5613850000000  0.4539830000000  0.5273320000000 1.0
C      1  0.5614000000000  0.5006050000000  0.4468020000000 1.0
C      1  0.4303330000000  0.5436970000000  0.4690050000000 1.0
C      1  0.4312290000000  0.4514080000000  0.4772220000000 1.0
C      1  0.4310200000000  0.5048150000000  0.5535340000000 1.0
C      1  0.5618660000000  0.5465250000000  0.4731270000000 1.0
C      1  0.5642080000000  0.4546110000000  0.4744380000000 1.0
C      1  0.5621450000000  0.5010150000000  0.5538450000000 1.0
C      1  0.4618940000000  0.5179470000000  0.5871600000000 1.0
C      1  0.4615440000000  0.4156730000000  0.4715490000000 1.0
C      1  0.4605230000000  0.5668660000000  0.4410100000000 1.0
C      1  0.5348850000000  0.5190710000000  0.5894770000000 1.0
C      1  0.5356160000000  0.4136660000000  0.4719520000000 1.0
C      1  0.5348330000000  0.5684690000000  0.4395340000000 1.0
C      1  0.4597070000000  0.5180280000000  0.4132550000000 1.0
C      1  0.4597530000000  0.4159530000000  0.5277660000000 1.0
C      1  0.4585870000000  0.5671450000000  0.5583290000000 1.0
C      1  0.5353990000000  0.5177340000000  0.4104000000000 1.0
C      1  0.5353910000000  0.4137990000000  0.5306390000000 1.0
C      1  0.5346490000000  0.5690220000000  0.5605470000000 1.0
C      1  0.4684060000000  0.5717310000000  0.4702910000000 1.0
C      1  0.4689640000000  0.4897610000000  0.5769200000000 1.0
C      1  0.4697970000000  0.4386340000000  0.4528830000000 1.0
C      1  0.5280510000000  0.5766840000000  0.4687330000000 1.0
C      1  0.5284070000000  0.4895970000000  0.5821910000000 1.0
C      1  0.5294090000000  0.4347670000000  0.4504560000000 1.0
C      1  0.4665320000000  0.5711370000000  0.5299210000000 1.0
C      1  0.4675320000000  0.4911130000000  0.4234200000000 1.0
C      1  0.4672710000000  0.4382520000000  0.5461080000000 1.0
C      1  0.5266900000000  0.5762360000000  0.5312260000000 1.0
C      1  0.5274810000000  0.4888080000000  0.4189590000000 1.0
C      1  0.5272760000000  0.4358060000000  0.5511830000000 1.0
C      1  0.5523810000000  0.5723460000000  0.5142600000000 1.0
C      1  0.5529690000000  0.4524590000000  0.5560330000000 1.0
C      1  0.5532220000000  0.4764770000000  0.4308810000000 1.0
C      1  0.4422270000000  0.5610920000000  0.5125370000000 1.0
C      1  0.4428770000000  0.4583720000000  0.5465410000000 1.0
C      1  0.4432840000000  0.4804260000000  0.4404530000000 1.0
C      1  0.5535880000000  0.5727170000000  0.4856520000000 1.0
C      1  0.5546020000000  0.4513250000000  0.4447050000000 1.0
C      1  0.5540840000000  0.4771310000000  0.5704430000000 1.0
C      1  0.4419200000000  0.5624130000000  0.4862330000000 1.0
C      1  0.4432360000000  0.4570410000000  0.4525920000000 1.0
C      1  0.4426030000000  0.4804510000000  0.5610310000000 1.0
C      1  0.5571960000000  0.4270600000000  0.5154860000000 1.0
C      1  0.5571330000000  0.5244130000000  0.4295630000000 1.0
C      1  0.5569510000000  0.5496870000000  0.5563680000000 1.0
C      1  0.4393010000000  0.4277330000000  0.5125810000000 1.0
C      1  0.4390410000000  0.5249450000000  0.4309470000000 1.0
C      1  0.4389970000000  0.5473040000000  0.5560840000000 1.0
C      1  0.5572910000000  0.4267710000000  0.4871230000000 1.0
C      1  0.5572060000000  0.5252430000000  0.5707000000000 1.0
C      1  0.5569990000000  0.5490090000000  0.4436500000000 1.0
C      1  0.4374370000000  0.4244040000000  0.4852350000000 1.0
C      1  0.4376920000000  0.5253480000000  0.5727520000000 1.0
C      1  0.4366570000000  0.5502730000000  0.4416470000000 1.0
C      1  0.4874670000000  0.4951380000000  0.5530030000000 1.0
C      1  0.4882870000000  0.4567400000000  0.4694740000000 1.0
C      1  0.4870640000000  0.5485110000000  0.4778420000000 1.0
C      1  0.5147260000000  0.4959210000000  0.5541400000000 1.0
C      1  0.5157650000000  0.4556090000000  0.4697810000000 1.0
C      1  0.5143670000000  0.5491340000000  0.4769920000000 1.0
C      1  0.4859120000000  0.5002990000000  0.4463970000000 1.0
C      1  0.4858900000000  0.4535990000000  0.5268890000000 1.0
C      1  0.4852230000000  0.5466750000000  0.5270140000000 1.0
C      1  0.5134710000000  0.4972710000000  0.4471370000000 1.0
C      1  0.5134260000000  0.4558040000000  0.5294500000000 1.0
C      1  0.5128490000000  0.5475730000000  0.5243210000000 1.0
C      1  0.4699860000000  0.4733590000000  0.5115980000000 1.0
C      1  0.4698990000000  0.5033600000000  0.4711040000000 1.0
C      1  0.4695630000000  0.5234580000000  0.5174470000000 1.0
C      1  0.5381420000000  0.4730320000000  0.5159140000000 1.0
C      1  0.5380280000000  0.5007180000000  0.4689570000000 1.0
C      1  0.5377520000000  0.5272270000000  0.5162420000000 1.0
C      1  0.4765860000000  0.4773840000000  0.4839500000000 1.0
C      1  0.4761400000000  0.4975020000000  0.5277770000000 1.0
C      1  0.4759140000000  0.5254280000000  0.4884860000000 1.0
C      1  0.5387300000000  0.4730600000000  0.4848590000000 1.0
C      1  0.5383620000000  0.5004290000000  0.5319000000000 1.0
C      1  0.5381260000000  0.5276400000000  0.4843920000000 1.0
C      1  0.5096950000000  0.5993660000000  0.4717960000000 1.0
C      1  0.5102840000000  0.4753290000000  0.6003040000000 1.0
C      1  0.5113980000000  0.4261310000000  0.4289580000000 1.0
C      1  0.4825710000000  0.5973250000000  0.4734090000000 1.0
C      1  0.4831990000000  0.4743250000000  0.5975110000000 1.0
C      1  0.4842740000000  0.4286010000000  0.4293390000000 1.0
C      1  0.5080950000000  0.5984730000000  0.5274710000000 1.0
C      1  0.5090000000000  0.4745860000000  0.4013810000000 1.0
C      1  0.5084950000000  0.4276860000000  0.5720340000000 1.0
C      1  0.4810990000000  0.5961520000000  0.5255120000000 1.0
C      1  0.4819630000000  0.4748610000000  0.4038400000000 1.0
C      1  0.4814630000000  0.4294610000000  0.5701440000000 1.0
C      1  0.4295000000000  0.4998970000000  0.4999770000000 1.0
C      1  0.5916160000000  0.4649090000000  0.4789790000000 1.0
END
