TITL C-3201374-830-158 -1.26160438818647e-06 125000 -696.561760459766 0 0 113 (C1) n - 1
REM
REM in /home/nfs/bkarasulu/CARBON/AIRSS/Generating-Clusters/LCBOP/Higher-Symm/SD-CG/FIRE-CG
REM
REM
REM
REM
REM
REM ./C.cell (b20cbc046b6831c77cfcea5457e17084)
REM AIRSS Version 0.9.1 bugfix July 2018 build 013d7b7c2542+ Fri, 06 Jul 2018 19:26:36 +0100
REM compiler GCC version 9.2.1 20190827 (Red Hat 9.2.1-1)
REM options -cpp -mtune=generic -march=x86-64 -g -O0 -fpre-include=/usr/include/finclude/math-vector-fortran.h
REM seed -1252324488 -249111227 639753354 -1657679944 -721103408 -194129673 -23258976 1093538286 1609166701 158092096 94370906 1820894325 1092430262 -1788041740 1906110760 -443100866 -251921694 -413700072 336343554 843979977 1465202905 1793456588 -1819897587 -1557401967 -61669443 -1104180950 434229035 801042252 -672106977 -1673800979 -1679444492 476970615 2016509004
REM
CELL 1.54180   50.00000   50.00000   50.00000   90.00000   90.00000   90.00000
LATT -1
SFAC C  
C      1  0.4662070000000  0.5186290000000  0.5870500000000 1.0
C      1  0.5778740000000  0.5216150000000  0.4490350000000 1.0
C      1  0.4931400000000  0.4554100000000  0.4729850000000 1.0
C      1  0.5476550000000  0.4395880000000  0.5504360000000 1.0
C      1  0.4649840000000  0.4888990000000  0.4515530000000 1.0
C      1  0.4093010000000  0.5646230000000  0.4925670000000 1.0
C      1  0.4500620000000  0.5785200000000  0.5471510000000 1.0
C      1  0.4891120000000  0.5399210000000  0.4061980000000 1.0
C      1  0.4132750000000  0.4946360000000  0.4969460000000 1.0
C      1  0.4574670000000  0.5915690000000  0.5232200000000 1.0
C      1  0.4000320000000  0.5086650000000  0.4409150000000 1.0
C      1  0.5396470000000  0.5485990000000  0.4030680000000 1.0
C      1  0.4163640000000  0.4790120000000  0.5199640000000 1.0
C      1  0.5271470000000  0.4259940000000  0.5666230000000 1.0
C      1  0.4908490000000  0.5278550000000  0.5970640000000 1.0
C      1  0.4949880000000  0.4385810000000  0.4963980000000 1.0
C      1  0.5368040000000  0.5320440000000  0.5870940000000 1.0
C      1  0.4530870000000  0.5385740000000  0.5720000000000 1.0
C      1  0.5877060000000  0.4738820000000  0.4621890000000 1.0
C      1  0.5612660000000  0.5208450000000  0.5060190000000 1.0
C      1  0.4773740000000  0.4969230000000  0.4266370000000 1.0
C      1  0.5539130000000  0.5093000000000  0.5852250000000 1.0
C      1  0.4265980000000  0.5097900000000  0.4774040000000 1.0
C      1  0.5826880000000  0.4573280000000  0.4400910000000 1.0
C      1  0.5542860000000  0.5896390000000  0.4612910000000 1.0
C      1  0.5190530000000  0.5966650000000  0.4279280000000 1.0
C      1  0.5059940000000  0.4582520000000  0.4078170000000 1.0
C      1  0.3914470000000  0.4373380000000  0.5077030000000 1.0
C      1  0.4542100000000  0.3990980000000  0.4523930000000 1.0
C      1  0.5419990000000  0.4387790000000  0.5189640000000 1.0
C      1  0.5191120000000  0.4875350000000  0.4433010000000 1.0
C      1  0.5359370000000  0.5989840000000  0.4804020000000 1.0
C      1  0.5103270000000  0.4074170000000  0.5532890000000 1.0
C      1  0.4072430000000  0.4823690000000  0.4374300000000 1.0
C      1  0.4617940000000  0.5472800000000  0.5090570000000 1.0
C      1  0.5984550000000  0.4622060000000  0.4860490000000 1.0
C      1  0.4238420000000  0.5644440000000  0.5444410000000 1.0
C      1  0.4658030000000  0.4632330000000  0.5876890000000 1.0
C      1  0.4878870000000  0.4522730000000  0.5736340000000 1.0
C      1  0.4990260000000  0.5594480000000  0.5611160000000 1.0
C      1  0.5311110000000  0.4669480000000  0.5162470000000 1.0
C      1  0.5893300000000  0.4364900000000  0.4927640000000 1.0
C      1  0.4606150000000  0.5740680000000  0.5014950000000 1.0
C      1  0.5824310000000  0.5176290000000  0.5244700000000 1.0
C      1  0.5663110000000  0.4393160000000  0.4291890000000 1.0
C      1  0.4809260000000  0.4991400000000  0.5104940000000 1.0
C      1  0.4186690000000  0.5543250000000  0.4674320000000 1.0
C      1  0.5401230000000  0.5564400000000  0.5328730000000 1.0
C      1  0.5348700000000  0.4106760000000  0.4519880000000 1.0
C      1  0.4448340000000  0.4207000000000  0.4661160000000 1.0
C      1  0.4344890000000  0.4188100000000  0.4923480000000 1.0
C      1  0.4423100000000  0.4819930000000  0.5305020000000 1.0
C      1  0.4469700000000  0.5594270000000  0.4586590000000 1.0
C      1  0.4735010000000  0.5259390000000  0.4246240000000 1.0
C      1  0.4489330000000  0.4467330000000  0.6015610000000 1.0
C      1  0.5149470000000  0.5689980000000  0.5384570000000 1.0
C      1  0.5265250000000  0.5465500000000  0.4858140000000 1.0
C      1  0.5291900000000  0.4091630000000  0.4781350000000 1.0
C      1  0.4284350000000  0.4366560000000  0.5362920000000 1.0
C      1  0.4695840000000  0.5614530000000  0.5616950000000 1.0
C      1  0.5929230000000  0.4909490000000  0.5290350000000 1.0
C      1  0.4680730000000  0.4625690000000  0.4605230000000 1.0
C      1  0.5211170000000  0.4365050000000  0.4124340000000 1.0
C      1  0.5795950000000  0.5315400000000  0.5499330000000 1.0
C      1  0.4093810000000  0.5272230000000  0.4608100000000 1.0
C      1  0.5735100000000  0.4984520000000  0.4648440000000 1.0
C      1  0.5213440000000  0.4909250000000  0.5574750000000 1.0
C      1  0.5128250000000  0.4731580000000  0.5377550000000 1.0
C      1  0.5064200000000  0.5016510000000  0.4998270000000 1.0
C      1  0.4639690000000  0.5779310000000  0.4738420000000 1.0
C      1  0.6058660000000  0.4777580000000  0.5082770000000 1.0
C      1  0.4754530000000  0.4409550000000  0.5189780000000 1.0
C      1  0.5546480000000  0.5606380000000  0.4233750000000 1.0
C      1  0.5411110000000  0.4825950000000  0.5788250000000 1.0
C      1  0.5747700000000  0.5693940000000  0.4638150000000 1.0
C      1  0.5778610000000  0.5099220000000  0.5692890000000 1.0
C      1  0.4689430000000  0.5233330000000  0.5165760000000 1.0
C      1  0.4056900000000  0.4185760000000  0.4938210000000 1.0
C      1  0.4519790000000  0.5107390000000  0.4640020000000 1.0
C      1  0.5010790000000  0.4820500000000  0.4216870000000 1.0
C      1  0.4223160000000  0.4605510000000  0.4436270000000 1.0
C      1  0.4479040000000  0.4289640000000  0.5163360000000 1.0
C      1  0.5206230000000  0.4245770000000  0.5002730000000 1.0
C      1  0.5728760000000  0.5486660000000  0.4432180000000 1.0
C      1  0.4914810000000  0.4559770000000  0.5456620000000 1.0
C      1  0.5628510000000  0.5542130000000  0.5495660000000 1.0
C      1  0.5441060000000  0.5856550000000  0.4340500000000 1.0
C      1  0.5680390000000  0.4297800000000  0.5073200000000 1.0
C      1  0.4064810000000  0.4529630000000  0.5260090000000 1.0
C      1  0.5210410000000  0.5363870000000  0.4618680000000 1.0
C      1  0.4099590000000  0.5656260000000  0.5196610000000 1.0
C      1  0.4896330000000  0.4094430000000  0.5380010000000 1.0
C      1  0.5138970000000  0.5442060000000  0.3971360000000 1.0
C      1  0.5172520000000  0.4713420000000  0.4670550000000 1.0
C      1  0.5609000000000  0.4644750000000  0.5615230000000 1.0
C      1  0.5552810000000  0.5002150000000  0.4870540000000 1.0
C      1  0.4263580000000  0.5419500000000  0.5623240000000 1.0
C      1  0.4610940000000  0.4910930000000  0.5873200000000 1.0
C      1  0.4448500000000  0.4468620000000  0.4552710000000 1.0
C      1  0.5282600000000  0.4636560000000  0.5978140000000 1.0
C      1  0.5411760000000  0.4266510000000  0.4296410000000 1.0
C      1  0.5127520000000  0.4431890000000  0.5854710000000 1.0
C      1  0.5067570000000  0.5867100000000  0.5173070000000 1.0
C      1  0.5092080000000  0.5942880000000  0.4896340000000 1.0
C      1  0.5426680000000  0.5423410000000  0.5081850000000 1.0
C      1  0.4886030000000  0.5915420000000  0.4684670000000 1.0
C      1  0.4659840000000  0.4763370000000  0.5170120000000 1.0
C      1  0.5246370000000  0.5148010000000  0.4467300000000 1.0
C      1  0.4588260000000  0.5352630000000  0.4481740000000 1.0
C      1  0.4964010000000  0.5984150000000  0.4422740000000 1.0
C      1  0.5298350000000  0.4843320000000  0.4918230000000 1.0
C      1  0.5106410000000  0.5420630000000  0.5822990000000 1.0
C      1  0.5826950000000  0.4833920000000  0.5552800000000 1.0
END
