TITL C-3201373-1215-187 -3.69294506139901e-07 125000 -345.722591454539 0 0 56 (C1) n - 1
REM
REM in /home/nfs/bkarasulu/CARBON/AIRSS/Generating-Clusters/LCBOP/Higher-Symm/SD-CG/FIRE-CG
REM
REM
REM
REM
REM
REM ./C.cell (b20cbc046b6831c77cfcea5457e17084)
REM AIRSS Version 0.9.1 bugfix July 2018 build 013d7b7c2542+ Fri, 06 Jul 2018 19:26:36 +0100
REM compiler GCC version 9.2.1 20190827 (Red Hat 9.2.1-1)
REM options -cpp -mtune=generic -march=x86-64 -g -O0 -fpre-include=/usr/include/finclude/math-vector-fortran.h
REM seed 1212786985 -1314413124 14489095 23599963 -175501761 1438016263 -1713734314 -370273703 605961318 -292633293 2010085539 -499864487 -1183161907 919678081 -2134749791 -71696143 -376832854 -728663865 2013459013 -1467057064 -394915998 931208936 2112301942 -799577107 -688661795 1644846112 1339148816 -889112701 -2029228597 333789711 -43967493 -1641338776 -1198235679
REM
CELL 1.54180   50.00000   50.00000   50.00000   90.00000   90.00000   90.00000
LATT -1
SFAC C  
C      1  0.4603840000000  0.4311110000000  0.5301680000000 1.0
C      1  0.4464340000000  0.5118590000000  0.4719130000000 1.0
C      1  0.5263580000000  0.4658570000000  0.4399760000000 1.0
C      1  0.4731270000000  0.5523610000000  0.4841180000000 1.0
C      1  0.5280670000000  0.4478720000000  0.4852450000000 1.0
C      1  0.5326420000000  0.5686100000000  0.5290470000000 1.0
C      1  0.4296020000000  0.4677470000000  0.5383680000000 1.0
C      1  0.5601830000000  0.5301060000000  0.5382730000000 1.0
C      1  0.5562430000000  0.4879130000000  0.4718720000000 1.0
C      1  0.5147180000000  0.5298920000000  0.5555580000000 1.0
C      1  0.4676390000000  0.4608440000000  0.5676150000000 1.0
C      1  0.4859320000000  0.5260320000000  0.4445220000000 1.0
C      1  0.5292980000000  0.4444310000000  0.5143330000000 1.0
C      1  0.5534200000000  0.5169430000000  0.4718950000000 1.0
C      1  0.4669930000000  0.4647170000000  0.4301680000000 1.0
C      1  0.5349090000000  0.5619140000000  0.4697850000000 1.0
C      1  0.4607260000000  0.4379340000000  0.4695780000000 1.0
C      1  0.4722980000000  0.5562550000000  0.5130120000000 1.0
C      1  0.5678350000000  0.4700980000000  0.5333810000000 1.0
C      1  0.4404500000000  0.5272710000000  0.5349030000000 1.0
C      1  0.4427300000000  0.4828380000000  0.4699550000000 1.0
C      1  0.4855690000000  0.5288300000000  0.5531440000000 1.0
C      1  0.5284270000000  0.4618500000000  0.5595290000000 1.0
C      1  0.5149770000000  0.5269610000000  0.4421280000000 1.0
C      1  0.5081500000000  0.4271870000000  0.5236410000000 1.0
C      1  0.4251190000000  0.5129070000000  0.5164350000000 1.0
C      1  0.5242310000000  0.5091800000000  0.4215800000000 1.0
C      1  0.5153580000000  0.5771610000000  0.4828570000000 1.0
C      1  0.4816000000000  0.4273780000000  0.4847520000000 1.0
C      1  0.4874490000000  0.5792700000000  0.5209380000000 1.0
C      1  0.4252000000000  0.4733390000000  0.4907460000000 1.0
C      1  0.5703890000000  0.5287220000000  0.4918570000000 1.0
C      1  0.5785500000000  0.4886790000000  0.5155450000000 1.0
C      1  0.5133120000000  0.4817540000000  0.5719580000000 1.0
C      1  0.4746050000000  0.5085570000000  0.5704750000000 1.0
C      1  0.4842600000000  0.4839650000000  0.4197190000000 1.0
C      1  0.4817880000000  0.4251310000000  0.5132370000000 1.0
C      1  0.5737640000000  0.5169570000000  0.5175930000000 1.0
C      1  0.4746340000000  0.5107390000000  0.4230490000000 1.0
C      1  0.4891050000000  0.5730760000000  0.4720120000000 1.0
C      1  0.5078280000000  0.4305650000000  0.4741560000000 1.0
C      1  0.5143880000000  0.5805320000000  0.5114830000000 1.0
C      1  0.5782780000000  0.4798110000000  0.4883600000000 1.0
C      1  0.4267120000000  0.5230370000000  0.4897180000000 1.0
C      1  0.4228660000000  0.4843300000000  0.5168820000000 1.0
C      1  0.4847500000000  0.4821380000000  0.5733330000000 1.0
C      1  0.5243000000000  0.5080150000000  0.5716720000000 1.0
C      1  0.5130040000000  0.4828640000000  0.4219870000000 1.0
C      1  0.5347350000000  0.5351710000000  0.4605040000000 1.0
C      1  0.4508370000000  0.4514580000000  0.5471020000000 1.0
C      1  0.4665400000000  0.5381920000000  0.5339090000000 1.0
C      1  0.5429460000000  0.4575080000000  0.5356770000000 1.0
C      1  0.5375010000000  0.4672990000000  0.4661140000000 1.0
C      1  0.4688720000000  0.5293750000000  0.4673420000000 1.0
C      1  0.4553730000000  0.4617980000000  0.4554960000000 1.0
C      1  0.5357140000000  0.5439750000000  0.5421900000000 1.0
END
