TITL C-3201373-1215-1475 -2.13310531500763e-06 125000 -1001.04232150352 0 0 180 (Th) n - 1
REM
REM in /home/nfs/bkarasulu/CARBON/AIRSS/Generating-Clusters/LCBOP/Higher-Symm/SD-CG/FIRE-CG
REM
REM
REM
REM
REM
REM ./C.cell (b20cbc046b6831c77cfcea5457e17084)
REM AIRSS Version 0.9.1 bugfix July 2018 build 013d7b7c2542+ Fri, 06 Jul 2018 19:26:36 +0100
REM compiler GCC version 9.2.1 20190827 (Red Hat 9.2.1-1)
REM options -cpp -mtune=generic -march=x86-64 -g -O0 -fpre-include=/usr/include/finclude/math-vector-fortran.h
REM seed -1301433578 -2103501118 -918797897 -1965717228 -1230841920 1437745199 -1957407631 -1839275227 1534289965 -1266944719 1773350745 -1022405179 2011129148 -529406217 -235736016 93650555 902341453 828144767 -186020191 545414859 -1022582031 147687767 618874532 1496711863 -950793152 -751233045 -1554023541 182926845 -778545914 1473095840 1858160873 41007004 292196043
REM
CELL 1.54180   50.00000   50.00000   50.00000   90.00000   90.00000   90.00000
LATT -1
SFAC C  
C      1  0.3942790000000  0.4776170000000  0.5674240000000 1.0
C      1  0.4776980000000  0.5672110000000  0.3942510000000 1.0
C      1  0.5674070000000  0.3943580000000  0.4776430000000 1.0
C      1  0.6056400000000  0.4776450000000  0.4325660000000 1.0
C      1  0.6057130000000  0.5223620000000  0.5671840000000 1.0
C      1  0.3942650000000  0.5223950000000  0.4327270000000 1.0
C      1  0.5222700000000  0.5673200000000  0.6057000000000 1.0
C      1  0.5222960000000  0.4325600000000  0.3943700000000 1.0
C      1  0.4777200000000  0.4328530000000  0.6058340000000 1.0
C      1  0.4329330000000  0.3941640000000  0.5223140000000 1.0
C      1  0.4326890000000  0.6057210000000  0.4776560000000 1.0
C      1  0.5671810000000  0.6057890000000  0.5223330000000 1.0
C      1  0.3942050000000  0.5222760000000  0.5671700000000 1.0
C      1  0.4776390000000  0.4327910000000  0.3942440000000 1.0
C      1  0.5674370000000  0.6057520000000  0.4776760000000 1.0
C      1  0.6058160000000  0.5223010000000  0.4328340000000 1.0
C      1  0.6057620000000  0.4777020000000  0.5673700000000 1.0
C      1  0.3942500000000  0.4777390000000  0.4326600000000 1.0
C      1  0.5223760000000  0.4325870000000  0.6057560000000 1.0
C      1  0.5223570000000  0.5673700000000  0.3942220000000 1.0
C      1  0.4776110000000  0.5672180000000  0.6057060000000 1.0
C      1  0.4327440000000  0.6057310000000  0.5223140000000 1.0
C      1  0.4325110000000  0.3943570000000  0.4776560000000 1.0
C      1  0.5672040000000  0.3942030000000  0.5222990000000 1.0
C      1  0.5451490000000  0.4747710000000  0.4850400000000 1.0
C      1  0.4746940000000  0.4850210000000  0.5451140000000 1.0
C      1  0.4850890000000  0.5451940000000  0.4747150000000 1.0
C      1  0.4547550000000  0.4747060000000  0.5149790000000 1.0
C      1  0.4548810000000  0.5252880000000  0.4850190000000 1.0
C      1  0.5450620000000  0.5252790000000  0.5149310000000 1.0
C      1  0.5252360000000  0.4850410000000  0.4548530000000 1.0
C      1  0.5252570000000  0.5149220000000  0.5451630000000 1.0
C      1  0.4747500000000  0.5149610000000  0.4549020000000 1.0
C      1  0.5149390000000  0.5451360000000  0.5252460000000 1.0
C      1  0.5149530000000  0.4548650000000  0.4747760000000 1.0
C      1  0.4850730000000  0.4549020000000  0.5253100000000 1.0
C      1  0.5450650000000  0.5253350000000  0.4849760000000 1.0
C      1  0.4746890000000  0.5149390000000  0.5450820000000 1.0
C      1  0.4850070000000  0.4548000000000  0.4747530000000 1.0
C      1  0.4548300000000  0.5252440000000  0.5149170000000 1.0
C      1  0.4547900000000  0.4747370000000  0.4850580000000 1.0
C      1  0.5452330000000  0.4747190000000  0.5149860000000 1.0
C      1  0.5252880000000  0.5149880000000  0.4547600000000 1.0
C      1  0.5253030000000  0.4850040000000  0.5452580000000 1.0
C      1  0.4746960000000  0.4850150000000  0.4549360000000 1.0
C      1  0.5150270000000  0.4549260000000  0.5253370000000 1.0
C      1  0.5150040000000  0.5452710000000  0.4746800000000 1.0
C      1  0.4850360000000  0.5451140000000  0.5252540000000 1.0
C      1  0.5851060000000  0.5698060000000  0.4447950000000 1.0
C      1  0.5698870000000  0.4446520000000  0.5849920000000 1.0
C      1  0.4447380000000  0.5849730000000  0.5697550000000 1.0
C      1  0.4149970000000  0.5697790000000  0.5552080000000 1.0
C      1  0.4149260000000  0.4303010000000  0.4447850000000 1.0
C      1  0.5850160000000  0.4300560000000  0.5552820000000 1.0
C      1  0.4301430000000  0.4448560000000  0.4149430000000 1.0
C      1  0.4301660000000  0.5551820000000  0.5849290000000 1.0
C      1  0.5699710000000  0.5552720000000  0.4149770000000 1.0
C      1  0.5553900000000  0.5849890000000  0.4301170000000 1.0
C      1  0.5552260000000  0.4149020000000  0.5698010000000 1.0
C      1  0.4445910000000  0.4151150000000  0.4301430000000 1.0
C      1  0.5849770000000  0.4302870000000  0.4447650000000 1.0
C      1  0.5697550000000  0.5551840000000  0.5849630000000 1.0
C      1  0.4449070000000  0.4149380000000  0.5698800000000 1.0
C      1  0.4151330000000  0.4300340000000  0.5553370000000 1.0
C      1  0.4150370000000  0.5698040000000  0.4447410000000 1.0
C      1  0.5849150000000  0.5697890000000  0.5552230000000 1.0
C      1  0.4302600000000  0.5552730000000  0.4150180000000 1.0
C      1  0.4302570000000  0.4447150000000  0.5850360000000 1.0
C      1  0.5697000000000  0.4447580000000  0.4150190000000 1.0
C      1  0.5552140000000  0.4150200000000  0.4302920000000 1.0
C      1  0.5552020000000  0.5849820000000  0.5697940000000 1.0
C      1  0.4448490000000  0.5849880000000  0.4302000000000 1.0
C      1  0.4241930000000  0.4837470000000  0.5579210000000 1.0
C      1  0.4838930000000  0.5578480000000  0.4242100000000 1.0
C      1  0.5579490000000  0.4242880000000  0.4838490000000 1.0
C      1  0.5757160000000  0.4838500000000  0.4420420000000 1.0
C      1  0.5757550000000  0.5161480000000  0.5578260000000 1.0
C      1  0.4241980000000  0.5162310000000  0.4421110000000 1.0
C      1  0.5161550000000  0.5579020000000  0.5757610000000 1.0
C      1  0.5161210000000  0.4420410000000  0.4242950000000 1.0
C      1  0.4838680000000  0.4421770000000  0.5758720000000 1.0
C      1  0.4422120000000  0.4241440000000  0.5162300000000 1.0
C      1  0.4421000000000  0.5757810000000  0.4837880000000 1.0
C      1  0.5578170000000  0.5758460000000  0.5161610000000 1.0
C      1  0.4241570000000  0.5161340000000  0.5578110000000 1.0
C      1  0.4837240000000  0.4421260000000  0.4241960000000 1.0
C      1  0.5579330000000  0.5758330000000  0.4837870000000 1.0
C      1  0.5758420000000  0.5162380000000  0.4421220000000 1.0
C      1  0.5758240000000  0.4837520000000  0.5579120000000 1.0
C      1  0.4241900000000  0.4838560000000  0.4420810000000 1.0
C      1  0.5162360000000  0.4420760000000  0.5758350000000 1.0
C      1  0.5162860000000  0.5579170000000  0.4241590000000 1.0
C      1  0.4837610000000  0.5578600000000  0.5757600000000 1.0
C      1  0.4421160000000  0.5757860000000  0.5161750000000 1.0
C      1  0.4420450000000  0.4242750000000  0.4838340000000 1.0
C      1  0.5578920000000  0.4241690000000  0.5162350000000 1.0
C      1  0.4849380000000  0.5945460000000  0.5156590000000 1.0
C      1  0.5945130000000  0.5157120000000  0.4849580000000 1.0
C      1  0.5160200000000  0.4846890000000  0.5949280000000 1.0
C      1  0.5153260000000  0.5949430000000  0.4839600000000 1.0
C      1  0.5150640000000  0.4054800000000  0.5156930000000 1.0
C      1  0.4846500000000  0.4051130000000  0.4839800000000 1.0
C      1  0.4052710000000  0.5158170000000  0.5149410000000 1.0
C      1  0.4053060000000  0.4845120000000  0.4847650000000 1.0
C      1  0.5948990000000  0.4839670000000  0.5153050000000 1.0
C      1  0.4842960000000  0.4849630000000  0.4054890000000 1.0
C      1  0.4843010000000  0.5150510000000  0.5945220000000 1.0
C      1  0.5160580000000  0.5153000000000  0.4050850000000 1.0
C      1  0.4850860000000  0.4053170000000  0.5158660000000 1.0
C      1  0.5946400000000  0.4845380000000  0.4847530000000 1.0
C      1  0.5155010000000  0.5152170000000  0.5946490000000 1.0
C      1  0.5152370000000  0.4053780000000  0.4845430000000 1.0
C      1  0.5149390000000  0.5947150000000  0.5158080000000 1.0
C      1  0.4847940000000  0.5946760000000  0.4844620000000 1.0
C      1  0.4050580000000  0.4839360000000  0.5153300000000 1.0
C      1  0.4054410000000  0.5156790000000  0.4849480000000 1.0
C      1  0.5946540000000  0.5158300000000  0.5149480000000 1.0
C      1  0.4841930000000  0.5149560000000  0.4053200000000 1.0
C      1  0.4841740000000  0.4850540000000  0.5947040000000 1.0
C      1  0.5154660000000  0.4847440000000  0.4053620000000 1.0
C      1  0.5293410000000  0.5724090000000  0.5289790000000 1.0
C      1  0.5723330000000  0.5290000000000  0.5293440000000 1.0
C      1  0.5289200000000  0.5294030000000  0.5723960000000 1.0
C      1  0.4706120000000  0.5724230000000  0.4710380000000 1.0
C      1  0.4706890000000  0.4276230000000  0.5290510000000 1.0
C      1  0.5294240000000  0.4276220000000  0.4711100000000 1.0
C      1  0.4276290000000  0.5289980000000  0.4706010000000 1.0
C      1  0.4275370000000  0.4708760000000  0.5294750000000 1.0
C      1  0.5723920000000  0.4711080000000  0.4705650000000 1.0
C      1  0.4710330000000  0.5293700000000  0.4276320000000 1.0
C      1  0.4710100000000  0.4706300000000  0.5724120000000 1.0
C      1  0.5288870000000  0.4705560000000  0.4276130000000 1.0
C      1  0.5294170000000  0.4276430000000  0.5290220000000 1.0
C      1  0.5724530000000  0.4708930000000  0.5294650000000 1.0
C      1  0.5290990000000  0.4705210000000  0.5724870000000 1.0
C      1  0.4704970000000  0.4275920000000  0.4709390000000 1.0
C      1  0.4706010000000  0.5723480000000  0.5289620000000 1.0
C      1  0.5294980000000  0.5724960000000  0.4708960000000 1.0
C      1  0.4275460000000  0.4710930000000  0.4705790000000 1.0
C      1  0.4275840000000  0.5289800000000  0.5293380000000 1.0
C      1  0.5723510000000  0.5290260000000  0.4705960000000 1.0
C      1  0.4709710000000  0.4706210000000  0.4276640000000 1.0
C      1  0.4709770000000  0.5293680000000  0.5723240000000 1.0
C      1  0.5291280000000  0.5294610000000  0.4275370000000 1.0
C      1  0.5319510000000  0.5770110000000  0.5587570000000 1.0
C      1  0.5769300000000  0.5587920000000  0.5319600000000 1.0
C      1  0.5587170000000  0.5319280000000  0.5769980000000 1.0
C      1  0.4681040000000  0.5770230000000  0.4412420000000 1.0
C      1  0.4681160000000  0.4230140000000  0.5588470000000 1.0
C      1  0.5319450000000  0.4229520000000  0.4413380000000 1.0
C      1  0.4229890000000  0.5587660000000  0.4680030000000 1.0
C      1  0.4230590000000  0.4410880000000  0.5320830000000 1.0
C      1  0.5770480000000  0.4413310000000  0.4680360000000 1.0
C      1  0.4412530000000  0.5320080000000  0.4230090000000 1.0
C      1  0.4412410000000  0.4679830000000  0.5770380000000 1.0
C      1  0.5586630000000  0.4680300000000  0.4229530000000 1.0
C      1  0.5319890000000  0.4229500000000  0.5587840000000 1.0
C      1  0.5770190000000  0.4411240000000  0.5320580000000 1.0
C      1  0.5588580000000  0.4679110000000  0.5770360000000 1.0
C      1  0.4678600000000  0.4230400000000  0.4411740000000 1.0
C      1  0.4679950000000  0.5769920000000  0.5587330000000 1.0
C      1  0.5321240000000  0.5770380000000  0.4411350000000 1.0
C      1  0.4228970000000  0.4413220000000  0.4680520000000 1.0
C      1  0.4229860000000  0.5587630000000  0.5319540000000 1.0
C      1  0.5770540000000  0.5587840000000  0.4680280000000 1.0
C      1  0.4412060000000  0.4680750000000  0.4229760000000 1.0
C      1  0.4411940000000  0.5319290000000  0.5769490000000 1.0
C      1  0.5588990000000  0.5320540000000  0.4229810000000 1.0
C      1  0.5720610000000  0.3797030000000  0.4999400000000 1.0
C      1  0.4279560000000  0.6203020000000  0.4999880000000 1.0
C      1  0.6203050000000  0.4999420000000  0.4279450000000 1.0
C      1  0.3796730000000  0.4999490000000  0.5720750000000 1.0
C      1  0.5000450000000  0.4279530000000  0.6203700000000 1.0
C      1  0.5000000000000  0.5720550000000  0.3796650000000 1.0
C      1  0.4999310000000  0.5720280000000  0.6202790000000 1.0
C      1  0.4999860000000  0.4279080000000  0.3797350000000 1.0
C      1  0.4279570000000  0.3796890000000  0.4999660000000 1.0
C      1  0.5720880000000  0.6203410000000  0.5000190000000 1.0
C      1  0.3796820000000  0.5000790000000  0.4279270000000 1.0
C      1  0.6203080000000  0.5000700000000  0.5720420000000 1.0
END
