TITL C-3201379-3821-1446 4.71343857211086e-05 125000 -620.852484216503 0 0 103 (C1) n - 1
REM
REM in /home/nfs/bkarasulu/CARBON/AIRSS/Generating-Clusters/LCBOP/Higher-Symm/SD-CG/FIRE-CG
REM
REM
REM
REM
REM
REM ./C.cell (b20cbc046b6831c77cfcea5457e17084)
REM AIRSS Version 0.9.1 bugfix July 2018 build 013d7b7c2542+ Fri, 06 Jul 2018 19:26:36 +0100
REM compiler GCC version 9.2.1 20190827 (Red Hat 9.2.1-1)
REM options -cpp -mtune=generic -march=x86-64 -g -O0 -fpre-include=/usr/include/finclude/math-vector-fortran.h
REM seed 193298341 -566166896 -153111981 874352896 601284452 -1433434377 -336628972 619484482 1485837443 -15274987 1253138855 -1611764019 1578247863 760620660 1226368865 -76639105 -1546412535 878579651 1512362990 2109901682 -1231830726 1872244867 -814125947 247851650 1934713198 -1551044480 1477887577 -491189543 2029857176 -1203690526 794518602 -1970937739 1221880891
REM
CELL 1.54180   50.00000   50.00000   50.00000   90.00000   90.00000   90.00000
LATT -1
SFAC C  
C      1  0.4260320000000  0.5656270000000  0.4540790000000 1.0
C      1  0.5338000000000  0.5863180000000  0.5697650000000 1.0
C      1  0.5899830000000  0.4869580000000  0.4126460000000 1.0
C      1  0.4460050000000  0.5009810000000  0.5039460000000 1.0
C      1  0.5119360000000  0.5468650000000  0.4617620000000 1.0
C      1  0.5569240000000  0.4456150000000  0.4631370000000 1.0
C      1  0.5247240000000  0.4077750000000  0.5226290000000 1.0
C      1  0.4740790000000  0.5726460000000  0.4527180000000 1.0
C      1  0.5796000000000  0.4503170000000  0.5257060000000 1.0
C      1  0.4584830000000  0.4345730000000  0.4409170000000 1.0
C      1  0.4480370000000  0.5830310000000  0.4553410000000 1.0
C      1  0.5023560000000  0.4469540000000  0.4351880000000 1.0
C      1  0.5084280000000  0.5337400000000  0.5587700000000 1.0
C      1  0.4695240000000  0.5446530000000  0.4130720000000 1.0
C      1  0.5444760000000  0.4702420000000  0.5553370000000 1.0
C      1  0.5584810000000  0.4638040000000  0.4855020000000 1.0
C      1  0.4663260000000  0.4598550000000  0.5260300000000 1.0
C      1  0.4945200000000  0.4545880000000  0.5209150000000 1.0
C      1  0.4707820000000  0.5877120000000  0.5442340000000 1.0
C      1  0.5728060000000  0.4705260000000  0.4233270000000 1.0
C      1  0.5722160000000  0.4656240000000  0.5493720000000 1.0
C      1  0.5147730000000  0.3793000000000  0.5188440000000 1.0
C      1  0.4058490000000  0.4839010000000  0.4898020000000 1.0
C      1  0.4130030000000  0.5426410000000  0.4507610000000 1.0
C      1  0.4688230000000  0.4402280000000  0.4710340000000 1.0
C      1  0.4519810000000  0.4732370000000  0.5062030000000 1.0
C      1  0.4579000000000  0.5343760000000  0.5583780000000 1.0
C      1  0.5842490000000  0.5673920000000  0.4922490000000 1.0
C      1  0.5804050000000  0.4701370000000  0.5033950000000 1.0
C      1  0.4954940000000  0.4557360000000  0.4624480000000 1.0
C      1  0.5244450000000  0.4033010000000  0.4659910000000 1.0
C      1  0.4826470000000  0.5255170000000  0.5472670000000 1.0
C      1  0.4759820000000  0.4510660000000  0.4229030000000 1.0
C      1  0.5629540000000  0.5602750000000  0.4451840000000 1.0
C      1  0.5059960000000  0.5850750000000  0.5769530000000 1.0
C      1  0.5143330000000  0.5571870000000  0.4340670000000 1.0
C      1  0.4044960000000  0.4648300000000  0.5348100000000 1.0
C      1  0.5888690000000  0.4966860000000  0.5162130000000 1.0
C      1  0.4392350000000  0.6616460000000  0.4697680000000 1.0
C      1  0.5682410000000  0.5620240000000  0.5387610000000 1.0
C      1  0.4793300000000  0.5775050000000  0.5695250000000 1.0
C      1  0.5528670000000  0.4099480000000  0.5130390000000 1.0
C      1  0.4505290000000  0.4960820000000  0.4253030000000 1.0
C      1  0.4992430000000  0.4953060000000  0.4215400000000 1.0
C      1  0.5390950000000  0.5089100000000  0.5185480000000 1.0
C      1  0.4962320000000  0.5006310000000  0.5068800000000 1.0
C      1  0.4667260000000  0.5529090000000  0.5795680000000 1.0
C      1  0.5730050000000  0.5522100000000  0.4701450000000 1.0
C      1  0.5461660000000  0.4192990000000  0.4661250000000 1.0
C      1  0.5414530000000  0.5628380000000  0.4287470000000 1.0
C      1  0.4589020000000  0.5134440000000  0.4834810000000 1.0
C      1  0.5509640000000  0.6037770000000  0.5818470000000 1.0
C      1  0.5210950000000  0.5522450000000  0.5401550000000 1.0
C      1  0.4776060000000  0.5388680000000  0.6021090000000 1.0
C      1  0.5747500000000  0.4236030000000  0.5199900000000 1.0
C      1  0.4500500000000  0.4422500000000  0.5414940000000 1.0
C      1  0.5364190000000  0.4973870000000  0.5468330000000 1.0
C      1  0.4940370000000  0.5175500000000  0.6061210000000 1.0
C      1  0.4046130000000  0.4884760000000  0.5189110000000 1.0
C      1  0.4636570000000  0.4172530000000  0.5430310000000 1.0
C      1  0.5119070000000  0.5004590000000  0.5919650000000 1.0
C      1  0.4290920000000  0.4928730000000  0.4453640000000 1.0
C      1  0.5286230000000  0.4126180000000  0.5519950000000 1.0
C      1  0.5037410000000  0.4286440000000  0.5112900000000 1.0
C      1  0.4763160000000  0.5859970000000  0.5178100000000 1.0
C      1  0.4415920000000  0.6362370000000  0.4644380000000 1.0
C      1  0.5878580000000  0.4901810000000  0.5448410000000 1.0
C      1  0.4906320000000  0.5240940000000  0.5202160000000 1.0
C      1  0.5125350000000  0.5001710000000  0.4470500000000 1.0
C      1  0.4470370000000  0.4594910000000  0.4811680000000 1.0
C      1  0.4967780000000  0.4836870000000  0.4645970000000 1.0
C      1  0.5415070000000  0.5170650000000  0.4886280000000 1.0
C      1  0.5681700000000  0.5263180000000  0.4831290000000 1.0
C      1  0.4860050000000  0.5623600000000  0.4276600000000 1.0
C      1  0.4540090000000  0.5226760000000  0.4146740000000 1.0
C      1  0.5283990000000  0.4489370000000  0.4253810000000 1.0
C      1  0.4837910000000  0.5006600000000  0.4817790000000 1.0
C      1  0.4126420000000  0.5162460000000  0.4466890000000 1.0
C      1  0.4735140000000  0.4798900000000  0.4193310000000 1.0
C      1  0.5136710000000  0.4723270000000  0.5926870000000 1.0
C      1  0.4987430000000  0.3998070000000  0.4739170000000 1.0
C      1  0.4384790000000  0.4177100000000  0.4342740000000 1.0
C      1  0.5234010000000  0.5209620000000  0.4655210000000 1.0
C      1  0.5117020000000  0.4301800000000  0.5659790000000 1.0
C      1  0.5333310000000  0.4695490000000  0.4972980000000 1.0
C      1  0.5230700000000  0.5119450000000  0.5680360000000 1.0
C      1  0.5843360000000  0.5519620000000  0.5174870000000 1.0
C      1  0.4441570000000  0.6103810000000  0.4592660000000 1.0
C      1  0.4141600000000  0.5119360000000  0.5334070000000 1.0
C      1  0.4229290000000  0.4480770000000  0.5449490000000 1.0
C      1  0.4915500000000  0.5639650000000  0.4740000000000 1.0
C      1  0.4814490000000  0.4165870000000  0.4925400000000 1.0
C      1  0.5240280000000  0.4558910000000  0.5717540000000 1.0
C      1  0.4252920000000  0.4750600000000  0.4686220000000 1.0
C      1  0.5536130000000  0.4554390000000  0.4365020000000 1.0
C      1  0.4327370000000  0.5255230000000  0.5482180000000 1.0
C      1  0.5849400000000  0.5234560000000  0.5073050000000 1.0
C      1  0.5423670000000  0.5681400000000  0.5491390000000 1.0
C      1  0.4846530000000  0.4200710000000  0.5629930000000 1.0
C      1  0.4641500000000  0.4049790000000  0.5157940000000 1.0
C      1  0.5054620000000  0.5490490000000  0.5162200000000 1.0
C      1  0.5099490000000  0.4761900000000  0.5117290000000 1.0
C      1  0.4917530000000  0.5687640000000  0.5015400000000 1.0
END
