TITL C-3201375-1262-263 -4.713751747239e-07 125000 -350.423827751323 0 0 59 (C1) n - 1
REM
REM in /home/nfs/bkarasulu/CARBON/AIRSS/Generating-Clusters/LCBOP/Higher-Symm/SD-CG/FIRE-CG
REM
REM
REM
REM
REM
REM ./C.cell (b20cbc046b6831c77cfcea5457e17084)
REM AIRSS Version 0.9.1 bugfix July 2018 build 013d7b7c2542+ Fri, 06 Jul 2018 19:26:36 +0100
REM compiler GCC version 9.2.1 20190827 (Red Hat 9.2.1-1)
REM options -cpp -mtune=generic -march=x86-64 -g -O0 -fpre-include=/usr/include/finclude/math-vector-fortran.h
REM seed 568629668 -1382241436 -1836669512 231458356 411758481 228276547 520772279 1167588845 -2071584360 732646321 1501852293 1962023366 1335526257 -1905980225 -913071678 1782430908 -1100113355 -193552341 709281263 -2068212014 617776730 -1617405460 659619944 -698375907 1207309608 -575033905 -651318678 114765779 -1368954664 637736780 -1090470019 -963936010 1104385601
REM
CELL 1.54180   50.00000   50.00000   50.00000   90.00000   90.00000   90.00000
LATT -1
SFAC C  
C      1  0.5506150000000  0.5084540000000  0.5744300000000 1.0
C      1  0.4553080000000  0.4888410000000  0.4238710000000 1.0
C      1  0.5335750000000  0.4485210000000  0.4865370000000 1.0
C      1  0.4619760000000  0.5533450000000  0.5151030000000 1.0
C      1  0.5234080000000  0.5487530000000  0.5736190000000 1.0
C      1  0.4884110000000  0.4535870000000  0.4248400000000 1.0
C      1  0.5213100000000  0.5090250000000  0.4123960000000 1.0
C      1  0.4824450000000  0.4908460000000  0.5904590000000 1.0
C      1  0.5226290000000  0.5388420000000  0.4531850000000 1.0
C      1  0.4717930000000  0.4743640000000  0.5505090000000 1.0
C      1  0.4672460000000  0.5124910000000  0.4650650000000 1.0
C      1  0.5331570000000  0.4826280000000  0.5364140000000 1.0
C      1  0.4224600000000  0.5319290000000  0.4666680000000 1.0
C      1  0.5805230000000  0.4716410000000  0.5313250000000 1.0
C      1  0.4641820000000  0.4637830000000  0.4185970000000 1.0
C      1  0.5459620000000  0.5347690000000  0.5782750000000 1.0
C      1  0.5122590000000  0.5633280000000  0.4503030000000 1.0
C      1  0.4777860000000  0.4472390000000  0.5504470000000 1.0
C      1  0.4593630000000  0.4893790000000  0.5724240000000 1.0
C      1  0.5459460000000  0.4994310000000  0.4210170000000 1.0
C      1  0.5113380000000  0.5305150000000  0.5003920000000 1.0
C      1  0.4796170000000  0.4679200000000  0.4790160000000 1.0
C      1  0.5518770000000  0.4699290000000  0.4915490000000 1.0
C      1  0.4473230000000  0.5296440000000  0.5088530000000 1.0
C      1  0.4365790000000  0.5104240000000  0.5286810000000 1.0
C      1  0.5635590000000  0.4889180000000  0.4719520000000 1.0
C      1  0.4954430000000  0.5818170000000  0.4600540000000 1.0
C      1  0.4949380000000  0.4282020000000  0.5427550000000 1.0
C      1  0.5089370000000  0.4856460000000  0.5832430000000 1.0
C      1  0.4952190000000  0.5151500000000  0.4196980000000 1.0
C      1  0.4242340000000  0.4872000000000  0.5175920000000 1.0
C      1  0.5742120000000  0.5127700000000  0.4835660000000 1.0
C      1  0.5218880000000  0.5122330000000  0.4572500000000 1.0
C      1  0.4879180000000  0.4950170000000  0.5393860000000 1.0
C      1  0.4999230000000  0.5419540000000  0.5625230000000 1.0
C      1  0.5089690000000  0.4639640000000  0.4387680000000 1.0
C      1  0.4711200000000  0.5095820000000  0.4356950000000 1.0
C      1  0.5322730000000  0.4885700000000  0.5655050000000 1.0
C      1  0.5727710000000  0.5366520000000  0.4955630000000 1.0
C      1  0.4243630000000  0.4615100000000  0.5101880000000 1.0
C      1  0.4454530000000  0.5246320000000  0.4798480000000 1.0
C      1  0.5557020000000  0.4750710000000  0.5201610000000 1.0
C      1  0.5170240000000  0.4858280000000  0.4523790000000 1.0
C      1  0.4878970000000  0.5216930000000  0.5497890000000 1.0
C      1  0.5604400000000  0.4900630000000  0.4427740000000 1.0
C      1  0.4416990000000  0.5078670000000  0.5577050000000 1.0
C      1  0.5103370000000  0.5570130000000  0.5090670000000 1.0
C      1  0.4838850000000  0.4415490000000  0.4868690000000 1.0
C      1  0.4822720000000  0.5852860000000  0.4833640000000 1.0
C      1  0.5104670000000  0.4227240000000  0.5214870000000 1.0
C      1  0.4835120000000  0.4952980000000  0.4812780000000 1.0
C      1  0.5092780000000  0.4895740000000  0.5224890000000 1.0
C      1  0.5600250000000  0.5576000000000  0.5064140000000 1.0
C      1  0.4366100000000  0.4388740000000  0.5027720000000 1.0
C      1  0.4843020000000  0.5686480000000  0.5061660000000 1.0
C      1  0.5103270000000  0.4348800000000  0.4959490000000 1.0
C      1  0.5359680000000  0.5680900000000  0.5127330000000 1.0
C      1  0.4599110000000  0.4284550000000  0.4941090000000 1.0
C      1  0.5041630000000  0.5039160000000  0.4987890000000 1.0
END
