TITL C-3201372-1405-2343 -17.455703102883 125000 -671.782279686295 0 0 111 (C1) n - 1
REM
REM in /home/nfs/bkarasulu/CARBON/AIRSS/Generating-Clusters/LCBOP/Higher-Symm/SD-CG/FIRE-CG
REM
REM
REM
REM
REM
REM ./C.cell (b20cbc046b6831c77cfcea5457e17084)
REM AIRSS Version 0.9.1 bugfix July 2018 build 013d7b7c2542+ Fri, 06 Jul 2018 19:26:36 +0100
REM compiler GCC version 9.2.1 20190827 (Red Hat 9.2.1-1)
REM options -cpp -mtune=generic -march=x86-64 -g -O0 -fpre-include=/usr/include/finclude/math-vector-fortran.h
REM seed 1205841703 -207589062 236432618 -949522846 -116944282 186861406 2089162031 -568633852 -1535813871 -1483421169 -1856900910 1544640426 -77595622 -1167026733 1889430592 -1471729838 -1813219072 -684594310 -199909374 806583048 -1393980076 -974052406 1926921622 1205034155 -1405504618 -1820294629 903933826 -557927380 464332483 -1786893693 1856294419 121788980 -1064637763
REM
CELL 1.54180   50.00000   50.00000   50.00000   90.00000   90.00000   90.00000
LATT -1
SFAC C  
C      1  0.6304020000000  0.5594650000000  0.5517910000000 1.0
C      1  0.6317580000000  0.5120230000000  0.4260570000000 1.0
C      1  0.6325590000000  0.4289470000000  0.5265580000000 1.0
C      1  0.3648530000000  0.5529300000000  0.5483950000000 1.0
C      1  0.3661490000000  0.5096170000000  0.4261110000000 1.0
C      1  0.3666060000000  0.4267150000000  0.5276400000000 1.0
C      1  0.5562590000000  0.4699370000000  0.5985310000000 1.0
C      1  0.5561850000000  0.5991650000000  0.4770400000000 1.0
C      1  0.5568980000000  0.4344790000000  0.4225970000000 1.0
C      1  0.4449670000000  0.4718400000000  0.6010020000000 1.0
C      1  0.4447700000000  0.6002630000000  0.4717730000000 1.0
C      1  0.4390910000000  0.4362450000000  0.4229320000000 1.0
C      1  0.5318620000000  0.4041660000000  0.4764680000000 1.0
C      1  0.5195680000000  0.5256760000000  0.5931300000000 1.0
C      1  0.5203840000000  0.5664460000000  0.4310170000000 1.0
C      1  0.4640250000000  0.4046260000000  0.4760840000000 1.0
C      1  0.4830820000000  0.5261590000000  0.5914750000000 1.0
C      1  0.4839090000000  0.5647790000000  0.4307350000000 1.0
C      1  0.5800170000000  0.4276550000000  0.5271470000000 1.0
C      1  0.5778500000000  0.5595720000000  0.5508710000000 1.0
C      1  0.5792150000000  0.5126370000000  0.4248200000000 1.0
C      1  0.4191640000000  0.4267260000000  0.5281090000000 1.0
C      1  0.4173250000000  0.5559850000000  0.5485900000000 1.0
C      1  0.4186300000000  0.5121150000000  0.4246740000000 1.0
C      1  0.6065010000000  0.4282520000000  0.5268890000000 1.0
C      1  0.6043360000000  0.5595640000000  0.5513760000000 1.0
C      1  0.6056990000000  0.5123510000000  0.4253810000000 1.0
C      1  0.3926730000000  0.4266870000000  0.5279460000000 1.0
C      1  0.3908740000000  0.5545100000000  0.5484880000000 1.0
C      1  0.3921740000000  0.5109120000000  0.4253340000000 1.0
C      1  0.5377580000000  0.4508740000000  0.5168830000000 1.0
C      1  0.5364920000000  0.5387390000000  0.5340330000000 1.0
C      1  0.5370510000000  0.5087410000000  0.4500910000000 1.0
C      1  0.4608140000000  0.4506890000000  0.5171240000000 1.0
C      1  0.4603480000000  0.5375120000000  0.5331850000000 1.0
C      1  0.4610360000000  0.5085580000000  0.4495870000000 1.0
C      1  0.4841220000000  0.4706150000000  0.4765730000000 1.0
C      1  0.4846930000000  0.4930390000000  0.5348090000000 1.0
C      1  0.4842720000000  0.5325030000000  0.4878300000000 1.0
C      1  0.5136390000000  0.4706510000000  0.4767170000000 1.0
C      1  0.5140750000000  0.4931580000000  0.5349240000000 1.0
C      1  0.5136270000000  0.5328400000000  0.4882570000000 1.0
C      1  0.4717550000000  0.4309530000000  0.3831340000000 1.0
C      1  0.4748150000000  0.4368160000000  0.6244010000000 1.0
C      1  0.4743010000000  0.6382070000000  0.4905720000000 1.0
C      1  0.5237750000000  0.4300440000000  0.3830500000000 1.0
C      1  0.5265450000000  0.4357740000000  0.6232230000000 1.0
C      1  0.5259950000000  0.6377280000000  0.4932150000000 1.0
C      1  0.5368450000000  0.4060260000000  0.5352870000000 1.0
C      1  0.5339120000000  0.5765500000000  0.5642540000000 1.0
C      1  0.5359050000000  0.5162580000000  0.4021950000000 1.0
C      1  0.4627990000000  0.4057980000000  0.5354610000000 1.0
C      1  0.4598530000000  0.5751960000000  0.5635340000000 1.0
C      1  0.4617880000000  0.5162900000000  0.4018000000000 1.0
C      1  0.4405780000000  0.4368360000000  0.4495280000000 1.0
C      1  0.4485870000000  0.4935930000000  0.5861020000000 1.0
C      1  0.4486260000000  0.5763630000000  0.4607130000000 1.0
C      1  0.5557640000000  0.4354060000000  0.4491990000000 1.0
C      1  0.5522730000000  0.4919850000000  0.5841610000000 1.0
C      1  0.5525040000000  0.5756110000000  0.4651980000000 1.0
C      1  0.4855980000000  0.4727110000000  0.4290810000000 1.0
C      1  0.4858560000000  0.4517880000000  0.5582510000000 1.0
C      1  0.4843560000000  0.5734700000000  0.5118830000000 1.0
C      1  0.5127600000000  0.4728970000000  0.4292450000000 1.0
C      1  0.5130720000000  0.4518250000000  0.5582170000000 1.0
C      1  0.5115790000000  0.5738440000000  0.5122300000000 1.0
C      1  0.5111350000000  0.3874970000000  0.4771030000000 1.0
C      1  0.5193540000000  0.5401600000000  0.6181410000000 1.0
C      1  0.5206420000000  0.5810080000000  0.4060430000000 1.0
C      1  0.4844950000000  0.3876440000000  0.4769040000000 1.0
C      1  0.4909010000000  0.5428080000000  0.6208680000000 1.0
C      1  0.4922640000000  0.5820760000000  0.4018670000000 1.0
C      1  0.4469660000000  0.4274280000000  0.5269170000000 1.0
C      1  0.4451420000000  0.5564050000000  0.5486090000000 1.0
C      1  0.4464420000000  0.5124690000000  0.4250990000000 1.0
C      1  0.5521970000000  0.4278860000000  0.5264490000000 1.0
C      1  0.5500590000000  0.5584730000000  0.5499530000000 1.0
C      1  0.5513970000000  0.5126880000000  0.4254350000000 1.0
C      1  0.4731840000000  0.4831630000000  0.4526920000000 1.0
C      1  0.4734470000000  0.4664520000000  0.5369250000000 1.0
C      1  0.4723890000000  0.5474950000000  0.5095890000000 1.0
C      1  0.5247880000000  0.4833930000000  0.4530500000000 1.0
C      1  0.5253880000000  0.4665830000000  0.5368970000000 1.0
C      1  0.5244030000000  0.5482450000000  0.5102880000000 1.0
C      1  0.4542590000000  0.6227190000000  0.4824390000000 1.0
C      1  0.4506050000000  0.4335190000000  0.3990800000000 1.0
C      1  0.4546350000000  0.4513720000000  0.6149870000000 1.0
C      1  0.5463890000000  0.6218060000000  0.4870220000000 1.0
C      1  0.5450890000000  0.4319440000000  0.3988700000000 1.0
C      1  0.5467580000000  0.4496380000000  0.6128790000000 1.0
C      1  0.5345700000000  0.5115780000000  0.5747580000000 1.0
C      1  0.5350110000000  0.5576270000000  0.4526880000000 1.0
C      1  0.5409130000000  0.4304130000000  0.4724420000000 1.0
C      1  0.4661020000000  0.5123940000000  0.5749270000000 1.0
C      1  0.4664490000000  0.5572990000000  0.4505110000000 1.0
C      1  0.4556670000000  0.4311670000000  0.4724560000000 1.0
C      1  0.5122360000000  0.5179280000000  0.3900050000000 1.0
C      1  0.5132010000000  0.3946070000000  0.5399080000000 1.0
C      1  0.5099490000000  0.5857930000000  0.5714240000000 1.0
C      1  0.4855680000000  0.5179780000000  0.3898200000000 1.0
C      1  0.4865490000000  0.3945500000000  0.5399340000000 1.0
C      1  0.4832940000000  0.5853320000000  0.5712230000000 1.0
C      1  0.5307480000000  0.4515210000000  0.4892880000000 1.0
C      1  0.5290920000000  0.5143750000000  0.5466820000000 1.0
C      1  0.5292140000000  0.5320180000000  0.4644160000000 1.0
C      1  0.4668380000000  0.4517610000000  0.4893160000000 1.0
C      1  0.4696140000000  0.5141820000000  0.5464890000000 1.0
C      1  0.4697700000000  0.5318260000000  0.4633530000000 1.0
C      1  0.5006570000000  0.4312340000000  0.6273090000000 1.0
C      1  0.4977420000000  0.4296780000000  0.3775880000000 1.0
C      1  0.5000680000000  0.6435390000000  0.4944500000000 1.0
END
