TITL C-3201372-1405-718 356.82428503315 125000 -976.93044607812 0 0 158 (C1) n - 1
REM
REM in /home/nfs/bkarasulu/CARBON/AIRSS/Generating-Clusters/LCBOP/Higher-Symm/SD-CG/FIRE-CG
REM
REM
REM
REM
REM
REM ./C.cell (b20cbc046b6831c77cfcea5457e17084)
REM AIRSS Version 0.9.1 bugfix July 2018 build 013d7b7c2542+ Fri, 06 Jul 2018 19:26:36 +0100
REM compiler GCC version 9.2.1 20190827 (Red Hat 9.2.1-1)
REM options -cpp -mtune=generic -march=x86-64 -g -O0 -fpre-include=/usr/include/finclude/math-vector-fortran.h
REM seed 306016733 -543594948 -259026323 283995674 -815042383 -1472214861 1908818277 -729020111 -821176458 1444911229 -1098214931 -1777920896 339358894 -235459111 -1482794706 -59293680 812064346 -1101534948 -818633749 -1215256010 -1036422897 -772174544 -947152875 2005250029 1629570850 2013620495 474877966 104766213 -987484892 31329020 1365514421 -1948125211 -870990790
REM
CELL 1.54180   50.00000   50.00000   50.00000   90.00000   90.00000   90.00000
LATT -1
SFAC C  
C      1  0.5073170000000  0.4483250000000  0.6024220000000 1.0
C      1  0.4056830000000  0.4439100000000  0.5388500000000 1.0
C      1  0.4412200000000  0.4510660000000  0.4190610000000 1.0
C      1  0.5585450000000  0.4541070000000  0.4093090000000 1.0
C      1  0.5905020000000  0.4528750000000  0.5284780000000 1.0
C      1  0.5025780000000  0.5536510000000  0.6009670000000 1.0
C      1  0.5922840000000  0.5485480000000  0.5341240000000 1.0
C      1  0.5649290000000  0.5472580000000  0.4249570000000 1.0
C      1  0.4560750000000  0.5471060000000  0.4164190000000 1.0
C      1  0.4078900000000  0.5478070000000  0.5177990000000 1.0
C      1  0.4664630000000  0.4134720000000  0.4487550000000 1.0
C      1  0.5416150000000  0.4133730000000  0.4445950000000 1.0
C      1  0.5638240000000  0.4098780000000  0.5204910000000 1.0
C      1  0.5054910000000  0.4016400000000  0.5682770000000 1.0
C      1  0.4425390000000  0.4054660000000  0.5228910000000 1.0
C      1  0.5433820000000  0.5909720000000  0.4449350000000 1.0
C      1  0.4674520000000  0.5912420000000  0.4433960000000 1.0
C      1  0.4405720000000  0.5933870000000  0.5142760000000 1.0
C      1  0.5039520000000  0.5923790000000  0.5619040000000 1.0
C      1  0.5667440000000  0.5947140000000  0.5191070000000 1.0
C      1  0.5388880000000  0.5104870000000  0.4903500000000 1.0
C      1  0.5014170000000  0.5320650000000  0.5077150000000 1.0
C      1  0.4637900000000  0.5110930000000  0.5552070000000 1.0
C      1  0.4495750000000  0.5082820000000  0.4929760000000 1.0
C      1  0.4906080000000  0.5116890000000  0.4558870000000 1.0
C      1  0.4645120000000  0.4826490000000  0.4891040000000 1.0
C      1  0.4660540000000  0.4848840000000  0.5606330000000 1.0
C      1  0.5171200000000  0.4889790000000  0.5263770000000 1.0
C      1  0.5341620000000  0.4521380000000  0.4912360000000 1.0
C      1  0.4930220000000  0.4911060000000  0.4790460000000 1.0
C      1  0.5052900000000  0.5194970000000  0.5652050000000 1.0
C      1  0.4491840000000  0.5231800000000  0.5357210000000 1.0
C      1  0.4488370000000  0.5232550000000  0.4683370000000 1.0
C      1  0.5103100000000  0.5219830000000  0.4389150000000 1.0
C      1  0.5525020000000  0.5247590000000  0.5118450000000 1.0
C      1  0.4904630000000  0.4722130000000  0.5621040000000 1.0
C      1  0.5470380000000  0.4807010000000  0.5257760000000 1.0
C      1  0.5427590000000  0.4894340000000  0.4454180000000 1.0
C      1  0.4576740000000  0.4811340000000  0.4455860000000 1.0
C      1  0.4365040000000  0.4774690000000  0.5296540000000 1.0
C      1  0.5231650000000  0.4997920000000  0.4267160000000 1.0
C      1  0.5558140000000  0.4717760000000  0.4961640000000 1.0
C      1  0.5131560000000  0.4907550000000  0.5572430000000 1.0
C      1  0.4416900000000  0.4731160000000  0.5575220000000 1.0
C      1  0.4443350000000  0.4716240000000  0.4689800000000 1.0
C      1  0.4634040000000  0.5083650000000  0.4481700000000 1.0
C      1  0.4387840000000  0.5043860000000  0.5183250000000 1.0
C      1  0.4776090000000  0.5258220000000  0.5733710000000 1.0
C      1  0.5568760000000  0.5087190000000  0.5361210000000 1.0
C      1  0.5539030000000  0.5069360000000  0.4663530000000 1.0
C      1  0.5471080000000  0.4018500000000  0.4719530000000 1.0
C      1  0.5430490000000  0.3937060000000  0.5325850000000 1.0
C      1  0.4853610000000  0.3896480000000  0.5487650000000 1.0
C      1  0.4543170000000  0.3976460000000  0.4971980000000 1.0
C      1  0.4920290000000  0.4001530000000  0.4506150000000 1.0
C      1  0.4612590000000  0.6057930000000  0.4683840000000 1.0
C      1  0.4643710000000  0.6052370000000  0.5287360000000 1.0
C      1  0.5231530000000  0.6052200000000  0.5439200000000 1.0
C      1  0.5559840000000  0.6061630000000  0.4936430000000 1.0
C      1  0.5172420000000  0.6042100000000  0.4471970000000 1.0
C      1  0.4531830000000  0.4755370000000  0.4028460000000 1.0
C      1  0.5773110000000  0.4758110000000  0.4201920000000 1.0
C      1  0.5910660000000  0.4760900000000  0.5463330000000 1.0
C      1  0.4859220000000  0.4695530000000  0.6088890000000 1.0
C      1  0.3949320000000  0.4686040000000  0.5215290000000 1.0
C      1  0.5582410000000  0.5274400000000  0.4046510000000 1.0
C      1  0.4339160000000  0.5270140000000  0.4169090000000 1.0
C      1  0.4053690000000  0.5277850000000  0.5422140000000 1.0
C      1  0.5171090000000  0.5258910000000  0.6062090000000 1.0
C      1  0.6015500000000  0.5241410000000  0.5192970000000 1.0
C      1  0.5965790000000  0.5220920000000  0.4905900000000 1.0
C      1  0.5432250000000  0.5230800000000  0.5886820000000 1.0
C      1  0.4252640000000  0.5365600000000  0.5704870000000 1.0
C      1  0.4129440000000  0.5311830000000  0.4375370000000 1.0
C      1  0.5325710000000  0.5325250000000  0.3914290000000 1.0
C      1  0.4002490000000  0.4652820000000  0.4908880000000 1.0
C      1  0.4556480000000  0.4611730000000  0.6015330000000 1.0
C      1  0.5696990000000  0.4764870000000  0.5668480000000 1.0
C      1  0.5861170000000  0.4714770000000  0.4504850000000 1.0
C      1  0.4837430000000  0.4777660000000  0.3993540000000 1.0
C      1  0.4733160000000  0.5558650000000  0.6056560000000 1.0
C      1  0.4007010000000  0.5416960000000  0.4898730000000 1.0
C      1  0.4801840000000  0.5441210000000  0.4003580000000 1.0
C      1  0.5834380000000  0.5390040000000  0.4449360000000 1.0
C      1  0.5814420000000  0.5422670000000  0.5601950000000 1.0
C      1  0.5329010000000  0.4603460000000  0.5966290000000 1.0
C      1  0.5991210000000  0.4568640000000  0.5010110000000 1.0
C      1  0.5345410000000  0.4643090000000  0.3955090000000 1.0
C      1  0.4170850000000  0.4535460000000  0.4376000000000 1.0
C      1  0.4101650000000  0.4441290000000  0.5685690000000 1.0
C      1  0.4337880000000  0.4575600000000  0.5801180000000 1.0
C      1  0.4172600000000  0.4622940000000  0.4664870000000 1.0
C      1  0.5129000000000  0.4815010000000  0.4055250000000 1.0
C      1  0.5813980000000  0.4677720000000  0.4806720000000 1.0
C      1  0.5416780000000  0.4762830000000  0.5750610000000 1.0
C      1  0.5596900000000  0.5231720000000  0.5630750000000 1.0
C      1  0.5797920000000  0.5212980000000  0.4668400000000 1.0
C      1  0.5058710000000  0.5394070000000  0.3918360000000 1.0
C      1  0.4028000000000  0.5365130000000  0.4627950000000 1.0
C      1  0.4569090000000  0.5415700000000  0.5865090000000 1.0
C      1  0.4639530000000  0.4373100000000  0.4333630000000 1.0
C      1  0.5507560000000  0.4389930000000  0.4332040000000 1.0
C      1  0.5674650000000  0.4356020000000  0.5322310000000 1.0
C      1  0.5001470000000  0.4275700000000  0.5825160000000 1.0
C      1  0.4287040000000  0.4305700000000  0.5244700000000 1.0
C      1  0.5432540000000  0.5637200000000  0.4338760000000 1.0
C      1  0.4561390000000  0.5647100000000  0.4396840000000 1.0
C      1  0.4304060000000  0.5669550000000  0.5216070000000 1.0
C      1  0.5107720000000  0.5665560000000  0.5746770000000 1.0
C      1  0.5758490000000  0.5673000000000  0.5190630000000 1.0
C      1  0.5125270000000  0.6162230000000  0.5196060000000 1.0
C      1  0.4845440000000  0.6164680000000  0.5112950000000 1.0
C      1  0.4838930000000  0.6169930000000  0.4821060000000 1.0
C      1  0.5114620000000  0.6168190000000  0.4723700000000 1.0
C      1  0.5292670000000  0.6170170000000  0.4956390000000 1.0
C      1  0.4961680000000  0.3815870000000  0.5227840000000 1.0
C      1  0.5240330000000  0.3832830000000  0.5141360000000 1.0
C      1  0.5251520000000  0.3875330000000  0.4849270000000 1.0
C      1  0.4978000000000  0.3875800000000  0.4755410000000 1.0
C      1  0.4799940000000  0.3849600000000  0.4984730000000 1.0
C      1  0.5326860000000  0.3967290000000  0.5592360000000 1.0
C      1  0.4568950000000  0.3950270000000  0.5461620000000 1.0
C      1  0.4488100000000  0.4077020000000  0.4709240000000 1.0
C      1  0.5153480000000  0.4054140000000  0.4351980000000 1.0
C      1  0.5672020000000  0.4073250000000  0.4917230000000 1.0
C      1  0.4760840000000  0.5996230000000  0.5550580000000 1.0
C      1  0.5513900000000  0.6019480000000  0.5424780000000 1.0
C      1  0.5620040000000  0.5989050000000  0.4661040000000 1.0
C      1  0.4934990000000  0.5973120000000  0.4328350000000 1.0
C      1  0.4393300000000  0.6011570000000  0.4863610000000 1.0
C      1  0.5409440000000  0.4610090000000  0.4484800000000 1.0
C      1  0.5423950000000  0.4505730000000  0.5349370000000 1.0
C      1  0.4893500000000  0.4443090000000  0.5620870000000 1.0
C      1  0.4445640000000  0.4532540000000  0.5164800000000 1.0
C      1  0.4786060000000  0.4604210000000  0.4433250000000 1.0
C      1  0.4527420000000  0.5511340000000  0.4650700000000 1.0
C      1  0.4515450000000  0.5507290000000  0.5315830000000 1.0
C      1  0.5146550000000  0.5448480000000  0.5552740000000 1.0
C      1  0.5563600000000  0.5516650000000  0.5058760000000 1.0
C      1  0.5215450000000  0.5477650000000  0.4448270000000 1.0
C      1  0.4833950000000  0.4322010000000  0.5383930000000 1.0
C      1  0.4700230000000  0.4573930000000  0.5043040000000 1.0
C      1  0.4983130000000  0.4654370000000  0.4628590000000 1.0
C      1  0.5223330000000  0.4537510000000  0.4670160000000 1.0
C      1  0.5211860000000  0.4435140000000  0.5147330000000 1.0
C      1  0.5013360000000  0.5477490000000  0.5308610000000 1.0
C      1  0.5400670000000  0.5624090000000  0.4864720000000 1.0
C      1  0.5176530000000  0.5562370000000  0.4714450000000 1.0
C      1  0.4708360000000  0.5605870000000  0.4839280000000 1.0
C      1  0.4770240000000  0.5610460000000  0.5333430000000 1.0
C      1  0.3946740000000  0.4982000000000  0.5344970000000 1.0
C      1  0.6036420000000  0.4998550000000  0.5353270000000 1.0
C      1  0.4386750000000  0.5012260000000  0.4042370000000 1.0
C      1  0.5728460000000  0.5021510000000  0.4074780000000 1.0
C      1  0.4991540000000  0.4988520000000  0.6123210000000 1.0
C      1  0.4926560000000  0.4431920000000  0.5146590000000 1.0
C      1  0.4957570000000  0.5494390000000  0.4863200000000 1.0
C      1  0.5102520000000  0.5039980000000  0.5007340000000 1.0
END
