TITL C-3201373-1215-1113 917.180309290173 125000 -986.371923328941 0 0 165 (C1) n - 1
REM
REM in /home/nfs/bkarasulu/CARBON/AIRSS/Generating-Clusters/LCBOP/Higher-Symm/SD-CG/FIRE-CG
REM
REM
REM
REM
REM
REM ./C.cell (b20cbc046b6831c77cfcea5457e17084)
REM AIRSS Version 0.9.1 bugfix July 2018 build 013d7b7c2542+ Fri, 06 Jul 2018 19:26:36 +0100
REM compiler GCC version 9.2.1 20190827 (Red Hat 9.2.1-1)
REM options -cpp -mtune=generic -march=x86-64 -g -O0 -fpre-include=/usr/include/finclude/math-vector-fortran.h
REM seed 393179294 169184018 -1192143954 -2130331708 580756501 -741737995 -1612611387 -245243076 -1171369847 -1771220076 -948234589 1685661044 -875224605 1895575419 -1446657736 -277065283 -1213122843 -948811824 650229735 656576764 1213553529 824659755 2025575729 649131720 -909458744 1347467680 1166635476 -265903009 1735735030 -1361468866 792146641 1529749522 -375533840
REM
CELL 1.54180   50.00000   50.00000   50.00000   90.00000   90.00000   90.00000
LATT -1
SFAC C  
C      1  0.5640970000000  0.5755820000000  0.5783050000000 1.0
C      1  0.4395480000000  0.4260440000000  0.4187810000000 1.0
C      1  0.5158780000000  0.5930030000000  0.5734900000000 1.0
C      1  0.4897540000000  0.4083660000000  0.4256210000000 1.0
C      1  0.5660260000000  0.4758030000000  0.5829160000000 1.0
C      1  0.4292600000000  0.5220610000000  0.4183110000000 1.0
C      1  0.3908880000000  0.4758110000000  0.5176390000000 1.0
C      1  0.6114300000000  0.5173040000000  0.4841760000000 1.0
C      1  0.5923690000000  0.5854660000000  0.4863100000000 1.0
C      1  0.4182150000000  0.4089270000000  0.5001610000000 1.0
C      1  0.4072600000000  0.4323980000000  0.4873090000000 1.0
C      1  0.5986790000000  0.5645390000000  0.5080670000000 1.0
C      1  0.5601900000000  0.4229240000000  0.5780980000000 1.0
C      1  0.4449110000000  0.5789450000000  0.4163650000000 1.0
C      1  0.4892830000000  0.5219840000000  0.4506360000000 1.0
C      1  0.5052680000000  0.4845550000000  0.5607450000000 1.0
C      1  0.4924880000000  0.4894680000000  0.6345760000000 1.0
C      1  0.4879830000000  0.5068010000000  0.3751210000000 1.0
C      1  0.4737790000000  0.5357480000000  0.4709530000000 1.0
C      1  0.5255630000000  0.4750110000000  0.5416640000000 1.0
C      1  0.4899910000000  0.5880460000000  0.5817220000000 1.0
C      1  0.5169400000000  0.4137230000000  0.4242940000000 1.0
C      1  0.5435980000000  0.4292270000000  0.4630440000000 1.0
C      1  0.4624290000000  0.5790530000000  0.5440360000000 1.0
C      1  0.5128740000000  0.4555670000000  0.3862750000000 1.0
C      1  0.4141810000000  0.5012660000000  0.6747140000000 1.0
C      1  0.5869720000000  0.5592690000000  0.5670870000000 1.0
C      1  0.4153200000000  0.4411470000000  0.4306010000000 1.0
C      1  0.5425340000000  0.4249470000000  0.4334300000000 1.0
C      1  0.4631370000000  0.5793610000000  0.5740120000000 1.0
C      1  0.4059760000000  0.4350210000000  0.4579690000000 1.0
C      1  0.5969580000000  0.5645140000000  0.5383940000000 1.0
C      1  0.4326360000000  0.5151620000000  0.5031450000000 1.0
C      1  0.5585440000000  0.4928710000000  0.5060820000000 1.0
C      1  0.3711430000000  0.4929230000000  0.5883770000000 1.0
C      1  0.6319160000000  0.5168660000000  0.4102410000000 1.0
C      1  0.5077990000000  0.5694420000000  0.4730910000000 1.0
C      1  0.5005090000000  0.4350850000000  0.5406240000000 1.0
C      1  0.5667080000000  0.4417300000000  0.4726810000000 1.0
C      1  0.4378180000000  0.5720780000000  0.5318850000000 1.0
C      1  0.4118240000000  0.4692680000000  0.4176680000000 1.0
C      1  0.5854760000000  0.5288390000000  0.5853760000000 1.0
C      1  0.4479240000000  0.5514660000000  0.4093900000000 1.0
C      1  0.5484690000000  0.4496060000000  0.5854440000000 1.0
C      1  0.5302140000000  0.5290650000000  0.3644630000000 1.0
C      1  0.4702870000000  0.4570880000000  0.6093170000000 1.0
C      1  0.5152250000000  0.4535620000000  0.4997730000000 1.0
C      1  0.4921360000000  0.5497560000000  0.5123820000000 1.0
C      1  0.5399140000000  0.5019860000000  0.4628810000000 1.0
C      1  0.4502160000000  0.4962940000000  0.5490480000000 1.0
C      1  0.3961150000000  0.5716690000000  0.5647300000000 1.0
C      1  0.6097480000000  0.4351500000000  0.4433570000000 1.0
C      1  0.3903160000000  0.4821160000000  0.5457030000000 1.0
C      1  0.6191210000000  0.5151210000000  0.4569210000000 1.0
C      1  0.4797560000000  0.5102580000000  0.4251870000000 1.0
C      1  0.5090580000000  0.4984400000000  0.5858870000000 1.0
C      1  0.5450180000000  0.4806230000000  0.4202040000000 1.0
C      1  0.4329080000000  0.5026740000000  0.6255980000000 1.0
C      1  0.5122130000000  0.5258050000000  0.5824790000000 1.0
C      1  0.4816940000000  0.4828240000000  0.4289200000000 1.0
C      1  0.4562380000000  0.4462980000000  0.5142620000000 1.0
C      1  0.5553820000000  0.5608250000000  0.4790080000000 1.0
C      1  0.5292870000000  0.3672790000000  0.5431420000000 1.0
C      1  0.4914390000000  0.6362840000000  0.4176030000000 1.0
C      1  0.5091230000000  0.4923180000000  0.6134450000000 1.0
C      1  0.4787850000000  0.5186640000000  0.3987550000000 1.0
C      1  0.5440970000000  0.5387910000000  0.5460770000000 1.0
C      1  0.4551980000000  0.4550380000000  0.4564750000000 1.0
C      1  0.5282000000000  0.5557910000000  0.4050140000000 1.0
C      1  0.4423240000000  0.4358500000000  0.5754760000000 1.0
C      1  0.6060070000000  0.4790540000000  0.4260800000000 1.0
C      1  0.4024180000000  0.5251160000000  0.5711420000000 1.0
C      1  0.5143050000000  0.4004080000000  0.5700760000000 1.0
C      1  0.4948000000000  0.5944420000000  0.4350220000000 1.0
C      1  0.5345510000000  0.5684530000000  0.4304050000000 1.0
C      1  0.4440350000000  0.4124040000000  0.5625400000000 1.0
C      1  0.4189770000000  0.4952790000000  0.4084780000000 1.0
C      1  0.5732140000000  0.5038650000000  0.5939320000000 1.0
C      1  0.5247110000000  0.4675130000000  0.4062640000000 1.0
C      1  0.4233390000000  0.5020310000000  0.6503200000000 1.0
C      1  0.4143450000000  0.5802480000000  0.5834240000000 1.0
C      1  0.5941090000000  0.4229070000000  0.4244780000000 1.0
C      1  0.4345080000000  0.3963060000000  0.5179270000000 1.0
C      1  0.5706210000000  0.5816880000000  0.4657400000000 1.0
C      1  0.5020160000000  0.4780530000000  0.4474210000000 1.0
C      1  0.5278760000000  0.5206510000000  0.5294460000000 1.0
C      1  0.5310580000000  0.5699180000000  0.4879710000000 1.0
C      1  0.4754710000000  0.4350760000000  0.5285910000000 1.0
C      1  0.5197980000000  0.4507060000000  0.5274750000000 1.0
C      1  0.4871410000000  0.5561520000000  0.4853910000000 1.0
C      1  0.5709220000000  0.4369560000000  0.4163110000000 1.0
C      1  0.4389200000000  0.5653030000000  0.5865710000000 1.0
C      1  0.4746510000000  0.5377820000000  0.5534090000000 1.0
C      1  0.5048030000000  0.4520860000000  0.4556290000000 1.0
C      1  0.4276930000000  0.5176670000000  0.4465330000000 1.0
C      1  0.5807640000000  0.4774910000000  0.5577440000000 1.0
C      1  0.4982070000000  0.4763920000000  0.4964010000000 1.0
C      1  0.5045320000000  0.5244930000000  0.5150160000000 1.0
C      1  0.4297360000000  0.4952930000000  0.4615770000000 1.0
C      1  0.5849080000000  0.5019650000000  0.5463770000000 1.0
C      1  0.4418220000000  0.4727000000000  0.4739340000000 1.0
C      1  0.5713660000000  0.5251510000000  0.5431970000000 1.0
C      1  0.4506690000000  0.4597500000000  0.5881650000000 1.0
C      1  0.5429670000000  0.5364290000000  0.3888980000000 1.0
C      1  0.5674040000000  0.5363960000000  0.4851600000000 1.0
C      1  0.4376860000000  0.4666040000000  0.5038870000000 1.0
C      1  0.5753630000000  0.4651820000000  0.4594380000000 1.0
C      1  0.4279170000000  0.5461450000000  0.5391680000000 1.0
C      1  0.4046560000000  0.5183900000000  0.4988570000000 1.0
C      1  0.5844940000000  0.4816010000000  0.5060720000000 1.0
C      1  0.5790820000000  0.3905490000000  0.5490420000000 1.0
C      1  0.4389750000000  0.6238310000000  0.4029110000000 1.0
C      1  0.5538250000000  0.4820220000000  0.4477410000000 1.0
C      1  0.4488250000000  0.5267620000000  0.5489790000000 1.0
C      1  0.6020740000000  0.4622320000000  0.4487820000000 1.0
C      1  0.4022280000000  0.5465540000000  0.5523130000000 1.0
C      1  0.5076230000000  0.4270580000000  0.5661690000000 1.0
C      1  0.5099480000000  0.5736810000000  0.4457390000000 1.0
C      1  0.4084620000000  0.4564580000000  0.5043440000000 1.0
C      1  0.5948510000000  0.5387480000000  0.4937860000000 1.0
C      1  0.4427380000000  0.4864800000000  0.5785940000000 1.0
C      1  0.5630340000000  0.5176680000000  0.3965550000000 1.0
C      1  0.5533460000000  0.3788740000000  0.5548100000000 1.0
C      1  0.4654150000000  0.6241590000000  0.4141660000000 1.0
C      1  0.4512540000000  0.3946650000000  0.5412950000000 1.0
C      1  0.5540990000000  0.5896200000000  0.4414360000000 1.0
C      1  0.4541810000000  0.4486660000000  0.4073230000000 1.0
C      1  0.5489290000000  0.5560950000000  0.5935680000000 1.0
C      1  0.4398620000000  0.4920010000000  0.5197520000000 1.0
C      1  0.5540480000000  0.5117110000000  0.4847990000000 1.0
C      1  0.4768860000000  0.3813270000000  0.5433400000000 1.0
C      1  0.5392960000000  0.6149030000000  0.4358300000000 1.0
C      1  0.4742330000000  0.5463140000000  0.3980590000000 1.0
C      1  0.5184390000000  0.4446770000000  0.5866080000000 1.0
C      1  0.5425200000000  0.3983820000000  0.5753090000000 1.0
C      1  0.4681550000000  0.5958400000000  0.4248930000000 1.0
C      1  0.4603180000000  0.4271790000000  0.4597400000000 1.0
C      1  0.5414430000000  0.5682550000000  0.5390950000000 1.0
C      1  0.4821490000000  0.5595210000000  0.5362740000000 1.0
C      1  0.5201510000000  0.4398200000000  0.4753430000000 1.0
C      1  0.4792780000000  0.4868980000000  0.5494570000000 1.0
C      1  0.5122910000000  0.5034800000000  0.4572880000000 1.0
C      1  0.5350450000000  0.5389080000000  0.5757160000000 1.0
C      1  0.4616670000000  0.4646070000000  0.4295660000000 1.0
C      1  0.4620530000000  0.4127030000000  0.4345900000000 1.0
C      1  0.5418400000000  0.5867990000000  0.5614660000000 1.0
C      1  0.5854170000000  0.4702170000000  0.4072330000000 1.0
C      1  0.4260690000000  0.5315850000000  0.5882740000000 1.0
C      1  0.5830350000000  0.4149330000000  0.5619240000000 1.0
C      1  0.4271720000000  0.5987510000000  0.4046010000000 1.0
C      1  0.5111160000000  0.6187190000000  0.4298150000000 1.0
C      1  0.5041840000000  0.3800310000000  0.5516690000000 1.0
C      1  0.4997850000000  0.5598520000000  0.3969460000000 1.0
C      1  0.4965100000000  0.4473020000000  0.6042180000000 1.0
C      1  0.3858230000000  0.4991220000000  0.5018960000000 1.0
C      1  0.6078880000000  0.4928840000000  0.4983330000000 1.0
C      1  0.4511770000000  0.5267350000000  0.4853150000000 1.0
C      1  0.5394040000000  0.4945790000000  0.5268890000000 1.0
C      1  0.5657010000000  0.4902670000000  0.4029670000000 1.0
C      1  0.4369220000000  0.5074210000000  0.5983760000000 1.0
C      1  0.6191680000000  0.5039060000000  0.4306860000000 1.0
C      1  0.3883160000000  0.5001520000000  0.5680840000000 1.0
C      1  0.5087310000000  0.5136510000000  0.3593880000000 1.0
C      1  0.4708160000000  0.4731390000000  0.6326870000000 1.0
C      1  0.4936240000000  0.5016340000000  0.5031710000000 1.0
END
