TITL C-3201372-1405-2095 -1.35302681606146e-07 125000 -282.892432173067 0 0 48 (S4) n - 1
REM
REM in /home/nfs/bkarasulu/CARBON/AIRSS/Generating-Clusters/LCBOP/Higher-Symm/SD-CG/FIRE-CG
REM
REM
REM
REM
REM
REM ./C.cell (b20cbc046b6831c77cfcea5457e17084)
REM AIRSS Version 0.9.1 bugfix July 2018 build 013d7b7c2542+ Fri, 06 Jul 2018 19:26:36 +0100
REM compiler GCC version 9.2.1 20190827 (Red Hat 9.2.1-1)
REM options -cpp -mtune=generic -march=x86-64 -g -O0 -fpre-include=/usr/include/finclude/math-vector-fortran.h
REM seed 1742388349 840108778 -875242708 1261240271 -1572399262 -520524653 -999232005 -1348110968 215575207 -2109633773 443890808 1615043632 1653495849 -2126805650 2034517313 982641786 368961543 1505134673 -1186524225 -893677110 -2016458616 -269938542 9314723 -1181664525 802309224 -67969675 1719325491 1725183152 -399385648 1495625199 -61717579 1739216786 -1557451691
REM
CELL 1.54180   50.00000   50.00000   50.00000   90.00000   90.00000   90.00000
LATT -1
SFAC C  
C      1  0.5179260000000  0.4637040000000  0.5585960000000 1.0
C      1  0.4665180000000  0.5554620000000  0.5136780000000 1.0
C      1  0.5532410000000  0.5138300000000  0.4664170000000 1.0
C      1  0.5179270000000  0.5362950000000  0.4414040000000 1.0
C      1  0.4851520000000  0.4623670000000  0.4442900000000 1.0
C      1  0.4851540000000  0.5376330000000  0.5557100000000 1.0
C      1  0.4665160000000  0.4445400000000  0.4863230000000 1.0
C      1  0.5352630000000  0.5569470000000  0.4809020000000 1.0
C      1  0.5352610000000  0.4430510000000  0.5190970000000 1.0
C      1  0.5532410000000  0.4861680000000  0.5335820000000 1.0
C      1  0.4468060000000  0.5154050000000  0.5349740000000 1.0
C      1  0.4468040000000  0.4845970000000  0.4650270000000 1.0
C      1  0.5148480000000  0.5557090000000  0.4623670000000 1.0
C      1  0.4647390000000  0.5190980000000  0.5569480000000 1.0
C      1  0.5531950000000  0.4650260000000  0.5154040000000 1.0
C      1  0.5148470000000  0.4442900000000  0.5376330000000 1.0
C      1  0.4820720000000  0.4414040000000  0.4637040000000 1.0
C      1  0.4820750000000  0.5585960000000  0.5362960000000 1.0
C      1  0.4647370000000  0.4809030000000  0.4430520000000 1.0
C      1  0.5334830000000  0.4863220000000  0.5554610000000 1.0
C      1  0.5334820000000  0.5136770000000  0.4445390000000 1.0
C      1  0.5531950000000  0.5349730000000  0.4845950000000 1.0
C      1  0.4467590000000  0.5335840000000  0.5138310000000 1.0
C      1  0.4467580000000  0.4664180000000  0.4861700000000 1.0
C      1  0.5300800000000  0.4865260000000  0.4404550000000 1.0
C      1  0.4855340000000  0.4427380000000  0.5360180000000 1.0
C      1  0.4419400000000  0.5303170000000  0.4868230000000 1.0
C      1  0.5300810000000  0.5134730000000  0.5595450000000 1.0
C      1  0.4599310000000  0.4794090000000  0.5573840000000 1.0
C      1  0.4599310000000  0.5205930000000  0.4426170000000 1.0
C      1  0.4855360000000  0.5572620000000  0.4639820000000 1.0
C      1  0.5217690000000  0.4423250000000  0.4595140000000 1.0
C      1  0.5217720000000  0.5576750000000  0.5404860000000 1.0
C      1  0.4419390000000  0.4696850000000  0.5131780000000 1.0
C      1  0.5559040000000  0.5349960000000  0.5138000000000 1.0
C      1  0.5559030000000  0.4650020000000  0.4861990000000 1.0
C      1  0.5400670000000  0.4426160000000  0.4794080000000 1.0
C      1  0.4782300000000  0.5404870000000  0.4423250000000 1.0
C      1  0.4440960000000  0.4862000000000  0.5349970000000 1.0
C      1  0.5400700000000  0.5573830000000  0.5205920000000 1.0
C      1  0.4699200000000  0.5595460000000  0.4865270000000 1.0
C      1  0.4699180000000  0.4404550000000  0.5134740000000 1.0
C      1  0.4782290000000  0.4595140000000  0.5576750000000 1.0
C      1  0.5144640000000  0.4639820000000  0.4427380000000 1.0
C      1  0.5144660000000  0.5360170000000  0.5572620000000 1.0
C      1  0.4440960000000  0.5138020000000  0.4650040000000 1.0
C      1  0.5580610000000  0.5131760000000  0.5303160000000 1.0
C      1  0.5580600000000  0.4868220000000  0.4696830000000 1.0
END
