TITL C-3201375-1262-1116 1989.1723758819 125000 -715.76785760894 0 0 118 (C1) n - 1
REM
REM in /home/nfs/bkarasulu/CARBON/AIRSS/Generating-Clusters/LCBOP/Higher-Symm/SD-CG/FIRE-CG
REM
REM
REM
REM
REM
REM ./C.cell (b20cbc046b6831c77cfcea5457e17084)
REM AIRSS Version 0.9.1 bugfix July 2018 build 013d7b7c2542+ Fri, 06 Jul 2018 19:26:36 +0100
REM compiler GCC version 9.2.1 20190827 (Red Hat 9.2.1-1)
REM options -cpp -mtune=generic -march=x86-64 -g -O0 -fpre-include=/usr/include/finclude/math-vector-fortran.h
REM seed -789847002 1513162924 1237287678 -849081651 19428984 712845175 -243921105 -1037116912 -1307822377 -1913380566 1483605960 -515632586 -2133284664 1650015112 -1630278682 1857381451 878774490 -858871912 -1049234838 568705936 -761634604 -1573258681 666602606 155200668 1844449674 505361411 -1290182087 1756962985 1707956271 668982737 1761543909 -310893240 -561139053
REM
CELL 1.54180   50.00000   50.00000   50.00000   90.00000   90.00000   90.00000
LATT -1
SFAC C  
C      1  0.4550680000000  0.4752400000000  0.5257350000000 1.0
C      1  0.5450090000000  0.4750500000000  0.4741470000000 1.0
C      1  0.4540070000000  0.5241300000000  0.4741490000000 1.0
C      1  0.5450150000000  0.5238280000000  0.5257240000000 1.0
C      1  0.5257570000000  0.4746740000000  0.4536470000000 1.0
C      1  0.4742740000000  0.4749710000000  0.5462840000000 1.0
C      1  0.4742700000000  0.5236470000000  0.4546610000000 1.0
C      1  0.5257510000000  0.5241590000000  0.5462240000000 1.0
C      1  0.4994400000000  0.4273560000000  0.5356040000000 1.0
C      1  0.5003830000000  0.4269910000000  0.4641650000000 1.0
C      1  0.4996670000000  0.5714620000000  0.4637670000000 1.0
C      1  0.5006590000000  0.5718650000000  0.5354530000000 1.0
C      1  0.5361400000000  0.4271990000000  0.4997160000000 1.0
C      1  0.4640810000000  0.4274260000000  0.5004300000000 1.0
C      1  0.4645820000000  0.5715870000000  0.4992590000000 1.0
C      1  0.5363910000000  0.5718060000000  0.4999120000000 1.0
C      1  0.5444900000000  0.5165510000000  0.4352560000000 1.0
C      1  0.4555180000000  0.5169450000000  0.5647090000000 1.0
C      1  0.5444430000000  0.4821970000000  0.5648120000000 1.0
C      1  0.4555440000000  0.4825200000000  0.4351580000000 1.0
C      1  0.4355340000000  0.5163980000000  0.5443160000000 1.0
C      1  0.5645750000000  0.5160780000000  0.4555680000000 1.0
C      1  0.5643910000000  0.4827520000000  0.5443780000000 1.0
C      1  0.4355510000000  0.4822530000000  0.4555610000000 1.0
C      1  0.5465930000000  0.4943940000000  0.4171100000000 1.0
C      1  0.4534830000000  0.4947110000000  0.5828160000000 1.0
C      1  0.5464560000000  0.5044930000000  0.5828540000000 1.0
C      1  0.4533150000000  0.5056010000000  0.4178340000000 1.0
C      1  0.4181570000000  0.4933540000000  0.5464580000000 1.0
C      1  0.5819640000000  0.4930960000000  0.4533730000000 1.0
C      1  0.5818530000000  0.5056660000000  0.5466090000000 1.0
C      1  0.4173650000000  0.5043930000000  0.4535710000000 1.0
C      1  0.4794800000000  0.4693050000000  0.4455110000000 1.0
C      1  0.5204610000000  0.4694350000000  0.5543100000000 1.0
C      1  0.4795150000000  0.5297180000000  0.5542130000000 1.0
C      1  0.5204710000000  0.5291130000000  0.4459510000000 1.0
C      1  0.4464880000000  0.4697460000000  0.4795050000000 1.0
C      1  0.5536280000000  0.4698380000000  0.5204570000000 1.0
C      1  0.5538680000000  0.5290850000000  0.4794530000000 1.0
C      1  0.4461790000000  0.5294680000000  0.5204350000000 1.0
C      1  0.5475660000000  0.4245510000000  0.4740060000000 1.0
C      1  0.4528010000000  0.4246350000000  0.5259240000000 1.0
C      1  0.5478290000000  0.5743360000000  0.5256430000000 1.0
C      1  0.4536970000000  0.5750810000000  0.4739600000000 1.0
C      1  0.4740930000000  0.4238950000000  0.5464200000000 1.0
C      1  0.5260010000000  0.4238070000000  0.4531910000000 1.0
C      1  0.5262460000000  0.5751100000000  0.5464390000000 1.0
C      1  0.4741120000000  0.5742720000000  0.4525640000000 1.0
C      1  0.5927930000000  0.4709180000000  0.4937470000000 1.0
C      1  0.4071270000000  0.4705740000000  0.5064290000000 1.0
C      1  0.5929380000000  0.5276720000000  0.5062610000000 1.0
C      1  0.4061980000000  0.5269980000000  0.4936500000000 1.0
C      1  0.4932550000000  0.4716150000000  0.5942910000000 1.0
C      1  0.5065110000000  0.4718630000000  0.4057860000000 1.0
C      1  0.5066770000000  0.5277330000000  0.5941680000000 1.0
C      1  0.4933830000000  0.5283070000000  0.4067330000000 1.0
C      1  0.5324880000000  0.5308080000000  0.5757980000000 1.0
C      1  0.4678550000000  0.5316050000000  0.4256580000000 1.0
C      1  0.5323880000000  0.4682160000000  0.4240080000000 1.0
C      1  0.4675300000000  0.4684160000000  0.5758890000000 1.0
C      1  0.5742270000000  0.5315190000000  0.5318700000000 1.0
C      1  0.4243020000000  0.5305820000000  0.4677330000000 1.0
C      1  0.4259710000000  0.4673360000000  0.5319760000000 1.0
C      1  0.5741580000000  0.4672250000000  0.4680280000000 1.0
C      1  0.5673960000000  0.4396320000000  0.4574790000000 1.0
C      1  0.4328150000000  0.4397560000000  0.5425170000000 1.0
C      1  0.5676150000000  0.5591960000000  0.5422360000000 1.0
C      1  0.4291090000000  0.5573450000000  0.4553540000000 1.0
C      1  0.4552660000000  0.4416370000000  0.5708970000000 1.0
C      1  0.5446660000000  0.4414170000000  0.4289760000000 1.0
C      1  0.5448690000000  0.5575270000000  0.5706610000000 1.0
C      1  0.4573850000000  0.5592040000000  0.4326560000000 1.0
C      1  0.5976790000000  0.5478130000000  0.4863610000000 1.0
C      1  0.4020500000000  0.5472900000000  0.5136050000000 1.0
C      1  0.5972760000000  0.4507980000000  0.5137620000000 1.0
C      1  0.4028810000000  0.4503550000000  0.4864620000000 1.0
C      1  0.4867780000000  0.5481320000000  0.5980560000000 1.0
C      1  0.5132370000000  0.5485740000000  0.4023600000000 1.0
C      1  0.5130300000000  0.4511670000000  0.5983430000000 1.0
C      1  0.4866790000000  0.4515210000000  0.4014540000000 1.0
C      1  0.5921510000000  0.4385970000000  0.5375260000000 1.0
C      1  0.4079880000000  0.4382220000000  0.4626570000000 1.0
C      1  0.5926950000000  0.5601670000000  0.4626680000000 1.0
C      1  0.4073910000000  0.5597790000000  0.5371920000000 1.0
C      1  0.5366230000000  0.4387040000000  0.5930760000000 1.0
C      1  0.4631190000000  0.4389850000000  0.4067120000000 1.0
C      1  0.4630770000000  0.5604030000000  0.5927070000000 1.0
C      1  0.5370190000000  0.5607360000000  0.4073920000000 1.0
C      1  0.4995190000000  0.5129130000000  0.4560900000000 1.0
C      1  0.5005150000000  0.5133830000000  0.5445640000000 1.0
C      1  0.4994920000000  0.4857660000000  0.5446150000000 1.0
C      1  0.5005250000000  0.4853450000000  0.4555180000000 1.0
C      1  0.4561250000000  0.5134610000000  0.4993700000000 1.0
C      1  0.5432240000000  0.5132450000000  0.5004420000000 1.0
C      1  0.5431760000000  0.4856970000000  0.4994020000000 1.0
C      1  0.4566930000000  0.4859010000000  0.5004520000000 1.0
C      1  0.4209830000000  0.5658740000000  0.5599440000000 1.0
C      1  0.5792330000000  0.5661690000000  0.4398610000000 1.0
C      1  0.4213720000000  0.4325980000000  0.4396840000000 1.0
C      1  0.5786450000000  0.4327800000000  0.5603760000000 1.0
C      1  0.5599700000000  0.5663880000000  0.4207600000000 1.0
C      1  0.4402140000000  0.5661160000000  0.5791320000000 1.0
C      1  0.4404150000000  0.4328590000000  0.4203360000000 1.0
C      1  0.5594410000000  0.4327710000000  0.5795640000000 1.0
C      1  0.5420000000000  0.5553320000000  0.4781310000000 1.0
C      1  0.4585060000000  0.5555590000000  0.5212960000000 1.0
C      1  0.5417680000000  0.4435790000000  0.5216090000000 1.0
C      1  0.4584660000000  0.4435950000000  0.4784910000000 1.0
C      1  0.4787060000000  0.5557000000000  0.5417050000000 1.0
C      1  0.5215150000000  0.5552130000000  0.4580810000000 1.0
C      1  0.5213260000000  0.4434940000000  0.5417390000000 1.0
C      1  0.4784910000000  0.4432410000000  0.4579480000000 1.0
C      1  0.4998000000000  0.5001480000000  0.3998700000000 1.0
C      1  0.4999660000000  0.4996800000000  0.6008050000000 1.0
C      1  0.5991920000000  0.4992830000000  0.5000160000000 1.0
C      1  0.4001420000000  0.4987230000000  0.5001870000000 1.0
C      1  0.5007840000000  0.4236720000000  0.4992110000000 1.0
C      1  0.5010410000000  0.5752470000000  0.5004250000000 1.0
END
