TITL C-3201373-1215-1640 0.00033858656865362 125000 -834.241265791706 0 0 144 (C1) n - 1
REM
REM in /home/nfs/bkarasulu/CARBON/AIRSS/Generating-Clusters/LCBOP/Higher-Symm/SD-CG/FIRE-CG
REM
REM
REM
REM
REM
REM ./C.cell (b20cbc046b6831c77cfcea5457e17084)
REM AIRSS Version 0.9.1 bugfix July 2018 build 013d7b7c2542+ Fri, 06 Jul 2018 19:26:36 +0100
REM compiler GCC version 9.2.1 20190827 (Red Hat 9.2.1-1)
REM options -cpp -mtune=generic -march=x86-64 -g -O0 -fpre-include=/usr/include/finclude/math-vector-fortran.h
REM seed -95232830 -1200302205 -938917784 1755657277 564217331 249178601 -1666691992 1750942503 922625182 1748620720 1315642747 1333171170 1537685974 -627077683 1018079659 -1323834033 2074205700 -1937408246 -1334758894 -1533103363 1623579850 -507017814 -1200057734 1308841434 1858408650 1774404612 1104380172 1837856818 9817565 1554810002 -120733497 -1465541189 1431729685
REM
CELL 1.54180   50.00000   50.00000   50.00000   90.00000   90.00000   90.00000
LATT -1
SFAC C  
C      1  0.4780990000000  0.4466050000000  0.4921280000000 1.0
C      1  0.4799350000000  0.5522970000000  0.5116860000000 1.0
C      1  0.4932150000000  0.4482900000000  0.5228870000000 1.0
C      1  0.5109550000000  0.5522460000000  0.5203560000000 1.0
C      1  0.5218040000000  0.4476190000000  0.5063660000000 1.0
C      1  0.5206190000000  0.5518540000000  0.4900090000000 1.0
C      1  0.5068170000000  0.4475090000000  0.4779140000000 1.0
C      1  0.4886070000000  0.5538080000000  0.4788550000000 1.0
C      1  0.5495200000000  0.5981640000000  0.5679270000000 1.0
C      1  0.5822910000000  0.4017540000000  0.5135380000000 1.0
C      1  0.5676460000000  0.5979220000000  0.4514680000000 1.0
C      1  0.5132190000000  0.4014030000000  0.4177040000000 1.0
C      1  0.4503070000000  0.5987610000000  0.4324420000000 1.0
C      1  0.4174510000000  0.4014500000000  0.4871520000000 1.0
C      1  0.4325880000000  0.5986920000000  0.5491620000000 1.0
C      1  0.4870350000000  0.4020580000000  0.5830710000000 1.0
C      1  0.4812130000000  0.4401450000000  0.5491160000000 1.0
C      1  0.5213950000000  0.5600490000000  0.5479040000000 1.0
C      1  0.5485880000000  0.4399070000000  0.5185340000000 1.0
C      1  0.5475410000000  0.5599640000000  0.4790550000000 1.0
C      1  0.5188070000000  0.4397780000000  0.4512030000000 1.0
C      1  0.4785100000000  0.5604410000000  0.4517330000000 1.0
C      1  0.4511970000000  0.4396320000000  0.4808420000000 1.0
C      1  0.4524420000000  0.5601960000000  0.5215350000000 1.0
C      1  0.4036680000000  0.5176880000000  0.5315510000000 1.0
C      1  0.4540090000000  0.4824220000000  0.5904240000000 1.0
C      1  0.5317530000000  0.5178890000000  0.5967000000000 1.0
C      1  0.5906780000000  0.4819040000000  0.5460260000000 1.0
C      1  0.5963450000000  0.5177710000000  0.4684550000000 1.0
C      1  0.5456040000000  0.4824680000000  0.4093830000000 1.0
C      1  0.4682560000000  0.5174180000000  0.4036710000000 1.0
C      1  0.4095100000000  0.4822750000000  0.4542250000000 1.0
C      1  0.6112240000000  0.4939810000000  0.4740470000000 1.0
C      1  0.5600440000000  0.5062720000000  0.4028250000000 1.0
C      1  0.4736670000000  0.4936500000000  0.3887350000000 1.0
C      1  0.4028270000000  0.5061170000000  0.4399730000000 1.0
C      1  0.3888700000000  0.4938520000000  0.5260940000000 1.0
C      1  0.4395350000000  0.5061200000000  0.5971500000000 1.0
C      1  0.5259800000000  0.4941220000000  0.6115510000000 1.0
C      1  0.5972070000000  0.5056980000000  0.5605310000000 1.0
C      1  0.5025240000000  0.4799050000000  0.6121160000000 1.0
C      1  0.5813370000000  0.5201810000000  0.5776030000000 1.0
C      1  0.6121480000000  0.4796000000000  0.4974010000000 1.0
C      1  0.5770910000000  0.5204910000000  0.4189490000000 1.0
C      1  0.4970920000000  0.4793990000000  0.3879160000000 1.0
C      1  0.4188670000000  0.5204610000000  0.4229800000000 1.0
C      1  0.3882180000000  0.4794210000000  0.5027860000000 1.0
C      1  0.4225200000000  0.5204660000000  0.5811330000000 1.0
C      1  0.4563030000000  0.5093050000000  0.5291890000000 1.0
C      1  0.4896260000000  0.4910510000000  0.5514700000000 1.0
C      1  0.5298860000000  0.5089740000000  0.5445210000000 1.0
C      1  0.5523510000000  0.4910670000000  0.5101180000000 1.0
C      1  0.5432480000000  0.5091110000000  0.4705880000000 1.0
C      1  0.5099300000000  0.4907010000000  0.4483300000000 1.0
C      1  0.4709390000000  0.5089970000000  0.4564880000000 1.0
C      1  0.4484130000000  0.4908490000000  0.4898120000000 1.0
C      1  0.5591790000000  0.5406690000000  0.5267650000000 1.0
C      1  0.5606480000000  0.4594720000000  0.4769830000000 1.0
C      1  0.5264440000000  0.5407340000000  0.4409340000000 1.0
C      1  0.4770280000000  0.4589640000000  0.4392390000000 1.0
C      1  0.4413390000000  0.5406600000000  0.4735630000000 1.0
C      1  0.4397100000000  0.4591970000000  0.5227160000000 1.0
C      1  0.4733490000000  0.5407270000000  0.5592010000000 1.0
C      1  0.5228690000000  0.4594440000000  0.5605570000000 1.0
C      1  0.5683000000000  0.5167820000000  0.5111760000000 1.0
C      1  0.5556810000000  0.4834670000000  0.4597370000000 1.0
C      1  0.5109660000000  0.5165630000000  0.4320350000000 1.0
C      1  0.4598520000000  0.4831160000000  0.4441500000000 1.0
C      1  0.4321510000000  0.5166330000000  0.4888830000000 1.0
C      1  0.4440870000000  0.4833520000000  0.5400280000000 1.0
C      1  0.4889140000000  0.5167630000000  0.5680720000000 1.0
C      1  0.5404810000000  0.4832350000000  0.5563190000000 1.0
C      1  0.5608160000000  0.4158130000000  0.5047040000000 1.0
C      1  0.5461990000000  0.5839200000000  0.4605240000000 1.0
C      1  0.5048300000000  0.4155110000000  0.4393190000000 1.0
C      1  0.4600790000000  0.5846090000000  0.4534140000000 1.0
C      1  0.4391990000000  0.4155630000000  0.4951010000000 1.0
C      1  0.4536740000000  0.5845310000000  0.5397020000000 1.0
C      1  0.4949760000000  0.4159280000000  0.5611780000000 1.0
C      1  0.5397580000000  0.5842990000000  0.5467870000000 1.0
C      1  0.5538010000000  0.5279670000000  0.5796660000000 1.0
C      1  0.5940730000000  0.4719560000000  0.5183290000000 1.0
C      1  0.5790320000000  0.5276850000000  0.4466350000000 1.0
C      1  0.5180870000000  0.4722000000000  0.4060530000000 1.0
C      1  0.4465410000000  0.5275980000000  0.4209380000000 1.0
C      1  0.4062970000000  0.4721120000000  0.4817840000000 1.0
C      1  0.4207200000000  0.5277900000000  0.5534930000000 1.0
C      1  0.4816630000000  0.4725410000000  0.5938870000000 1.0
C      1  0.4478480000000  0.5364180000000  0.5425040000000 1.0
C      1  0.4930500000000  0.4638900000000  0.5669430000000 1.0
C      1  0.5426750000000  0.5362550000000  0.5524500000000 1.0
C      1  0.5669540000000  0.4637550000000  0.5068980000000 1.0
C      1  0.5519170000000  0.5362320000000  0.4577930000000 1.0
C      1  0.5068830000000  0.4635140000000  0.4330980000000 1.0
C      1  0.4578670000000  0.5362880000000  0.4479480000000 1.0
C      1  0.4334500000000  0.4635890000000  0.4928790000000 1.0
C      1  0.4094890000000  0.5584080000000  0.5022860000000 1.0
C      1  0.4372460000000  0.4416810000000  0.5656450000000 1.0
C      1  0.5023050000000  0.5585310000000  0.5908990000000 1.0
C      1  0.5655760000000  0.4411440000000  0.5624280000000 1.0
C      1  0.5907410000000  0.5586730000000  0.4977120000000 1.0
C      1  0.5626890000000  0.4419180000000  0.4340270000000 1.0
C      1  0.4977030000000  0.5580060000000  0.4087620000000 1.0
C      1  0.4339400000000  0.4416260000000  0.4370900000000 1.0
C      1  0.5057660000000  0.6026390000000  0.4750380000000 1.0
C      1  0.4881210000000  0.3981580000000  0.4801460000000 1.0
C      1  0.4776650000000  0.6016870000000  0.4943030000000 1.0
C      1  0.4808280000000  0.3988240000000  0.5109640000000 1.0
C      1  0.4942930000000  0.6011990000000  0.5213210000000 1.0
C      1  0.5099570000000  0.3985850000000  0.5199420000000 1.0
C      1  0.5212920000000  0.6015400000000  0.5069870000000 1.0
C      1  0.5217200000000  0.3973610000000  0.4863560000000 1.0
C      1  0.4809600000000  0.4106550000000  0.4550750000000 1.0
C      1  0.4549190000000  0.5891300000000  0.4817090000000 1.0
C      1  0.4554470000000  0.4110930000000  0.5187240000000 1.0
C      1  0.4818480000000  0.5890520000000  0.5448790000000 1.0
C      1  0.5182530000000  0.4110610000000  0.5445600000000 1.0
C      1  0.5446120000000  0.5891070000000  0.5185830000000 1.0
C      1  0.5457140000000  0.4109070000000  0.4805850000000 1.0
C      1  0.5185520000000  0.5889930000000  0.4540380000000 1.0
C      1  0.4887790000000  0.5195980000000  0.4797840000000 1.0
C      1  0.4768950000000  0.4806460000000  0.4940940000000 1.0
C      1  0.4791180000000  0.5201270000000  0.5113390000000 1.0
C      1  0.4924120000000  0.4801770000000  0.5224980000000 1.0
C      1  0.5118220000000  0.5187370000000  0.5228810000000 1.0
C      1  0.5243450000000  0.4813390000000  0.5064350000000 1.0
C      1  0.5199490000000  0.5196600000000  0.4874560000000 1.0
C      1  0.5061000000000  0.4800070000000  0.4769710000000 1.0
C      1  0.5894530000000  0.5295600000000  0.4937130000000 1.0
C      1  0.5585510000000  0.4709570000000  0.4323010000000 1.0
C      1  0.4936330000000  0.5289740000000  0.4105540000000 1.0
C      1  0.4323550000000  0.4706960000000  0.4412310000000 1.0
C      1  0.4107940000000  0.5292940000000  0.5062610000000 1.0
C      1  0.4412040000000  0.4707860000000  0.5674700000000 1.0
C      1  0.5064130000000  0.5294210000000  0.5894120000000 1.0
C      1  0.5677370000000  0.4702650000000  0.5588610000000 1.0
C      1  0.5488490000000  0.4343790000000  0.4603110000000 1.0
C      1  0.5062010000000  0.5657560000000  0.4371540000000 1.0
C      1  0.4601110000000  0.4338520000000  0.4510000000000 1.0
C      1  0.4380460000000  0.5657100000000  0.4937660000000 1.0
C      1  0.4516030000000  0.4342450000000  0.5395690000000 1.0
C      1  0.4936890000000  0.5658150000000  0.5623560000000 1.0
C      1  0.5392080000000  0.4341850000000  0.5483060000000 1.0
C      1  0.5622380000000  0.5659280000000  0.5065010000000 1.0
END
