TITL C-3201373-1215-1107 -6.49044466325437e-07 125000 -369.514777377225 0 0 60 (C1) n - 1
REM
REM in /home/nfs/bkarasulu/CARBON/AIRSS/Generating-Clusters/LCBOP/Higher-Symm/SD-CG/FIRE-CG
REM
REM
REM
REM
REM
REM ./C.cell (b20cbc046b6831c77cfcea5457e17084)
REM AIRSS Version 0.9.1 bugfix July 2018 build 013d7b7c2542+ Fri, 06 Jul 2018 19:26:36 +0100
REM compiler GCC version 9.2.1 20190827 (Red Hat 9.2.1-1)
REM options -cpp -mtune=generic -march=x86-64 -g -O0 -fpre-include=/usr/include/finclude/math-vector-fortran.h
REM seed 2035322481 957109249 1173770946 1785674896 469362497 368790036 -484243183 1278104517 -1491490165 -1081081566 1804813075 -377349097 -1556810134 -1342978690 1553492940 -450714502 92611110 274199304 -1949966477 1602062832 9993239 766427673 1206514973 -1504401448 1524011297 1745654113 1749996466 715897987 817552066 2067608698 50497088 -1655591127 -1518362395
REM
CELL 1.54180   50.00000   50.00000   50.00000   90.00000   90.00000   90.00000
LATT -1
SFAC C  
C      1  0.5212360000000  0.5056970000000  0.4663540000000 1.0
C      1  0.5163750000000  0.5113220000000  0.4921650000000 1.0
C      1  0.5196380000000  0.5006010000000  0.4383390000000 1.0
C      1  0.5162390000000  0.5216390000000  0.4197510000000 1.0
C      1  0.4295540000000  0.5023680000000  0.5405210000000 1.0
C      1  0.4227500000000  0.4743280000000  0.5357130000000 1.0
C      1  0.4621520000000  0.5158880000000  0.4541520000000 1.0
C      1  0.4623120000000  0.4854440000000  0.4517920000000 1.0
C      1  0.4361130000000  0.4362630000000  0.5066350000000 1.0
C      1  0.4655100000000  0.5322490000000  0.5231750000000 1.0
C      1  0.5592220000000  0.5812190000000  0.4783700000000 1.0
C      1  0.5514070000000  0.4437460000000  0.5013540000000 1.0
C      1  0.4366190000000  0.5229020000000  0.4676310000000 1.0
C      1  0.4356140000000  0.4755550000000  0.4601360000000 1.0
C      1  0.5872890000000  0.5153600000000  0.5533870000000 1.0
C      1  0.5807830000000  0.4894090000000  0.5537560000000 1.0
C      1  0.4044910000000  0.4721010000000  0.5813780000000 1.0
C      1  0.4107620000000  0.4982440000000  0.5857820000000 1.0
C      1  0.4723490000000  0.4266020000000  0.4730430000000 1.0
C      1  0.4774840000000  0.5651720000000  0.4862140000000 1.0
C      1  0.4909910000000  0.4434470000000  0.4609950000000 1.0
C      1  0.4916040000000  0.5556050000000  0.4640530000000 1.0
C      1  0.5748940000000  0.5143100000000  0.4861090000000 1.0
C      1  0.5686010000000  0.4865290000000  0.4879060000000 1.0
C      1  0.5641690000000  0.5901700000000  0.5031890000000 1.0
C      1  0.5442410000000  0.4240430000000  0.5199970000000 1.0
C      1  0.5629500000000  0.5778860000000  0.5270650000000 1.0
C      1  0.5411170000000  0.4299840000000  0.5462210000000 1.0
C      1  0.5251720000000  0.4696100000000  0.5703360000000 1.0
C      1  0.5341620000000  0.5386470000000  0.5293080000000 1.0
C      1  0.4894270000000  0.5200910000000  0.5326310000000 1.0
C      1  0.4907870000000  0.5045180000000  0.5558380000000 1.0
C      1  0.4227560000000  0.5126920000000  0.5660740000000 1.0
C      1  0.4102820000000  0.4607410000000  0.5573250000000 1.0
C      1  0.5187300000000  0.4389170000000  0.4645510000000 1.0
C      1  0.5196050000000  0.5595750000000  0.4621370000000 1.0
C      1  0.5046780000000  0.4866090000000  0.5698110000000 1.0
C      1  0.5136360000000  0.5233150000000  0.5176110000000 1.0
C      1  0.4929860000000  0.5356060000000  0.4208250000000 1.0
C      1  0.5053270000000  0.4774290000000  0.4315020000000 1.0
C      1  0.5902810000000  0.5255170000000  0.5069850000000 1.0
C      1  0.5638370000000  0.4687620000000  0.5114800000000 1.0
C      1  0.4420080000000  0.5168270000000  0.5195910000000 1.0
C      1  0.4286240000000  0.4629370000000  0.5104560000000 1.0
C      1  0.4793180000000  0.5371840000000  0.4456500000000 1.0
C      1  0.4839470000000  0.4673370000000  0.4468390000000 1.0
C      1  0.4677270000000  0.5567580000000  0.5096120000000 1.0
C      1  0.4531140000000  0.4228150000000  0.4910510000000 1.0
C      1  0.5436640000000  0.4471780000000  0.4738590000000 1.0
C      1  0.5472710000000  0.5580090000000  0.4675950000000 1.0
C      1  0.5446950000000  0.4565600000000  0.5552390000000 1.0
C      1  0.5593060000000  0.5507220000000  0.5333900000000 1.0
C      1  0.4347930000000  0.5092720000000  0.4933280000000 1.0
C      1  0.4318140000000  0.4805260000000  0.4886100000000 1.0
C      1  0.4143770000000  0.5158880000000  0.4502170000000 1.0
C      1  0.4144590000000  0.4885920000000  0.4450190000000 1.0
C      1  0.5589020000000  0.4704080000000  0.4655340000000 1.0
C      1  0.5618230000000  0.5335540000000  0.4695580000000 1.0
C      1  0.5820350000000  0.5335510000000  0.5327830000000 1.0
C      1  0.5639930000000  0.4717700000000  0.5400710000000 1.0
END
