TITL C-3201378-2706-501 -118.622145248359 125000 -811.182684030607 0 0 137 (C1) n - 1
REM
REM in /home/nfs/bkarasulu/CARBON/AIRSS/Generating-Clusters/LCBOP/Higher-Symm/SD-CG/FIRE-CG
REM
REM
REM
REM
REM
REM ./C.cell (b20cbc046b6831c77cfcea5457e17084)
REM AIRSS Version 0.9.1 bugfix July 2018 build 013d7b7c2542+ Fri, 06 Jul 2018 19:26:36 +0100
REM compiler GCC version 9.2.1 20190827 (Red Hat 9.2.1-1)
REM options -cpp -mtune=generic -march=x86-64 -g -O0 -fpre-include=/usr/include/finclude/math-vector-fortran.h
REM seed 794172121 545226929 -1232237806 -1553150486 1185950027 -956947782 263831194 1382398431 -1499163060 1050999457 778042629 146557745 1103462130 -1022652308 -1798259139 896313244 1429602472 -1371536535 -292203105 1416092380 1001266601 1364053697 -1807502392 -364551139 1358193451 71165193 -978735417 651730992 1516569297 1820010703 -608689338 1984821524 -345588567
REM
CELL 1.54180   50.00000   50.00000   50.00000   90.00000   90.00000   90.00000
LATT -1
SFAC C  
C      1  0.5247220000000  0.4222200000000  0.4935060000000 1.0
C      1  0.4831210000000  0.4239230000000  0.5194180000000 1.0
C      1  0.4933010000000  0.4247630000000  0.4878490000000 1.0
C      1  0.4627820000000  0.4729200000000  0.5197110000000 1.0
C      1  0.5055890000000  0.4757870000000  0.4625020000000 1.0
C      1  0.5299580000000  0.4701550000000  0.5208410000000 1.0
C      1  0.5477580000000  0.4922740000000  0.5307250000000 1.0
C      1  0.4469960000000  0.4961580000000  0.5282900000000 1.0
C      1  0.5031090000000  0.4966070000000  0.4420140000000 1.0
C      1  0.4848880000000  0.5682620000000  0.4116750000000 1.0
C      1  0.5857500000000  0.5713110000000  0.5326500000000 1.0
C      1  0.4321780000000  0.5680320000000  0.5578710000000 1.0
C      1  0.4399540000000  0.4596420000000  0.4806190000000 1.0
C      1  0.5531640000000  0.4556510000000  0.4623620000000 1.0
C      1  0.5081510000000  0.4575280000000  0.5594560000000 1.0
C      1  0.5843380000000  0.4464060000000  0.4305390000000 1.0
C      1  0.5143780000000  0.4474400000000  0.6041360000000 1.0
C      1  0.4013950000000  0.4462610000000  0.4614690000000 1.0
C      1  0.4184860000000  0.4357350000000  0.5483520000000 1.0
C      1  0.4994360000000  0.4317980000000  0.4152520000000 1.0
C      1  0.5800370000000  0.4333970000000  0.5509160000000 1.0
C      1  0.4819410000000  0.5925120000000  0.4269160000000 1.0
C      1  0.5735160000000  0.5947000000000  0.5212670000000 1.0
C      1  0.4464660000000  0.5925600000000  0.5530290000000 1.0
C      1  0.5922890000000  0.5698540000000  0.5591140000000 1.0
C      1  0.4056570000000  0.5654470000000  0.5518800000000 1.0
C      1  0.5028980000000  0.5663050000000  0.3912320000000 1.0
C      1  0.5558510000000  0.4904910000000  0.4183440000000 1.0
C      1  0.5408150000000  0.4919310000000  0.5884720000000 1.0
C      1  0.4008360000000  0.4922140000000  0.4921060000000 1.0
C      1  0.4617520000000  0.4427110000000  0.5283730000000 1.0
C      1  0.4954250000000  0.4451990000000  0.4621170000000 1.0
C      1  0.5376090000000  0.4432230000000  0.5102400000000 1.0
C      1  0.5780550000000  0.4744230000000  0.4322040000000 1.0
C      1  0.5169610000000  0.4762260000000  0.6002310000000 1.0
C      1  0.4025610000000  0.4754540000000  0.4652280000000 1.0
C      1  0.5797880000000  0.4223100000000  0.4428970000000 1.0
C      1  0.5051320000000  0.4242960000000  0.5924170000000 1.0
C      1  0.4171830000000  0.4235240000000  0.4610660000000 1.0
C      1  0.4764650000000  0.3785850000000  0.4679450000000 1.0
C      1  0.5375170000000  0.3755950000000  0.4839420000000 1.0
C      1  0.4985370000000  0.3788210000000  0.5343980000000 1.0
C      1  0.4836590000000  0.5222170000000  0.5463900000000 1.0
C      1  0.4683560000000  0.5220110000000  0.4617540000000 1.0
C      1  0.5553300000000  0.5252520000000  0.4892830000000 1.0
C      1  0.4904960000000  0.4913630000000  0.6013450000000 1.0
C      1  0.4158810000000  0.4899730000000  0.4416970000000 1.0
C      1  0.5936530000000  0.4899990000000  0.4603670000000 1.0
C      1  0.4055250000000  0.5162240000000  0.4385980000000 1.0
C      1  0.5995650000000  0.5154520000000  0.4504050000000 1.0
C      1  0.4939800000000  0.5176400000000  0.6115050000000 1.0
C      1  0.4408960000000  0.4112450000000  0.4677320000000 1.0
C      1  0.5644430000000  0.4086410000000  0.4609820000000 1.0
C      1  0.4972790000000  0.4117140000000  0.5693240000000 1.0
C      1  0.5285480000000  0.4834950000000  0.4069900000000 1.0
C      1  0.5649680000000  0.4849390000000  0.5723270000000 1.0
C      1  0.4030700000000  0.4864790000000  0.5221850000000 1.0
C      1  0.4918870000000  0.5392460000000  0.4621360000000 1.0
C      1  0.5400210000000  0.5389900000000  0.5099330000000 1.0
C      1  0.4715690000000  0.5399330000000  0.5262480000000 1.0
C      1  0.4750400000000  0.4464770000000  0.4172450000000 1.0
C      1  0.5854500000000  0.4462450000000  0.5265910000000 1.0
C      1  0.4341810000000  0.4495440000000  0.5680560000000 1.0
C      1  0.5726930000000  0.4872230000000  0.5435360000000 1.0
C      1  0.4238900000000  0.4901270000000  0.5441040000000 1.0
C      1  0.4996400000000  0.4875500000000  0.4151450000000 1.0
C      1  0.5290580000000  0.5621380000000  0.4968300000000 1.0
C      1  0.4898550000000  0.5622090000000  0.5256420000000 1.0
C      1  0.4846630000000  0.5618540000000  0.4780260000000 1.0
C      1  0.5389320000000  0.5868810000000  0.4795570000000 1.0
C      1  0.4995300000000  0.5865900000000  0.5432970000000 1.0
C      1  0.4641390000000  0.5859750000000  0.4778040000000 1.0
C      1  0.5141770000000  0.4338050000000  0.4397280000000 1.0
C      1  0.5559070000000  0.4330750000000  0.5629030000000 1.0
C      1  0.4325410000000  0.4347950000000  0.5233870000000 1.0
C      1  0.5351220000000  0.5207310000000  0.5862620000000 1.0
C      1  0.4052830000000  0.5210840000000  0.4868730000000 1.0
C      1  0.5588620000000  0.5194910000000  0.4227210000000 1.0
C      1  0.5051200000000  0.5095980000000  0.5319550000000 1.0
C      1  0.4660450000000  0.5081420000000  0.4867090000000 1.0
C      1  0.5350370000000  0.5129040000000  0.4734400000000 1.0
C      1  0.4990870000000  0.6013980000000  0.4489000000000 1.0
C      1  0.5456120000000  0.6024760000000  0.5245580000000 1.0
C      1  0.4569810000000  0.6014130000000  0.5272150000000 1.0
C      1  0.5681230000000  0.5906330000000  0.4749220000000 1.0
C      1  0.4893680000000  0.5899120000000  0.5711430000000 1.0
C      1  0.4449540000000  0.5892180000000  0.4551640000000 1.0
C      1  0.4669730000000  0.5467760000000  0.4180690000000 1.0
C      1  0.5911750000000  0.5498260000000  0.5145610000000 1.0
C      1  0.4469640000000  0.5467570000000  0.5701800000000 1.0
C      1  0.5248510000000  0.5908360000000  0.4534600000000 1.0
C      1  0.5290580000000  0.5910740000000  0.5443010000000 1.0
C      1  0.4483410000000  0.5901810000000  0.5028470000000 1.0
C      1  0.5163920000000  0.5241060000000  0.4511500000000 1.0
C      1  0.5338020000000  0.5201860000000  0.5335540000000 1.0
C      1  0.4517670000000  0.5220320000000  0.5108630000000 1.0
C      1  0.4259260000000  0.4462190000000  0.4991160000000 1.0
C      1  0.5393990000000  0.4438020000000  0.4429640000000 1.0
C      1  0.5318560000000  0.4446580000000  0.5602910000000 1.0
C      1  0.4791780000000  0.4849010000000  0.5001500000000 1.0
C      1  0.5200340000000  0.4900780000000  0.4824430000000 1.0
C      1  0.5075410000000  0.4872180000000  0.5090180000000 1.0
C      1  0.5297670000000  0.6089730000000  0.5001470000000 1.0
C      1  0.4858980000000  0.6088060000000  0.5255110000000 1.0
C      1  0.4859910000000  0.6085090000000  0.4748330000000 1.0
C      1  0.4501920000000  0.4628690000000  0.4551450000000 1.0
C      1  0.5719700000000  0.4564130000000  0.4826120000000 1.0
C      1  0.4815190000000  0.4614550000000  0.5676910000000 1.0
C      1  0.4723840000000  0.4750450000000  0.4125640000000 1.0
C      1  0.5911980000000  0.4751940000000  0.5236270000000 1.0
C      1  0.4348340000000  0.4785840000000  0.5699690000000 1.0
C      1  0.3991150000000  0.5304490000000  0.4608490000000 1.0
C      1  0.5842120000000  0.5281520000000  0.4319960000000 1.0
C      1  0.5164020000000  0.5313930000000  0.6046190000000 1.0
C      1  0.5834410000000  0.6002140000000  0.4951810000000 1.0
C      1  0.4639450000000  0.5987750000000  0.5745980000000 1.0
C      1  0.4544900000000  0.5984700000000  0.4314950000000 1.0
C      1  0.4569640000000  0.5293210000000  0.4364740000000 1.0
C      1  0.5820320000000  0.5329300000000  0.4953550000000 1.0
C      1  0.4679810000000  0.5294220000000  0.5691670000000 1.0
C      1  0.4697240000000  0.4453220000000  0.4463850000000 1.0
C      1  0.5660640000000  0.4420190000000  0.5059600000000 1.0
C      1  0.4616640000000  0.4441700000000  0.5583920000000 1.0
C      1  0.4940970000000  0.3592000000000  0.4731720000000 1.0
C      1  0.5155120000000  0.3599170000000  0.4913650000000 1.0
C      1  0.5086360000000  0.3599200000000  0.5185580000000 1.0
C      1  0.5390810000000  0.5316720000000  0.5604910000000 1.0
C      1  0.4257180000000  0.5333070000000  0.5021900000000 1.0
C      1  0.5352530000000  0.5336060000000  0.4300940000000 1.0
C      1  0.5895980000000  0.4780500000000  0.4869300000000 1.0
C      1  0.4694530000000  0.4821370000000  0.5830720000000 1.0
C      1  0.4429380000000  0.4808560000000  0.4342900000000 1.0
C      1  0.4681100000000  0.4043300000000  0.4744690000000 1.0
C      1  0.5426660000000  0.4029660000000  0.4792420000000 1.0
C      1  0.4931170000000  0.4056380000000  0.5411220000000 1.0
C      1  0.5014660000000  0.5634340000000  0.5003060000000 1.0
C      1  0.5005050000000  0.6142850000000  0.5001210000000 1.0
END
