TITL C-3201376-6384-1432 0.0406491606093658 125000 -497.847341949864 0 0 85 (C1) n - 1
REM
REM in /home/nfs/bkarasulu/CARBON/AIRSS/Generating-Clusters/LCBOP/Higher-Symm/SD-CG/FIRE-CG
REM
REM
REM
REM
REM
REM ./C.cell (b20cbc046b6831c77cfcea5457e17084)
REM AIRSS Version 0.9.1 bugfix July 2018 build 013d7b7c2542+ Fri, 06 Jul 2018 19:26:36 +0100
REM compiler GCC version 9.2.1 20190827 (Red Hat 9.2.1-1)
REM options -cpp -mtune=generic -march=x86-64 -g -O0 -fpre-include=/usr/include/finclude/math-vector-fortran.h
REM seed 548520503 -1854946024 296382595 -452198066 1978348394 337581843 -1409117345 267689538 -268232497 115390677 1842902502 1342568919 382216953 1027732027 -950029656 -1028575108 1292351967 -1170468286 -1947218926 -768404844 1257854634 -1387506980 -122723807 -227164622 -597840651 1103140411 406729353 -215899115 921328101 1713195432 -1351230804 -1810838929 269491314
REM
CELL 1.54180   50.00000   50.00000   50.00000   90.00000   90.00000   90.00000
LATT -1
SFAC C  
C      1  0.4839630000000  0.4194010000000  0.5031790000000 1.0
C      1  0.4032190000000  0.5232900000000  0.6008490000000 1.0
C      1  0.5052690000000  0.4528250000000  0.5417010000000 1.0
C      1  0.5432460000000  0.5289390000000  0.4787640000000 1.0
C      1  0.5015660000000  0.4035090000000  0.5159590000000 1.0
C      1  0.5240400000000  0.5368750000000  0.4098310000000 1.0
C      1  0.5541200000000  0.4302780000000  0.5119550000000 1.0
C      1  0.4905220000000  0.5053490000000  0.4370990000000 1.0
C      1  0.5601490000000  0.4860090000000  0.6065430000000 1.0
C      1  0.4985990000000  0.5464940000000  0.4029610000000 1.0
C      1  0.5036590000000  0.5161390000000  0.4574210000000 1.0
C      1  0.5340160000000  0.4757570000000  0.4375660000000 1.0
C      1  0.5357140000000  0.4818740000000  0.4656590000000 1.0
C      1  0.5499110000000  0.4613550000000  0.6057450000000 1.0
C      1  0.5375680000000  0.4241430000000  0.5763640000000 1.0
C      1  0.4548310000000  0.4749150000000  0.5324030000000 1.0
C      1  0.4714490000000  0.5566270000000  0.4624200000000 1.0
C      1  0.4835500000000  0.4657850000000  0.5962880000000 1.0
C      1  0.5233070000000  0.3989550000000  0.5336140000000 1.0
C      1  0.4937180000000  0.5055140000000  0.5710030000000 1.0
C      1  0.5213410000000  0.4042820000000  0.5624190000000 1.0
C      1  0.4672650000000  0.4412230000000  0.4964630000000 1.0
C      1  0.4854280000000  0.6375510000000  0.4099710000000 1.0
C      1  0.5180900000000  0.5125120000000  0.5588000000000 1.0
C      1  0.4907210000000  0.5971160000000  0.4437900000000 1.0
C      1  0.5213510000000  0.5725890000000  0.4995800000000 1.0
C      1  0.4124470000000  0.4645610000000  0.4818550000000 1.0
C      1  0.4530620000000  0.5252850000000  0.4144690000000 1.0
C      1  0.4810850000000  0.5087010000000  0.5091280000000 1.0
C      1  0.4152350000000  0.5294920000000  0.5196900000000 1.0
C      1  0.4670700000000  0.4222530000000  0.5615540000000 1.0
C      1  0.4166470000000  0.4882560000000  0.4671280000000 1.0
C      1  0.5239190000000  0.5062830000000  0.4784320000000 1.0
C      1  0.5603840000000  0.4300280000000  0.5593500000000 1.0
C      1  0.4484340000000  0.4534980000000  0.5147050000000 1.0
C      1  0.5037400000000  0.4492520000000  0.6023750000000 1.0
C      1  0.5306400000000  0.4649180000000  0.5393670000000 1.0
C      1  0.5324070000000  0.5362390000000  0.5650970000000 1.0
C      1  0.5461770000000  0.4953700000000  0.4202600000000 1.0
C      1  0.5614130000000  0.5179200000000  0.4316840000000 1.0
C      1  0.5318970000000  0.4921480000000  0.5450930000000 1.0
C      1  0.5523040000000  0.5321370000000  0.5847380000000 1.0
C      1  0.5842200000000  0.4515570000000  0.4811040000000 1.0
C      1  0.4407060000000  0.4926590000000  0.4518240000000 1.0
C      1  0.4521050000000  0.4827800000000  0.5610240000000 1.0
C      1  0.5374580000000  0.5501340000000  0.4599370000000 1.0
C      1  0.5614880000000  0.5117820000000  0.5996010000000 1.0
C      1  0.4467020000000  0.5436990000000  0.4577360000000 1.0
C      1  0.4005010000000  0.5255870000000  0.4977050000000 1.0
C      1  0.5063220000000  0.5040020000000  0.5017950000000 1.0
C      1  0.5504570000000  0.4032660000000  0.5238360000000 1.0
C      1  0.4853400000000  0.4381690000000  0.5516900000000 1.0
C      1  0.5697840000000  0.4051140000000  0.5462500000000 1.0
C      1  0.5394430000000  0.4057210000000  0.4470370000000 1.0
C      1  0.5184770000000  0.6036160000000  0.5858410000000 1.0
C      1  0.4934970000000  0.5740180000000  0.4592490000000 1.0
C      1  0.4011560000000  0.5101970000000  0.4757560000000 1.0
C      1  0.4338440000000  0.5058380000000  0.5603360000000 1.0
C      1  0.4751540000000  0.4850980000000  0.5776800000000 1.0
C      1  0.4220200000000  0.4531670000000  0.5042760000000 1.0
C      1  0.4846690000000  0.4779900000000  0.4348690000000 1.0
C      1  0.5510000000000  0.4209440000000  0.4647550000000 1.0
C      1  0.5426900000000  0.5415440000000  0.4328270000000 1.0
C      1  0.5300670000000  0.5095950000000  0.4008070000000 1.0
C      1  0.4801700000000  0.6771680000000  0.3758080000000 1.0
C      1  0.4358610000000  0.5170380000000  0.5336240000000 1.0
C      1  0.5305930000000  0.4428020000000  0.5966900000000 1.0
C      1  0.4180070000000  0.5147770000000  0.5811540000000 1.0
C      1  0.4454150000000  0.5198360000000  0.4413740000000 1.0
C      1  0.5223950000000  0.5834070000000  0.5698580000000 1.0
C      1  0.6130340000000  0.5170040000000  0.4466020000000 1.0
C      1  0.4238480000000  0.5579620000000  0.4629610000000 1.0
C      1  0.4565360000000  0.5017050000000  0.5199100000000 1.0
C      1  0.4652670000000  0.4514460000000  0.4700070000000 1.0
C      1  0.4880820000000  0.6175400000000  0.4271370000000 1.0
C      1  0.5267370000000  0.5614210000000  0.5530210000000 1.0
C      1  0.5882250000000  0.5178160000000  0.4386720000000 1.0
C      1  0.5248630000000  0.5655120000000  0.5251620000000 1.0
C      1  0.5088670000000  0.4635300000000  0.4301240000000 1.0
C      1  0.5528100000000  0.4474980000000  0.5359330000000 1.0
C      1  0.5185890000000  0.5684050000000  0.4715720000000 1.0
C      1  0.5630650000000  0.4348580000000  0.4858270000000 1.0
C      1  0.4615250000000  0.4716060000000  0.4504400000000 1.0
C      1  0.4827770000000  0.6575240000000  0.3927480000000 1.0
C      1  0.4727610000000  0.5390200000000  0.4021730000000 1.0
END
