TITL C-3201372-1405-2309 -0.0171391057836178 125000 -426.160399351663 0 0 68 (C1) n - 1
REM
REM in /home/nfs/bkarasulu/CARBON/AIRSS/Generating-Clusters/LCBOP/Higher-Symm/SD-CG/FIRE-CG
REM
REM
REM
REM
REM
REM ./C.cell (b20cbc046b6831c77cfcea5457e17084)
REM AIRSS Version 0.9.1 bugfix July 2018 build 013d7b7c2542+ Fri, 06 Jul 2018 19:26:36 +0100
REM compiler GCC version 9.2.1 20190827 (Red Hat 9.2.1-1)
REM options -cpp -mtune=generic -march=x86-64 -g -O0 -fpre-include=/usr/include/finclude/math-vector-fortran.h
REM seed 1794053231 -1225300983 1822988604 -1393623009 1386467156 1710925319 -1799276903 -2112325729 -1836235666 -688910282 -193956861 1455408131 2053490186 707807112 438017965 -2069354988 -1770650459 1791837916 -69903520 1036760264 -188188120 -1857945602 1800154020 -177847818 268571773 807595778 -1929998012 -1771896168 513120167 -730862350 -1135141490 -208740880 239742218
REM
CELL 1.54180   50.00000   50.00000   50.00000   90.00000   90.00000   90.00000
LATT -1
SFAC C  
C      1  0.5208830000000  0.4721040000000  0.4321290000000 1.0
C      1  0.4490250000000  0.4743690000000  0.4611650000000 1.0
C      1  0.4586220000000  0.4716560000000  0.5376440000000 1.0
C      1  0.5334510000000  0.4695940000000  0.5562300000000 1.0
C      1  0.5715300000000  0.4700680000000  0.4898730000000 1.0
C      1  0.5211760000000  0.5292630000000  0.5603800000000 1.0
C      1  0.4493380000000  0.5303790000000  0.5289980000000 1.0
C      1  0.4585130000000  0.5330730000000  0.4516280000000 1.0
C      1  0.5338420000000  0.5319350000000  0.4365840000000 1.0
C      1  0.5724900000000  0.5301500000000  0.5028070000000 1.0
C      1  0.4848510000000  0.3660520000000  0.5286660000000 1.0
C      1  0.4615590000000  0.3515520000000  0.5231900000000 1.0
C      1  0.4422050000000  0.3691200000000  0.5135440000000 1.0
C      1  0.4530900000000  0.3948850000000  0.5128370000000 1.0
C      1  0.4808850000000  0.3944940000000  0.5224150000000 1.0
C      1  0.4616440000000  0.6504050000000  0.5224850000000 1.0
C      1  0.4632290000000  0.6364990000000  0.5465760000000 1.0
C      1  0.4690360000000  0.6096930000000  0.5410480000000 1.0
C      1  0.4714280000000  0.6055340000000  0.5120430000000 1.0
C      1  0.4664350000000  0.6325140000000  0.5015140000000 1.0
C      1  0.4424080000000  0.5287440000000  0.5003530000000 1.0
C      1  0.4925860000000  0.5237870000000  0.5576940000000 1.0
C      1  0.5609960000000  0.5249260000000  0.5289800000000 1.0
C      1  0.5545710000000  0.5266990000000  0.4560370000000 1.0
C      1  0.4838100000000  0.5287600000000  0.4382670000000 1.0
C      1  0.4411870000000  0.4796790000000  0.4890700000000 1.0
C      1  0.4923150000000  0.4779210000000  0.4335420000000 1.0
C      1  0.5597800000000  0.4754440000000  0.4640460000000 1.0
C      1  0.5541780000000  0.4742020000000  0.5366690000000 1.0
C      1  0.4836470000000  0.4728620000000  0.5523400000000 1.0
C      1  0.5351230000000  0.4632940000000  0.4560630000000 1.0
C      1  0.4769040000000  0.4675450000000  0.4553390000000 1.0
C      1  0.4606150000000  0.4737850000000  0.5094320000000 1.0
C      1  0.5084690000000  0.4588670000000  0.5464950000000 1.0
C      1  0.5542180000000  0.4611440000000  0.5110860000000 1.0
C      1  0.5364000000000  0.5371700000000  0.5370850000000 1.0
C      1  0.4771400000000  0.5345790000000  0.5358480000000 1.0
C      1  0.4584660000000  0.5408410000000  0.4792280000000 1.0
C      1  0.5083380000000  0.5415090000000  0.4460900000000 1.0
C      1  0.5554340000000  0.5398630000000  0.4814610000000 1.0
C      1  0.4349120000000  0.4905890000000  0.4424940000000 1.0
C      1  0.4371660000000  0.4866070000000  0.5491420000000 1.0
C      1  0.5354180000000  0.4859460000000  0.5793250000000 1.0
C      1  0.5943290000000  0.4862080000000  0.4953150000000 1.0
C      1  0.5342180000000  0.4883390000000  0.4128670000000 1.0
C      1  0.4341410000000  0.5134950000000  0.5462240000000 1.0
C      1  0.4371260000000  0.5176290000000  0.4410170000000 1.0
C      1  0.5359040000000  0.5154790000000  0.4134630000000 1.0
C      1  0.5947380000000  0.5133420000000  0.4970160000000 1.0
C      1  0.5336130000000  0.5130370000000  0.5802040000000 1.0
C      1  0.5314920000000  0.5532440000000  0.4889330000000 1.0
C      1  0.5083980000000  0.5552660000000  0.4710030000000 1.0
C      1  0.4831940000000  0.5550760000000  0.4887760000000 1.0
C      1  0.4940230000000  0.5361110000000  0.5113720000000 1.0
C      1  0.5217040000000  0.5473340000000  0.5153770000000 1.0
C      1  0.5299600000000  0.4476060000000  0.5038600000000 1.0
C      1  0.5119650000000  0.4398470000000  0.5251410000000 1.0
C      1  0.4862740000000  0.4808450000000  0.4994880000000 1.0
C      1  0.4933660000000  0.4640080000000  0.4781970000000 1.0
C      1  0.5193390000000  0.4535750000000  0.4779100000000 1.0
C      1  0.4853620000000  0.5039230000000  0.4245890000000 1.0
C      1  0.4856560000000  0.4976090000000  0.5664700000000 1.0
C      1  0.5669580000000  0.4992730000000  0.5392250000000 1.0
C      1  0.5661110000000  0.5009850000000  0.4537090000000 1.0
C      1  0.4283130000000  0.5048420000000  0.4932970000000 1.0
C      1  0.4769410000000  0.5822710000000  0.4983910000000 1.0
C      1  0.4985270000000  0.4155020000000  0.5248370000000 1.0
C      1  0.4961320000000  0.5070020000000  0.5021910000000 1.0
END
