TITL C-3201376-6384-966 -2.49370097744082e-06 125000 -1003.36650874847 0 0 164 (C1) n - 1
REM
REM in /home/nfs/bkarasulu/CARBON/AIRSS/Generating-Clusters/LCBOP/Higher-Symm/SD-CG/FIRE-CG
REM
REM
REM
REM
REM
REM ./C.cell (b20cbc046b6831c77cfcea5457e17084)
REM AIRSS Version 0.9.1 bugfix July 2018 build 013d7b7c2542+ Fri, 06 Jul 2018 19:26:36 +0100
REM compiler GCC version 9.2.1 20190827 (Red Hat 9.2.1-1)
REM options -cpp -mtune=generic -march=x86-64 -g -O0 -fpre-include=/usr/include/finclude/math-vector-fortran.h
REM seed -467284854 1744665521 31339341 -2126109245 -1608974424 -10071979 1858348289 1565850379 -1719798952 -1798831919 186181344 -363093772 1205452490 1631617111 -1052963477 -1678913192 -1675933176 292072853 453034608 -1909991057 106342294 -2027592221 -319118776 66546595 -1636360022 -1665224909 -2119790795 756854493 -2096868837 -473478565 -1300499346 387907955 1841699215
REM
CELL 1.54180   50.00000   50.00000   50.00000   90.00000   90.00000   90.00000
LATT -1
SFAC C  
C      1  0.5243220000000  0.4413420000000  0.5118400000000 1.0
C      1  0.5558190000000  0.5545900000000  0.5948390000000 1.0
C      1  0.6141170000000  0.5152010000000  0.4786720000000 1.0
C      1  0.4968020000000  0.4562600000000  0.4118460000000 1.0
C      1  0.5090850000000  0.5173870000000  0.4873130000000 1.0
C      1  0.4866420000000  0.4410590000000  0.6031550000000 1.0
C      1  0.4331140000000  0.4409370000000  0.4979280000000 1.0
C      1  0.6025570000000  0.5212360000000  0.5264310000000 1.0
C      1  0.3881140000000  0.5015150000000  0.5445180000000 1.0
C      1  0.5360890000000  0.5156160000000  0.4384030000000 1.0
C      1  0.3935780000000  0.4616170000000  0.4122060000000 1.0
C      1  0.3910350000000  0.4872380000000  0.3997950000000 1.0
C      1  0.5301760000000  0.5940320000000  0.5192420000000 1.0
C      1  0.3978490000000  0.4300190000000  0.5598400000000 1.0
C      1  0.5234360000000  0.4731190000000  0.4533590000000 1.0
C      1  0.5533870000000  0.4736710000000  0.5390270000000 1.0
C      1  0.4423880000000  0.4933990000000  0.5528700000000 1.0
C      1  0.5561910000000  0.5060440000000  0.5923310000000 1.0
C      1  0.5808770000000  0.4675210000000  0.5451390000000 1.0
C      1  0.5278230000000  0.4468200000000  0.4624950000000 1.0
C      1  0.5426100000000  0.4070290000000  0.4855350000000 1.0
C      1  0.4333540000000  0.5014800000000  0.4795790000000 1.0
C      1  0.5894440000000  0.5147730000000  0.4628640000000 1.0
C      1  0.3861550000000  0.4330820000000  0.4826640000000 1.0
C      1  0.4274390000000  0.5468430000000  0.4269670000000 1.0
C      1  0.5859540000000  0.4471730000000  0.4414630000000 1.0
C      1  0.4788630000000  0.4977360000000  0.4929720000000 1.0
C      1  0.5804480000000  0.5082870000000  0.5132470000000 1.0
C      1  0.4786140000000  0.4802190000000  0.4710030000000 1.0
C      1  0.6220020000000  0.4885400000000  0.4893310000000 1.0
C      1  0.3708650000000  0.5844180000000  0.5646870000000 1.0
C      1  0.4317280000000  0.5380740000000  0.5610530000000 1.0
C      1  0.5918100000000  0.5355690000000  0.4171520000000 1.0
C      1  0.4689900000000  0.4864020000000  0.6083250000000 1.0
C      1  0.4058160000000  0.4899430000000  0.5238710000000 1.0
C      1  0.6009520000000  0.4706090000000  0.4468920000000 1.0
C      1  0.3666970000000  0.3859450000000  0.5005720000000 1.0
C      1  0.5336500000000  0.5963090000000  0.4911200000000 1.0
C      1  0.4055260000000  0.4454680000000  0.4996620000000 1.0
C      1  0.6051150000000  0.5454220000000  0.5120380000000 1.0
C      1  0.4981490000000  0.4923300000000  0.6130650000000 1.0
C      1  0.5566790000000  0.4578810000000  0.3997360000000 1.0
C      1  0.5389300000000  0.5243870000000  0.5342650000000 1.0
C      1  0.5012880000000  0.4075970000000  0.4597620000000 1.0
C      1  0.5596080000000  0.6617960000000  0.5226270000000 1.0
C      1  0.4084110000000  0.5070630000000  0.4099900000000 1.0
C      1  0.4494030000000  0.4126670000000  0.4629780000000 1.0
C      1  0.5792760000000  0.5584260000000  0.5082120000000 1.0
C      1  0.4734610000000  0.5095800000000  0.3790780000000 1.0
C      1  0.5303340000000  0.4967800000000  0.5761600000000 1.0
C      1  0.4950150000000  0.5442960000000  0.4860150000000 1.0
C      1  0.4340060000000  0.4951140000000  0.5260640000000 1.0
C      1  0.4537250000000  0.5584860000000  0.4300350000000 1.0
C      1  0.5525200000000  0.4183640000000  0.5979130000000 1.0
C      1  0.4990310000000  0.4266760000000  0.5466670000000 1.0
C      1  0.6179740000000  0.4781560000000  0.5171250000000 1.0
C      1  0.4828080000000  0.5193440000000  0.4374460000000 1.0
C      1  0.4935890000000  0.4914670000000  0.3773580000000 1.0
C      1  0.3881380000000  0.4532630000000  0.5470500000000 1.0
C      1  0.5385860000000  0.4800240000000  0.3990620000000 1.0
C      1  0.4161550000000  0.5323580000000  0.4493120000000 1.0
C      1  0.6040890000000  0.5525970000000  0.4353040000000 1.0
C      1  0.4681910000000  0.4011910000000  0.5119320000000 1.0
C      1  0.4706140000000  0.5375460000000  0.4195030000000 1.0
C      1  0.5749450000000  0.6044120000000  0.4587760000000 1.0
C      1  0.4329150000000  0.5479090000000  0.4955120000000 1.0
C      1  0.4278550000000  0.5279260000000  0.4027290000000 1.0
C      1  0.5672620000000  0.5338870000000  0.4676000000000 1.0
C      1  0.4508750000000  0.4177480000000  0.5535030000000 1.0
C      1  0.5910140000000  0.4302710000000  0.5158680000000 1.0
C      1  0.3965820000000  0.5725980000000  0.5666990000000 1.0
C      1  0.5835920000000  0.6288120000000  0.4481820000000 1.0
C      1  0.5486340000000  0.5395130000000  0.4468030000000 1.0
C      1  0.5895180000000  0.4961720000000  0.4410420000000 1.0
C      1  0.4525850000000  0.5531370000000  0.5147570000000 1.0
C      1  0.4606630000000  0.5827260000000  0.4397700000000 1.0
C      1  0.5368620000000  0.5264720000000  0.5057650000000 1.0
C      1  0.3981050000000  0.4619470000000  0.5210010000000 1.0
C      1  0.5252050000000  0.5008040000000  0.4603710000000 1.0
C      1  0.4807670000000  0.4522500000000  0.4778580000000 1.0
C      1  0.5591340000000  0.5417860000000  0.4940720000000 1.0
C      1  0.4746320000000  0.4380820000000  0.4223180000000 1.0
C      1  0.5706570000000  0.4923200000000  0.4946140000000 1.0
C      1  0.3583330000000  0.5405840000000  0.5479470000000 1.0
C      1  0.4507290000000  0.4982850000000  0.5024290000000 1.0
C      1  0.4866780000000  0.3874980000000  0.4700800000000 1.0
C      1  0.4254640000000  0.4238970000000  0.5591220000000 1.0
C      1  0.4423640000000  0.4697790000000  0.4035090000000 1.0
C      1  0.4884910000000  0.5373530000000  0.6005180000000 1.0
C      1  0.3652340000000  0.6100700000000  0.5716620000000 1.0
C      1  0.6209250000000  0.4700590000000  0.4673690000000 1.0
C      1  0.4111520000000  0.5049110000000  0.4391400000000 1.0
C      1  0.4257020000000  0.5294970000000  0.4757150000000 1.0
C      1  0.4805180000000  0.5573870000000  0.5065920000000 1.0
C      1  0.4377680000000  0.5124870000000  0.5730050000000 1.0
C      1  0.5016910000000  0.5051330000000  0.5657300000000 1.0
C      1  0.5019290000000  0.4348910000000  0.4673980000000 1.0
C      1  0.5136400000000  0.4476670000000  0.5956530000000 1.0
C      1  0.4741330000000  0.4135530000000  0.5375320000000 1.0
C      1  0.5737830000000  0.4146070000000  0.5336770000000 1.0
C      1  0.5735840000000  0.4451810000000  0.4162380000000 1.0
C      1  0.4624440000000  0.4760880000000  0.5583470000000 1.0
C      1  0.5331880000000  0.4143260000000  0.5108910000000 1.0
C      1  0.5483890000000  0.6026730000000  0.4694880000000 1.0
C      1  0.5216590000000  0.5701760000000  0.5324260000000 1.0
C      1  0.5782280000000  0.5092370000000  0.4176890000000 1.0
C      1  0.5040870000000  0.5200560000000  0.6170220000000 1.0
C      1  0.5769710000000  0.4323220000000  0.4639780000000 1.0
C      1  0.4802790000000  0.5494420000000  0.5528490000000 1.0
C      1  0.4896550000000  0.4802350000000  0.5549720000000 1.0
C      1  0.4508820000000  0.5089900000000  0.5990380000000 1.0
C      1  0.4949610000000  0.5618440000000  0.5312930000000 1.0
C      1  0.6142350000000  0.4986230000000  0.5400680000000 1.0
C      1  0.3771560000000  0.4438250000000  0.4581310000000 1.0
C      1  0.3839450000000  0.5285390000000  0.5503200000000 1.0
C      1  0.5425060000000  0.5632910000000  0.4339410000000 1.0
C      1  0.4307000000000  0.4566710000000  0.4446140000000 1.0
C      1  0.6084690000000  0.5627580000000  0.4625730000000 1.0
C      1  0.6174380000000  0.5435240000000  0.4849390000000 1.0
C      1  0.5817900000000  0.4968550000000  0.5831920000000 1.0
C      1  0.5988460000000  0.4561020000000  0.5250650000000 1.0
C      1  0.4210230000000  0.4562240000000  0.4165900000000 1.0
C      1  0.4521140000000  0.5485220000000  0.5439930000000 1.0
C      1  0.5956610000000  0.4874500000000  0.5606130000000 1.0
C      1  0.4593580000000  0.4444740000000  0.4944870000000 1.0
C      1  0.5521070000000  0.4738360000000  0.4927890000000 1.0
C      1  0.5491550000000  0.4279510000000  0.4668340000000 1.0
C      1  0.4611060000000  0.5344630000000  0.6080770000000 1.0
C      1  0.5557870000000  0.5303410000000  0.6064040000000 1.0
C      1  0.3755220000000  0.4085070000000  0.4909700000000 1.0
C      1  0.5187270000000  0.4762270000000  0.5978610000000 1.0
C      1  0.5340020000000  0.5807900000000  0.4165670000000 1.0
C      1  0.5515900000000  0.5601000000000  0.5690400000000 1.0
C      1  0.4048360000000  0.5463570000000  0.5597530000000 1.0
C      1  0.5429330000000  0.4986250000000  0.5483160000000 1.0
C      1  0.3766390000000  0.4514060000000  0.4323440000000 1.0
C      1  0.5930530000000  0.5862960000000  0.4715190000000 1.0
C      1  0.5918020000000  0.4263970000000  0.4876400000000 1.0
C      1  0.4920340000000  0.5320760000000  0.5719940000000 1.0
C      1  0.5471110000000  0.6415070000000  0.5345080000000 1.0
C      1  0.4634590000000  0.3967570000000  0.4837140000000 1.0
C      1  0.3786180000000  0.4780350000000  0.5588740000000 1.0
C      1  0.4595660000000  0.4832330000000  0.4197000000000 1.0
C      1  0.4519720000000  0.4348360000000  0.4438640000000 1.0
C      1  0.5250710000000  0.4170270000000  0.5574710000000 1.0
C      1  0.5488680000000  0.5032710000000  0.4147170000000 1.0
C      1  0.5409060000000  0.4631310000000  0.5157560000000 1.0
C      1  0.4246430000000  0.4841460000000  0.4568560000000 1.0
C      1  0.4656410000000  0.4580290000000  0.6076040000000 1.0
C      1  0.5718860000000  0.6726960000000  0.5016540000000 1.0
C      1  0.4794750000000  0.4898430000000  0.4422000000000 1.0
C      1  0.3517870000000  0.5660750000000  0.5544750000000 1.0
C      1  0.5860330000000  0.6542040000000  0.4562070000000 1.0
C      1  0.5104290000000  0.4727040000000  0.3909720000000 1.0
C      1  0.3805160000000  0.4132200000000  0.5727440000000 1.0
C      1  0.4996730000000  0.4555190000000  0.5459330000000 1.0
C      1  0.5025800000000  0.4731250000000  0.4340950000000 1.0
C      1  0.5387830000000  0.5513210000000  0.5458810000000 1.0
C      1  0.5365500000000  0.6170580000000  0.5340660000000 1.0
C      1  0.5815690000000  0.6704360000000  0.4769200000000 1.0
C      1  0.5452790000000  0.4100280000000  0.5368310000000 1.0
C      1  0.4570210000000  0.5253710000000  0.3959770000000 1.0
C      1  0.5851310000000  0.5843300000000  0.4990090000000 1.0
C      1  0.5308170000000  0.4275360000000  0.5838840000000 1.0
END
