TITL C-3201379-3821-1982 1.9093081111672e-06 125000 -243.972872890455 0 0 42 (C3) n - 1
REM
REM in /home/nfs/bkarasulu/CARBON/AIRSS/Generating-Clusters/LCBOP/Higher-Symm/SD-CG/FIRE-CG
REM
REM
REM
REM
REM
REM ./C.cell (b20cbc046b6831c77cfcea5457e17084)
REM AIRSS Version 0.9.1 bugfix July 2018 build 013d7b7c2542+ Fri, 06 Jul 2018 19:26:36 +0100
REM compiler GCC version 9.2.1 20190827 (Red Hat 9.2.1-1)
REM options -cpp -mtune=generic -march=x86-64 -g -O0 -fpre-include=/usr/include/finclude/math-vector-fortran.h
REM seed -1083440658 -1120321735 -1495056429 -2136693958 -422902643 -1776795812 -743925421 -1173710572 -778209936 272651440 -1482613352 -1657917631 -948676058 661092504 -1696507965 -1945957666 337544287 320361828 -1376841616 -776714641 1880315456 -1103301712 44984911 2065870080 -1146233382 -1214360095 -568270807 -1126072683 -993938480 1984184229 -1114915333 -89837448 1106730575
REM
CELL 1.54180   50.00000   50.00000   50.00000   90.00000   90.00000   90.00000
LATT -1
SFAC C  
C      1  0.5459230000000  0.4747230000000  0.5263480000000 1.0
C      1  0.4989310000000  0.5524110000000  0.5263430000000 1.0
C      1  0.4551470000000  0.4728720000000  0.5263500000000 1.0
C      1  0.5536850000000  0.5326760000000  0.4771960000000 1.0
C      1  0.4448570000000  0.5301530000000  0.4771980000000 1.0
C      1  0.5014570000000  0.4371660000000  0.4772040000000 1.0
C      1  0.5192670000000  0.4555450000000  0.4900700000000 1.0
C      1  0.5288650000000  0.5389120000000  0.4900640000000 1.0
C      1  0.4518680000000  0.5055410000000  0.4900670000000 1.0
C      1  0.5000940000000  0.4714830000000  0.5468330000000 1.0
C      1  0.5246530000000  0.5143440000000  0.5468300000000 1.0
C      1  0.4752550000000  0.5141830000000  0.5468300000000 1.0
C      1  0.5002540000000  0.5286270000000  0.5426600000000 1.0
C      1  0.4750850000000  0.4859110000000  0.5426640000000 1.0
C      1  0.5246630000000  0.4854710000000  0.5426630000000 1.0
C      1  0.4821590000000  0.5260730000000  0.4445430000000 1.0
C      1  0.4863360000000  0.4715070000000  0.4445470000000 1.0
C      1  0.5315030000000  0.5024080000000  0.4445440000000 1.0
C      1  0.4616340000000  0.4469520000000  0.5136010000000 1.0
C      1  0.5651250000000  0.4933000000000  0.5135960000000 1.0
C      1  0.4732410000000  0.5597520000000  0.5135920000000 1.0
C      1  0.5503100000000  0.5263960000000  0.5450080000000 1.0
C      1  0.4519890000000  0.5303760000000  0.5450090000000 1.0
C      1  0.4977030000000  0.4432380000000  0.5450150000000 1.0
C      1  0.4678470000000  0.5442710000000  0.4651400000000 1.0
C      1  0.4777340000000  0.4500150000000  0.4651470000000 1.0
C      1  0.5544180000000  0.5057060000000  0.4651420000000 1.0
C      1  0.4740970000000  0.4976110000000  0.4498280000000 1.0
C      1  0.5150160000000  0.4787570000000  0.4498290000000 1.0
C      1  0.5108850000000  0.5236210000000  0.4498260000000 1.0
C      1  0.4805680000000  0.5604960000000  0.4861190000000 1.0
C      1  0.4573240000000  0.4529220000000  0.4861270000000 1.0
C      1  0.5621070000000  0.4865790000000  0.4861230000000 1.0
C      1  0.5418970000000  0.4567830000000  0.5052950000000 1.0
C      1  0.5164790000000  0.5578930000000  0.5052880000000 1.0
C      1  0.4416240000000  0.4853260000000  0.5052940000000 1.0
C      1  0.4796050000000  0.4313380000000  0.5285430000000 1.0
C      1  0.5696630000000  0.5166710000000  0.5285360000000 1.0
C      1  0.4507340000000  0.5519970000000  0.5285350000000 1.0
C      1  0.5132190000000  0.4805700000000  0.4788190000000 1.0
C      1  0.5102150000000  0.5211610000000  0.4788160000000 1.0
C      1  0.4765640000000  0.4982640000000  0.4788180000000 1.0
END
