TITL C-3201377-4638-913 -9523.01446751468 125000 -357.275768743503 0 0 62 (C1) n - 1
REM
REM in /home/nfs/bkarasulu/CARBON/AIRSS/Generating-Clusters/LCBOP/Higher-Symm/SD-CG/FIRE-CG
REM
REM
REM
REM
REM
REM ./C.cell (b20cbc046b6831c77cfcea5457e17084)
REM AIRSS Version 0.9.1 bugfix July 2018 build 013d7b7c2542+ Fri, 06 Jul 2018 19:26:36 +0100
REM compiler GCC version 9.2.1 20190827 (Red Hat 9.2.1-1)
REM options -cpp -mtune=generic -march=x86-64 -g -O0 -fpre-include=/usr/include/finclude/math-vector-fortran.h
REM seed -1547766485 -890372108 1300763827 -561988797 1214884974 1845043222 -1789008532 887239518 826011754 2015605597 -1056862236 -719549592 -332725669 -1523861342 431298871 -1158617451 828294727 1453288149 48647428 -1616961932 -1047758075 1424826971 482780266 397557871 398181004 1283104030 598950608 -738194246 936147243 -1194118090 1561308857 980208569 1514280922
REM
CELL 1.54180   50.00000   50.00000   50.00000   90.00000   90.00000   90.00000
LATT -1
SFAC C  
C      1  0.5564950000000  0.4503650000000  0.5087380000000 1.0
C      1  0.5607780000000  0.5281510000000  0.5427270000000 1.0
C      1  0.5602990000000  0.5217380000000  0.4601380000000 1.0
C      1  0.4371660000000  0.4717170000000  0.4953410000000 1.0
C      1  0.4352910000000  0.5191240000000  0.4767540000000 1.0
C      1  0.4362920000000  0.5101350000000  0.5285460000000 1.0
C      1  0.4511530000000  0.5395490000000  0.4898900000000 1.0
C      1  0.4539070000000  0.4745920000000  0.4723870000000 1.0
C      1  0.4536700000000  0.4886670000000  0.5373680000000 1.0
C      1  0.5590610000000  0.5242640000000  0.5144810000000 1.0
C      1  0.5631000000000  0.4746090000000  0.5242700000000 1.0
C      1  0.5608660000000  0.4971370000000  0.4775540000000 1.0
C      1  0.4478910000000  0.5122570000000  0.4490490000000 1.0
C      1  0.4489520000000  0.4504600000000  0.5131910000000 1.0
C      1  0.4492410000000  0.5363780000000  0.5371660000000 1.0
C      1  0.5439500000000  0.5126630000000  0.5603270000000 1.0
C      1  0.5391160000000  0.4393320000000  0.4877110000000 1.0
C      1  0.5403370000000  0.5438550000000  0.4551790000000 1.0
C      1  0.5481660000000  0.4802570000000  0.5556770000000 1.0
C      1  0.5369020000000  0.5645340000000  0.4759680000000 1.0
C      1  0.5389230000000  0.4482180000000  0.4600870000000 1.0
C      1  0.4516770000000  0.4829390000000  0.4451480000000 1.0
C      1  0.4512940000000  0.5553920000000  0.5144280000000 1.0
C      1  0.4550140000000  0.4601940000000  0.5405890000000 1.0
C      1  0.4941060000000  0.4837940000000  0.5713140000000 1.0
C      1  0.4867500000000  0.5720480000000  0.4761480000000 1.0
C      1  0.4899110000000  0.4464620000000  0.4515680000000 1.0
C      1  0.5023200000000  0.4871760000000  0.4283600000000 1.0
C      1  0.5008570000000  0.5697740000000  0.5226130000000 1.0
C      1  0.5040250000000  0.4436280000000  0.5461020000000 1.0
C      1  0.4990020000000  0.5153560000000  0.4301490000000 1.0
C      1  0.5026260000000  0.4297710000000  0.5216610000000 1.0
C      1  0.5016540000000  0.5549850000000  0.5476350000000 1.0
C      1  0.4919150000000  0.5118570000000  0.5693570000000 1.0
C      1  0.4881650000000  0.4332490000000  0.4783790000000 1.0
C      1  0.4862920000000  0.5565850000000  0.4529100000000 1.0
C      1  0.4686780000000  0.4337200000000  0.5002360000000 1.0
C      1  0.4736720000000  0.5344170000000  0.5560220000000 1.0
C      1  0.4709420000000  0.5284870000000  0.4393190000000 1.0
C      1  0.5133610000000  0.4290710000000  0.4953170000000 1.0
C      1  0.5158000000000  0.5386380000000  0.4403280000000 1.0
C      1  0.5178660000000  0.5263070000000  0.5654100000000 1.0
C      1  0.5161170000000  0.5716740000000  0.4944180000000 1.0
C      1  0.5169970000000  0.4583320000000  0.4450710000000 1.0
C      1  0.5220920000000  0.4649530000000  0.5594860000000 1.0
C      1  0.4735160000000  0.5730040000000  0.5103370000000 1.0
C      1  0.4783390000000  0.4547060000000  0.5559700000000 1.0
C      1  0.4740440000000  0.4683650000000  0.4340160000000 1.0
C      1  0.4914040000000  0.5105270000000  0.4746870000000 1.0
C      1  0.4902880000000  0.4753930000000  0.5034840000000 1.0
C      1  0.4863410000000  0.5204190000000  0.5169630000000 1.0
C      1  0.5136900000000  0.5225490000000  0.5218460000000 1.0
C      1  0.5187870000000  0.4775660000000  0.5043630000000 1.0
C      1  0.5195340000000  0.5136680000000  0.4782820000000 1.0
C      1  0.5213590000000  0.4955760000000  0.5260410000000 1.0
C      1  0.5323990000000  0.5294970000000  0.5012100000000 1.0
C      1  0.5331480000000  0.4880980000000  0.4809630000000 1.0
C      1  0.4803580000000  0.4838970000000  0.4787580000000 1.0
C      1  0.4775190000000  0.5285340000000  0.4911000000000 1.0
C      1  0.4778650000000  0.4937540000000  0.5227450000000 1.0
C      1  0.4284810000000  0.5003080000000  0.5003930000000 1.0
C      1  0.5697420000000  0.4982910000000  0.5060240000000 1.0
END
