TITL C-3201376-6384-1309 -25172.8977004504 125000 -1215.21675938593 0 0 198 (C1) n - 1
REM
REM in /home/nfs/bkarasulu/CARBON/AIRSS/Generating-Clusters/LCBOP/Higher-Symm/SD-CG/FIRE-CG
REM
REM
REM
REM
REM
REM ./C.cell (b20cbc046b6831c77cfcea5457e17084)
REM AIRSS Version 0.9.1 bugfix July 2018 build 013d7b7c2542+ Fri, 06 Jul 2018 19:26:36 +0100
REM compiler GCC version 9.2.1 20190827 (Red Hat 9.2.1-1)
REM options -cpp -mtune=generic -march=x86-64 -g -O0 -fpre-include=/usr/include/finclude/math-vector-fortran.h
REM seed 2109253114 -1655330297 897118935 -137756369 907237478 -422914584 1138331483 -1609154746 814775531 -1763060850 -1791939891 -1822299576 -866483408 254104 2020703604 885164188 944967867 642109523 1848794609 -2022980582 -187442129 -921231740 -1141697986 1256984065 1004526212 1938800504 1784000538 609073056 -645042159 -1918770930 1123227300 129340460 -1677511941
REM
CELL 1.54180   50.00000   50.00000   50.00000   90.00000   90.00000   90.00000
LATT -1
SFAC C  
C      1  0.3744980000000  0.4406900000000  0.4786240000000 1.0
C      1  0.4847960000000  0.3607950000000  0.4527040000000 1.0
C      1  0.4382720000000  0.4972050000000  0.3754290000000 1.0
C      1  0.6455050000000  0.5219400000000  0.5049970000000 1.0
C      1  0.6309680000000  0.4511790000000  0.5303220000000 1.0
C      1  0.3546990000000  0.5433790000000  0.5266450000000 1.0
C      1  0.5126950000000  0.6419760000000  0.4358080000000 1.0
C      1  0.5269060000000  0.3619860000000  0.5451230000000 1.0
C      1  0.4934330000000  0.6373780000000  0.5342160000000 1.0
C      1  0.5433430000000  0.5262950000000  0.3539050000000 1.0
C      1  0.5335770000000  0.4962420000000  0.6424090000000 1.0
C      1  0.4487550000000  0.5075390000000  0.6287790000000 1.0
C      1  0.3654140000000  0.4392140000000  0.5047050000000 1.0
C      1  0.5011490000000  0.3648920000000  0.5381190000000 1.0
C      1  0.4476610000000  0.4799400000000  0.6308430000000 1.0
C      1  0.6407290000000  0.5305100000000  0.5299420000000 1.0
C      1  0.6355630000000  0.4393560000000  0.5053790000000 1.0
C      1  0.3514100000000  0.5278010000000  0.5050680000000 1.0
C      1  0.5176920000000  0.6375150000000  0.5229270000000 1.0
C      1  0.5123610000000  0.3604160000000  0.4518800000000 1.0
C      1  0.4871920000000  0.6426150000000  0.4469940000000 1.0
C      1  0.5430750000000  0.5202070000000  0.6490220000000 1.0
C      1  0.5288750000000  0.5038780000000  0.3548000000000 1.0
C      1  0.4440880000000  0.5239670000000  0.3702850000000 1.0
C      1  0.5296610000000  0.5631040000000  0.4857390000000 1.0
C      1  0.4798280000000  0.5242030000000  0.5625760000000 1.0
C      1  0.5683500000000  0.4941610000000  0.5230150000000 1.0
C      1  0.4637850000000  0.4299360000000  0.4783880000000 1.0
C      1  0.4750680000000  0.5770990000000  0.5112320000000 1.0
C      1  0.5336710000000  0.4151230000000  0.5157210000000 1.0
C      1  0.5062780000000  0.4749050000000  0.5646410000000 1.0
C      1  0.5156080000000  0.5259060000000  0.4229560000000 1.0
C      1  0.4904190000000  0.4785510000000  0.4262460000000 1.0
C      1  0.4149850000000  0.5092140000000  0.5343340000000 1.0
C      1  0.4277950000000  0.4895350000000  0.4789880000000 1.0
C      1  0.5869200000000  0.5152920000000  0.4635750000000 1.0
C      1  0.5343260000000  0.5766420000000  0.5105960000000 1.0
C      1  0.4887940000000  0.5327450000000  0.4187530000000 1.0
C      1  0.5711950000000  0.4923020000000  0.4644800000000 1.0
C      1  0.4690660000000  0.4302880000000  0.5314520000000 1.0
C      1  0.4728170000000  0.5770220000000  0.4835230000000 1.0
C      1  0.5311930000000  0.4194060000000  0.4879020000000 1.0
C      1  0.5157720000000  0.4765980000000  0.4126840000000 1.0
C      1  0.5066250000000  0.5278520000000  0.5577020000000 1.0
C      1  0.4798700000000  0.4674460000000  0.5715290000000 1.0
C      1  0.4442560000000  0.5114000000000  0.4834510000000 1.0
C      1  0.4114790000000  0.4814710000000  0.5306340000000 1.0
C      1  0.5719710000000  0.5218130000000  0.5217980000000 1.0
C      1  0.4422730000000  0.5172850000000  0.5301660000000 1.0
C      1  0.5153770000000  0.4279360000000  0.5322430000000 1.0
C      1  0.5420030000000  0.5153930000000  0.4214200000000 1.0
C      1  0.5501160000000  0.4819510000000  0.5057810000000 1.0
C      1  0.5771670000000  0.5388710000000  0.4764700000000 1.0
C      1  0.4377460000000  0.4660710000000  0.4922960000000 1.0
C      1  0.4930910000000  0.5591850000000  0.5220980000000 1.0
C      1  0.4884460000000  0.4380370000000  0.4895510000000 1.0
C      1  0.5126260000000  0.5615530000000  0.4635170000000 1.0
C      1  0.4817530000000  0.4965550000000  0.4460710000000 1.0
C      1  0.4623320000000  0.5073840000000  0.5478840000000 1.0
C      1  0.5302600000000  0.4892980000000  0.5686270000000 1.0
C      1  0.4429860000000  0.5293020000000  0.5047690000000 1.0
C      1  0.5105270000000  0.4330230000000  0.4734150000000 1.0
C      1  0.5300450000000  0.5172380000000  0.5674420000000 1.0
C      1  0.5609780000000  0.4726740000000  0.4819590000000 1.0
C      1  0.5617420000000  0.5343030000000  0.4991700000000 1.0
C      1  0.4315310000000  0.4656620000000  0.5188470000000 1.0
C      1  0.4859400000000  0.5565090000000  0.4701090000000 1.0
C      1  0.4922470000000  0.4378860000000  0.5181790000000 1.0
C      1  0.5165230000000  0.5708250000000  0.5318750000000 1.0
C      1  0.4582250000000  0.4829700000000  0.5622050000000 1.0
C      1  0.4704820000000  0.5207870000000  0.4362580000000 1.0
C      1  0.5415720000000  0.4861040000000  0.4203790000000 1.0
C      1  0.5598620000000  0.5377050000000  0.4180310000000 1.0
C      1  0.4229580000000  0.5691610000000  0.5220200000000 1.0
C      1  0.5170940000000  0.4223740000000  0.5604040000000 1.0
C      1  0.4287640000000  0.4994350000000  0.4255690000000 1.0
C      1  0.4209070000000  0.5078120000000  0.5821430000000 1.0
C      1  0.5543640000000  0.4769960000000  0.5782530000000 1.0
C      1  0.5798890000000  0.4339370000000  0.5076610000000 1.0
C      1  0.5978430000000  0.5591320000000  0.4800990000000 1.0
C      1  0.4439810000000  0.4481350000000  0.4715590000000 1.0
C      1  0.4845560000000  0.5766670000000  0.5700270000000 1.0
C      1  0.4865250000000  0.4224180000000  0.4285330000000 1.0
C      1  0.5152890000000  0.5764830000000  0.4395320000000 1.0
C      1  0.5520750000000  0.5324460000000  0.5773390000000 1.0
C      1  0.4228650000000  0.5496390000000  0.5007620000000 1.0
C      1  0.5120080000000  0.4267850000000  0.4442540000000 1.0
C      1  0.4335000000000  0.4810980000000  0.5765180000000 1.0
C      1  0.4423240000000  0.5233630000000  0.4352380000000 1.0
C      1  0.5590570000000  0.4640090000000  0.4247080000000 1.0
C      1  0.5747630000000  0.4479700000000  0.4832690000000 1.0
C      1  0.5907110000000  0.5770980000000  0.5016420000000 1.0
C      1  0.4155520000000  0.4180410000000  0.5375920000000 1.0
C      1  0.4910720000000  0.5838050000000  0.4245640000000 1.0
C      1  0.4942340000000  0.4130700000000  0.5759450000000 1.0
C      1  0.5124000000000  0.5796990000000  0.5588170000000 1.0
C      1  0.4412900000000  0.4719060000000  0.4252490000000 1.0
C      1  0.4296890000000  0.4561330000000  0.4471290000000 1.0
C      1  0.4644340000000  0.4063870000000  0.4395140000000 1.0
C      1  0.5524910000000  0.5651490000000  0.4113330000000 1.0
C      1  0.5467190000000  0.4532260000000  0.5921050000000 1.0
C      1  0.4367000000000  0.5356370000000  0.5787290000000 1.0
C      1  0.6205740000000  0.5476320000000  0.4657680000000 1.0
C      1  0.5785990000000  0.4484610000000  0.5326310000000 1.0
C      1  0.4362840000000  0.5605270000000  0.5546030000000 1.0
C      1  0.5420140000000  0.5833560000000  0.4314460000000 1.0
C      1  0.5401190000000  0.4310880000000  0.5750270000000 1.0
C      1  0.4591670000000  0.5790570000000  0.5552920000000 1.0
C      1  0.4210540000000  0.4547730000000  0.5746590000000 1.0
C      1  0.4055700000000  0.4411200000000  0.5531230000000 1.0
C      1  0.4725670000000  0.3981250000000  0.5643180000000 1.0
C      1  0.5444950000000  0.5567830000000  0.5907350000000 1.0
C      1  0.5644450000000  0.4388690000000  0.4379850000000 1.0
C      1  0.4277170000000  0.5425720000000  0.4514770000000 1.0
C      1  0.5892560000000  0.5652970000000  0.5286190000000 1.0
C      1  0.5863010000000  0.4413920000000  0.4577860000000 1.0
C      1  0.4096110000000  0.5445230000000  0.4748950000000 1.0
C      1  0.5357400000000  0.5785470000000  0.5747610000000 1.0
C      1  0.5421200000000  0.4185150000000  0.4423110000000 1.0
C      1  0.4682080000000  0.5938030000000  0.4394450000000 1.0
C      1  0.3947120000000  0.5235600000000  0.5490070000000 1.0
C      1  0.5551050000000  0.3977260000000  0.5241590000000 1.0
C      1  0.5412780000000  0.5682180000000  0.3846430000000 1.0
C      1  0.5871120000000  0.4775090000000  0.5397440000000 1.0
C      1  0.6176680000000  0.5167160000000  0.4621150000000 1.0
C      1  0.4082390000000  0.4764660000000  0.4587540000000 1.0
C      1  0.4600460000000  0.5957880000000  0.5295400000000 1.0
C      1  0.4573070000000  0.4016100000000  0.4699310000000 1.0
C      1  0.5512890000000  0.6066420000000  0.4459910000000 1.0
C      1  0.4669570000000  0.4663160000000  0.4099710000000 1.0
C      1  0.4677210000000  0.5340380000000  0.5892770000000 1.0
C      1  0.5283400000000  0.4560830000000  0.6147040000000 1.0
C      1  0.3859380000000  0.5275730000000  0.4712360000000 1.0
C      1  0.5441710000000  0.3994520000000  0.4684480000000 1.0
C      1  0.5304430000000  0.5558320000000  0.6157220000000 1.0
C      1  0.6135430000000  0.4522380000000  0.4574780000000 1.0
C      1  0.5888350000000  0.5364170000000  0.5424200000000 1.0
C      1  0.3883430000000  0.4654870000000  0.5424170000000 1.0
C      1  0.4642510000000  0.6023860000000  0.4696780000000 1.0
C      1  0.4635110000000  0.4007270000000  0.5349120000000 1.0
C      1  0.5476280000000  0.6014230000000  0.5066170000000 1.0
C      1  0.4750580000000  0.4521620000000  0.5956970000000 1.0
C      1  0.4821890000000  0.5467170000000  0.3948910000000 1.0
C      1  0.5136420000000  0.4673600000000  0.3852560000000 1.0
C      1  0.5240680000000  0.3764960000000  0.4720990000000 1.0
C      1  0.4725000000000  0.5293140000000  0.3744510000000 1.0
C      1  0.3698280000000  0.4645400000000  0.5185080000000 1.0
C      1  0.4856710000000  0.6251240000000  0.4707010000000 1.0
C      1  0.4860550000000  0.3813400000000  0.5206310000000 1.0
C      1  0.5291230000000  0.6227840000000  0.5020300000000 1.0
C      1  0.5088100000000  0.4894670000000  0.3678140000000 1.0
C      1  0.5417530000000  0.5447320000000  0.6385990000000 1.0
C      1  0.4708990000000  0.4686260000000  0.6183180000000 1.0
C      1  0.6186450000000  0.5319850000000  0.5449100000000 1.0
C      1  0.6255160000000  0.4559630000000  0.4837130000000 1.0
C      1  0.3703690000000  0.5128600000000  0.4907080000000 1.0
C      1  0.5495990000000  0.3752320000000  0.5395400000000 1.0
C      1  0.4725410000000  0.5153010000000  0.6132830000000 1.0
C      1  0.3839510000000  0.4672190000000  0.4728190000000 1.0
C      1  0.4713800000000  0.6223690000000  0.5342080000000 1.0
C      1  0.4749590000000  0.3774480000000  0.4739870000000 1.0
C      1  0.5307650000000  0.6259530000000  0.4518230000000 1.0
C      1  0.5179600000000  0.4817060000000  0.6243030000000 1.0
C      1  0.5488320000000  0.5502910000000  0.3643160000000 1.0
C      1  0.4623720000000  0.4828500000000  0.3835970000000 1.0
C      1  0.6295160000000  0.5062750000000  0.4879750000000 1.0
C      1  0.6155690000000  0.4761700000000  0.5274620000000 1.0
C      1  0.3756090000000  0.5428030000000  0.5433660000000 1.0
C      1  0.5153350000000  0.5798900000000  0.3827480000000 1.0
C      1  0.3928430000000  0.5074500000000  0.5729910000000 1.0
C      1  0.5762770000000  0.4053090000000  0.5064220000000 1.0
C      1  0.4799980000000  0.4385540000000  0.4050090000000 1.0
C      1  0.4825210000000  0.5603450000000  0.5938190000000 1.0
C      1  0.5114990000000  0.4330110000000  0.6180440000000 1.0
C      1  0.5787840000000  0.4899730000000  0.5675240000000 1.0
C      1  0.6255940000000  0.4985880000000  0.4398990000000 1.0
C      1  0.4024240000000  0.4965190000000  0.4370120000000 1.0
C      1  0.4334330000000  0.5955530000000  0.5138310000000 1.0
C      1  0.4354840000000  0.3959480000000  0.4930640000000 1.0
C      1  0.5721010000000  0.6052220000000  0.4653350000000 1.0
C      1  0.5026750000000  0.5615140000000  0.6137190000000 1.0
C      1  0.3844070000000  0.5166170000000  0.4447680000000 1.0
C      1  0.5715710000000  0.3944550000000  0.4800070000000 1.0
C      1  0.4902330000000  0.4284940000000  0.5995530000000 1.0
C      1  0.4916110000000  0.5737840000000  0.3971760000000 1.0
C      1  0.4999920000000  0.4422460000000  0.3842490000000 1.0
C      1  0.6219610000000  0.4715880000000  0.4383450000000 1.0
C      1  0.5775000000000  0.5213550000000  0.5679750000000 1.0
C      1  0.3794430000000  0.4825390000000  0.5665810000000 1.0
C      1  0.4381470000000  0.6073740000000  0.4867520000000 1.0
C      1  0.4348140000000  0.4007550000000  0.5225050000000 1.0
C      1  0.5729940000000  0.5985070000000  0.4931780000000 1.0
C      1  0.4910960000000  0.4910160000000  0.6180950000000 1.0
C      1  0.6203110000000  0.4816750000000  0.4982960000000 1.0
C      1  0.5150830000000  0.6225380000000  0.4772030000000 1.0
C      1  0.4836880000000  0.5014080000000  0.3733020000000 1.0
C      1  0.3738470000000  0.4846000000000  0.4953000000000 1.0
C      1  0.4949230000000  0.3805300000000  0.4936390000000 1.0
END
