TITL C-3201372-1405-491 -0.00455731441007484 125000 -495.704938564905 0 0 83 (C1) n - 1
REM
REM in /home/nfs/bkarasulu/CARBON/AIRSS/Generating-Clusters/LCBOP/Higher-Symm/SD-CG/FIRE-CG
REM
REM
REM
REM
REM
REM ./C.cell (b20cbc046b6831c77cfcea5457e17084)
REM AIRSS Version 0.9.1 bugfix July 2018 build 013d7b7c2542+ Fri, 06 Jul 2018 19:26:36 +0100
REM compiler GCC version 9.2.1 20190827 (Red Hat 9.2.1-1)
REM options -cpp -mtune=generic -march=x86-64 -g -O0 -fpre-include=/usr/include/finclude/math-vector-fortran.h
REM seed 122530530 683160681 1800851076 1072083529 -1456962216 288026587 -1551513010 -948663407 -1021990178 -540119368 -955117568 -1973594446 2040380279 1976871808 1514322825 125051922 -934061805 178268408 -1566784575 -604269293 2134508250 -1716581588 441379797 655546075 1063411311 1904638988 116874075 1524566157 -1863440232 -1163448547 -635962862 700909650 776143490
REM
CELL 1.54180   50.00000   50.00000   50.00000   90.00000   90.00000   90.00000
LATT -1
SFAC C  
C      1  0.5354870000000  0.5696820000000  0.5034960000000 1.0
C      1  0.5618020000000  0.4912780000000  0.5883830000000 1.0
C      1  0.4752020000000  0.4861910000000  0.4885350000000 1.0
C      1  0.4993550000000  0.4899450000000  0.5817480000000 1.0
C      1  0.5436430000000  0.4784800000000  0.6040750000000 1.0
C      1  0.5340560000000  0.5532940000000  0.4374830000000 1.0
C      1  0.4578670000000  0.4635420000000  0.4924350000000 1.0
C      1  0.4172270000000  0.4886090000000  0.4867120000000 1.0
C      1  0.4705780000000  0.5261000000000  0.5642720000000 1.0
C      1  0.4594940000000  0.4276740000000  0.4475260000000 1.0
C      1  0.5638560000000  0.5376380000000  0.4770530000000 1.0
C      1  0.4805830000000  0.5790000000000  0.4591070000000 1.0
C      1  0.5603520000000  0.5690440000000  0.5522940000000 1.0
C      1  0.4953160000000  0.5842480000000  0.4372670000000 1.0
C      1  0.5227010000000  0.4928480000000  0.4802400000000 1.0
C      1  0.4317510000000  0.4710270000000  0.5035890000000 1.0
C      1  0.4593320000000  0.5047980000000  0.4708840000000 1.0
C      1  0.4946830000000  0.5377510000000  0.4821430000000 1.0
C      1  0.4796330000000  0.5622890000000  0.4816410000000 1.0
C      1  0.5180410000000  0.4064450000000  0.4647340000000 1.0
C      1  0.4988890000000  0.4081350000000  0.5236890000000 1.0
C      1  0.5278040000000  0.4439610000000  0.5516250000000 1.0
C      1  0.5589270000000  0.5507310000000  0.5056460000000 1.0
C      1  0.5155070000000  0.5670010000000  0.5781120000000 1.0
C      1  0.5803790000000  0.4897450000000  0.4882810000000 1.0
C      1  0.5265110000000  0.4509770000000  0.4338660000000 1.0
C      1  0.5438120000000  0.4596660000000  0.5071480000000 1.0
C      1  0.5383870000000  0.5762540000000  0.5663720000000 1.0
C      1  0.5428260000000  0.4618910000000  0.4554180000000 1.0
C      1  0.5674610000000  0.4764360000000  0.5101480000000 1.0
C      1  0.5190610000000  0.3857180000000  0.4489690000000 1.0
C      1  0.4979870000000  0.5259510000000  0.4551170000000 1.0
C      1  0.4850770000000  0.5662340000000  0.5281440000000 1.0
C      1  0.4928320000000  0.5187680000000  0.5817920000000 1.0
C      1  0.5127140000000  0.5716280000000  0.5207460000000 1.0
C      1  0.4942810000000  0.4255380000000  0.5026430000000 1.0
C      1  0.5001290000000  0.4797680000000  0.4743310000000 1.0
C      1  0.5689670000000  0.5076800000000  0.4683910000000 1.0
C      1  0.5181830000000  0.5742570000000  0.4269550000000 1.0
C      1  0.5186770000000  0.4709100000000  0.5932240000000 1.0
C      1  0.4391230000000  0.4830940000000  0.5502170000000 1.0
C      1  0.4494400000000  0.4354900000000  0.5271570000000 1.0
C      1  0.4651780000000  0.4351140000000  0.4996490000000 1.0
C      1  0.4996030000000  0.5219970000000  0.5129450000000 1.0
C      1  0.4349870000000  0.4619170000000  0.5313820000000 1.0
C      1  0.4756110000000  0.5103580000000  0.4471010000000 1.0
C      1  0.5395480000000  0.5793350000000  0.4768420000000 1.0
C      1  0.5155580000000  0.4279480000000  0.4827370000000 1.0
C      1  0.4565800000000  0.4215290000000  0.4736190000000 1.0
C      1  0.5120960000000  0.5397630000000  0.5865330000000 1.0
C      1  0.5364020000000  0.4486600000000  0.4816510000000 1.0
C      1  0.5708100000000  0.5556070000000  0.5310640000000 1.0
C      1  0.5276980000000  0.5177450000000  0.5223680000000 1.0
C      1  0.5215930000000  0.5281230000000  0.4392560000000 1.0
C      1  0.4990950000000  0.4767200000000  0.5313860000000 1.0
C      1  0.5232680000000  0.4599630000000  0.5283420000000 1.0
C      1  0.4894350000000  0.4776650000000  0.5578710000000 1.0
C      1  0.4798960000000  0.4656320000000  0.4218950000000 1.0
C      1  0.5472990000000  0.5098390000000  0.5442210000000 1.0
C      1  0.5373410000000  0.5064800000000  0.4979380000000 1.0
C      1  0.4866910000000  0.4964870000000  0.5142410000000 1.0
C      1  0.4392530000000  0.5667300000000  0.5085440000000 1.0
C      1  0.4016700000000  0.5309490000000  0.5035010000000 1.0
C      1  0.3956940000000  0.5045940000000  0.4957630000000 1.0
C      1  0.5083610000000  0.4663390000000  0.4181840000000 1.0
C      1  0.5211500000000  0.4467940000000  0.5777470000000 1.0
C      1  0.5213700000000  0.4902340000000  0.4102290000000 1.0
C      1  0.3702300000000  0.4948130000000  0.4968730000000 1.0
C      1  0.5524060000000  0.4909990000000  0.4492990000000 1.0
C      1  0.5385050000000  0.5305910000000  0.5886980000000 1.0
C      1  0.4500240000000  0.5067160000000  0.5584680000000 1.0
C      1  0.5351090000000  0.5050490000000  0.4301870000000 1.0
C      1  0.4365170000000  0.4878270000000  0.4362640000000 1.0
C      1  0.4323430000000  0.4961780000000  0.4637900000000 1.0
C      1  0.4168130000000  0.5524330000000  0.5076080000000 1.0
C      1  0.5508510000000  0.5588040000000  0.4595760000000 1.0
C      1  0.4602200000000  0.4275780000000  0.3994900000000 1.0
C      1  0.4664820000000  0.4401520000000  0.4230740000000 1.0
C      1  0.5672220000000  0.4916920000000  0.5337840000000 1.0
C      1  0.4750640000000  0.5500550000000  0.5493790000000 1.0
C      1  0.5519770000000  0.5126720000000  0.5725040000000 1.0
C      1  0.4651280000000  0.4895620000000  0.4283670000000 1.0
C      1  0.4669880000000  0.5686440000000  0.5060240000000 1.0
END
