TITL C-3201376-6384-1411 5909.04983495934 125000 -743.102469628499 0 0 122 (C1) n - 1
REM
REM in /home/nfs/bkarasulu/CARBON/AIRSS/Generating-Clusters/LCBOP/Higher-Symm/SD-CG/FIRE-CG
REM
REM
REM
REM
REM
REM ./C.cell (b20cbc046b6831c77cfcea5457e17084)
REM AIRSS Version 0.9.1 bugfix July 2018 build 013d7b7c2542+ Fri, 06 Jul 2018 19:26:36 +0100
REM compiler GCC version 9.2.1 20190827 (Red Hat 9.2.1-1)
REM options -cpp -mtune=generic -march=x86-64 -g -O0 -fpre-include=/usr/include/finclude/math-vector-fortran.h
REM seed 837400640 -1168604891 -1624539168 743998112 1633415581 1043926801 1319127514 -1752499052 -1054235998 1873841448 -320935105 -1172168268 -514533060 784477155 -1563945269 1690132644 -1396362777 1293899258 -552978620 -2013200637 1302181580 506236791 -1685150737 -623716768 1888725148 -252263793 -944043774 859523926 1671665213 937080630 -1983424130 1674348593 -91525658
REM
CELL 1.54180   50.00000   50.00000   50.00000   90.00000   90.00000   90.00000
LATT -1
SFAC C  
C      1  0.5344150000000  0.5167340000000  0.4861600000000 1.0
C      1  0.5271950000000  0.4682650000000  0.4951890000000 1.0
C      1  0.5255870000000  0.5028480000000  0.5310360000000 1.0
C      1  0.4740600000000  0.5138490000000  0.4846680000000 1.0
C      1  0.4730940000000  0.4667830000000  0.4953230000000 1.0
C      1  0.4710370000000  0.5019780000000  0.5313650000000 1.0
C      1  0.5300240000000  0.5387770000000  0.5846020000000 1.0
C      1  0.5285370000000  0.5556220000000  0.4299180000000 1.0
C      1  0.5315370000000  0.4098550000000  0.4642480000000 1.0
C      1  0.4659710000000  0.5377150000000  0.5842310000000 1.0
C      1  0.4649910000000  0.5529460000000  0.4371090000000 1.0
C      1  0.4663930000000  0.4110450000000  0.4633360000000 1.0
C      1  0.5789050000000  0.5377130000000  0.4374940000000 1.0
C      1  0.5715220000000  0.4288840000000  0.4888820000000 1.0
C      1  0.5796290000000  0.5377090000000  0.5635710000000 1.0
C      1  0.4200620000000  0.5333430000000  0.4445480000000 1.0
C      1  0.4270660000000  0.4299990000000  0.4882860000000 1.0
C      1  0.4163610000000  0.5355160000000  0.5636840000000 1.0
C      1  0.4842330000000  0.3959780000000  0.4814380000000 1.0
C      1  0.4794130000000  0.5619610000000  0.5756770000000 1.0
C      1  0.4784930000000  0.5329270000000  0.4183350000000 1.0
C      1  0.5123720000000  0.3955670000000  0.4815290000000 1.0
C      1  0.5156620000000  0.5631300000000  0.5769090000000 1.0
C      1  0.5135700000000  0.5355060000000  0.4142480000000 1.0
C      1  0.4863640000000  0.4102630000000  0.5772790000000 1.0
C      1  0.4830880000000  0.6024770000000  0.5497140000000 1.0
C      1  0.4860860000000  0.4845140000000  0.4065460000000 1.0
C      1  0.5135780000000  0.4105100000000  0.5771150000000 1.0
C      1  0.5102650000000  0.6021810000000  0.5500180000000 1.0
C      1  0.5153300000000  0.4843850000000  0.4045010000000 1.0
C      1  0.4292990000000  0.5644040000000  0.4805430000000 1.0
C      1  0.4303860000000  0.4487480000000  0.4427580000000 1.0
C      1  0.4308760000000  0.4889260000000  0.5700770000000 1.0
C      1  0.5685960000000  0.5653050000000  0.4812880000000 1.0
C      1  0.5678910000000  0.4416840000000  0.4414840000000 1.0
C      1  0.5663180000000  0.4905850000000  0.5692660000000 1.0
C      1  0.5312270000000  0.4731880000000  0.5968890000000 1.0
C      1  0.5289230000000  0.5884640000000  0.4879410000000 1.0
C      1  0.5285730000000  0.4565440000000  0.4138110000000 1.0
C      1  0.4667630000000  0.4722670000000  0.5971510000000 1.0
C      1  0.4694090000000  0.5859530000000  0.4930670000000 1.0
C      1  0.4722530000000  0.4585550000000  0.4166160000000 1.0
C      1  0.4013200000000  0.5415990000000  0.5424870000000 1.0
C      1  0.4034650000000  0.5126560000000  0.4475610000000 1.0
C      1  0.4167890000000  0.4448420000000  0.5081410000000 1.0
C      1  0.5953910000000  0.5436860000000  0.5428860000000 1.0
C      1  0.5913980000000  0.5139540000000  0.4379200000000 1.0
C      1  0.5811590000000  0.4453020000000  0.5078920000000 1.0
C      1  0.4767150000000  0.4928270000000  0.5806650000000 1.0
C      1  0.4796240000000  0.5607120000000  0.5006460000000 1.0
C      1  0.4787700000000  0.4506130000000  0.4447600000000 1.0
C      1  0.5207240000000  0.4935270000000  0.5804420000000 1.0
C      1  0.5194210000000  0.5665320000000  0.4732110000000 1.0
C      1  0.5221100000000  0.4514280000000  0.4438110000000 1.0
C      1  0.6003730000000  0.5465870000000  0.5168370000000 1.0
C      1  0.5940430000000  0.4879650000000  0.4439650000000 1.0
C      1  0.5843140000000  0.4655870000000  0.5252220000000 1.0
C      1  0.3971460000000  0.5449080000000  0.5163440000000 1.0
C      1  0.3973400000000  0.4869960000000  0.4516370000000 1.0
C      1  0.4128410000000  0.4644900000000  0.5259170000000 1.0
C      1  0.5289750000000  0.4272460000000  0.5600070000000 1.0
C      1  0.5249290000000  0.5759470000000  0.5491570000000 1.0
C      1  0.5265320000000  0.5092800000000  0.4135130000000 1.0
C      1  0.4706050000000  0.4265930000000  0.5601220000000 1.0
C      1  0.4683060000000  0.5760180000000  0.5481460000000 1.0
C      1  0.4676170000000  0.5073210000000  0.4099930000000 1.0
C      1  0.5152890000000  0.4633620000000  0.4697790000000 1.0
C      1  0.5130970000000  0.4896950000000  0.5526750000000 1.0
C      1  0.5167930000000  0.5394230000000  0.4834120000000 1.0
C      1  0.4857880000000  0.4623500000000  0.4701320000000 1.0
C      1  0.4842840000000  0.4892360000000  0.5528950000000 1.0
C      1  0.4888440000000  0.5372860000000  0.4887160000000 1.0
C      1  0.4682020000000  0.5296490000000  0.5347160000000 1.0
C      1  0.4774390000000  0.5045950000000  0.4587880000000 1.0
C      1  0.4723650000000  0.4463740000000  0.5145210000000 1.0
C      1  0.5256140000000  0.5305420000000  0.5331720000000 1.0
C      1  0.5465340000000  0.5088710000000  0.4621950000000 1.0
C      1  0.5267680000000  0.4478020000000  0.5146020000000 1.0
C      1  0.4471890000000  0.4401610000000  0.5691920000000 1.0
C      1  0.4422330000000  0.5819210000000  0.5300510000000 1.0
C      1  0.4419110000000  0.4933790000000  0.4141040000000 1.0
C      1  0.5519090000000  0.4413980000000  0.5692890000000 1.0
C      1  0.5499810000000  0.5804730000000  0.5302410000000 1.0
C      1  0.5716630000000  0.4417330000000  0.3917020000000 1.0
C      1  0.5019330000000  0.5003130000000  0.4493570000000 1.0
C      1  0.4851470000000  0.4350730000000  0.5367060000000 1.0
C      1  0.4818060000000  0.5555950000000  0.5294930000000 1.0
C      1  0.5290920000000  0.5038080000000  0.4415900000000 1.0
C      1  0.5143130000000  0.4356470000000  0.5366240000000 1.0
C      1  0.5114730000000  0.5543980000000  0.5330220000000 1.0
C      1  0.5119220000000  0.6105240000000  0.4901040000000 1.0
C      1  0.5113300000000  0.4373340000000  0.3964130000000 1.0
C      1  0.5127850000000  0.4605500000000  0.6139070000000 1.0
C      1  0.4850220000000  0.6087650000000  0.4899110000000 1.0
C      1  0.4838890000000  0.4385130000000  0.3976170000000 1.0
C      1  0.4856430000000  0.4601280000000  0.6140500000000 1.0
C      1  0.4363980000000  0.5189920000000  0.5746820000000 1.0
C      1  0.4395170000000  0.5523030000000  0.4541810000000 1.0
C      1  0.4407630000000  0.4276150000000  0.4629950000000 1.0
C      1  0.5599370000000  0.5206790000000  0.5742270000000 1.0
C      1  0.5597370000000  0.5550470000000  0.4481480000000 1.0
C      1  0.5581960000000  0.4237130000000  0.4640250000000 1.0
C      1  0.4165940000000  0.4815450000000  0.5462760000000 1.0
C      1  0.4064460000000  0.5519160000000  0.4922500000000 1.0
C      1  0.4059620000000  0.4616130000000  0.4506590000000 1.0
C      1  0.5802010000000  0.4831950000000  0.5451420000000 1.0
C      1  0.5912840000000  0.5532230000000  0.4925680000000 1.0
C      1  0.5863230000000  0.4626100000000  0.4481790000000 1.0
C      1  0.4840470000000  0.5741150000000  0.4412850000000 1.0
C      1  0.4856360000000  0.4224660000000  0.4453050000000 1.0
C      1  0.4840200000000  0.5178620000000  0.5917780000000 1.0
C      1  0.5115060000000  0.5704450000000  0.4466690000000 1.0
C      1  0.5141480000000  0.4231130000000  0.4457770000000 1.0
C      1  0.5125720000000  0.5182240000000  0.5917010000000 1.0
C      1  0.5571530000000  0.4459700000000  0.4144510000000 1.0
C      1  0.5548850000000  0.4665610000000  0.5825870000000 1.0
C      1  0.5527730000000  0.5809060000000  0.5008770000000 1.0
C      1  0.4429750000000  0.4646530000000  0.4209210000000 1.0
C      1  0.4432560000000  0.4650440000000  0.5828470000000 1.0
C      1  0.4418840000000  0.5825870000000  0.4997530000000 1.0
C      1  0.4697760000000  0.4936400000000  0.5043380000000 1.0
C      1  0.5307650000000  0.4949060000000  0.5045930000000 1.0
END
