TITL C-3201372-1405-2111 -6.19786160676351e-07 125000 -969.27296502385 0 0 157 (C1) n - 1
REM
REM in /home/nfs/bkarasulu/CARBON/AIRSS/Generating-Clusters/LCBOP/Higher-Symm/SD-CG/FIRE-CG
REM
REM
REM
REM
REM
REM ./C.cell (b20cbc046b6831c77cfcea5457e17084)
REM AIRSS Version 0.9.1 bugfix July 2018 build 013d7b7c2542+ Fri, 06 Jul 2018 19:26:36 +0100
REM compiler GCC version 9.2.1 20190827 (Red Hat 9.2.1-1)
REM options -cpp -mtune=generic -march=x86-64 -g -O0 -fpre-include=/usr/include/finclude/math-vector-fortran.h
REM seed 727368189 1286256782 -700553599 -464710826 1799941888 -143870243 -1518973163 2126463768 -843921835 1568185047 -1221075842 -1772320999 1644983717 -1939829578 -373803065 395725881 -512334282 541604045 -829580779 970947292 2070755435 -145242511 1395554096 1992658978 -1446952875 -892211153 -1849181601 664995989 326124813 -1439059341 -649813485 1633537911 -377422585
REM
CELL 1.54180   50.00000   50.00000   50.00000   90.00000   90.00000   90.00000
LATT -1
SFAC C  
C      1  0.4723810000000  0.4729460000000  0.6077090000000 1.0
C      1  0.5374320000000  0.4883000000000  0.6069110000000 1.0
C      1  0.4917650000000  0.5365260000000  0.6039150000000 1.0
C      1  0.4945550000000  0.4548650000000  0.6034510000000 1.0
C      1  0.5418110000000  0.5159010000000  0.5999240000000 1.0
C      1  0.4656490000000  0.5260920000000  0.5976890000000 1.0
C      1  0.5399950000000  0.4107560000000  0.4572700000000 1.0
C      1  0.5559550000000  0.5782400000000  0.4626920000000 1.0
C      1  0.4013970000000  0.5103340000000  0.4602340000000 1.0
C      1  0.4870840000000  0.6140810000000  0.5300650000000 1.0
C      1  0.4091260000000  0.4314520000000  0.5300990000000 1.0
C      1  0.6101460000000  0.4543420000000  0.5318860000000 1.0
C      1  0.4738080000000  0.4682080000000  0.5088110000000 1.0
C      1  0.5177450000000  0.4988910000000  0.4978800000000 1.0
C      1  0.4739190000000  0.5425360000000  0.5038520000000 1.0
C      1  0.5681150000000  0.5847320000000  0.4886570000000 1.0
C      1  0.3905460000000  0.5172030000000  0.4869760000000 1.0
C      1  0.5387880000000  0.4032130000000  0.4873290000000 1.0
C      1  0.4378680000000  0.4601290000000  0.4140280000000 1.0
C      1  0.5662250000000  0.4701280000000  0.4159210000000 1.0
C      1  0.4955120000000  0.5726020000000  0.4154930000000 1.0
C      1  0.5038780000000  0.5264610000000  0.3989410000000 1.0
C      1  0.4743960000000  0.4906060000000  0.3991880000000 1.0
C      1  0.5199760000000  0.4829370000000  0.3975610000000 1.0
C      1  0.5905740000000  0.5538720000000  0.5525790000000 1.0
C      1  0.4103990000000  0.5491550000000  0.5487950000000 1.0
C      1  0.5035000000000  0.3951360000000  0.5517820000000 1.0
C      1  0.4354770000000  0.5584800000000  0.5619240000000 1.0
C      1  0.4828500000000  0.4122360000000  0.5658970000000 1.0
C      1  0.5868920000000  0.5272490000000  0.5661420000000 1.0
C      1  0.3805220000000  0.4933940000000  0.5007040000000 1.0
C      1  0.5602480000000  0.4201710000000  0.5001040000000 1.0
C      1  0.5544540000000  0.6071160000000  0.5010050000000 1.0
C      1  0.4950330000000  0.4730850000000  0.5579090000000 1.0
C      1  0.5304980000000  0.5040330000000  0.5503200000000 1.0
C      1  0.4854300000000  0.5193550000000  0.5511170000000 1.0
C      1  0.5113930000000  0.6154480000000  0.4580510000000 1.0
C      1  0.3945910000000  0.4523020000000  0.4585350000000 1.0
C      1  0.5952250000000  0.4359730000000  0.4575740000000 1.0
C      1  0.5160240000000  0.6137360000000  0.5324470000000 1.0
C      1  0.3933470000000  0.4557160000000  0.5327850000000 1.0
C      1  0.5941720000000  0.4295720000000  0.5340270000000 1.0
C      1  0.4443910000000  0.5818410000000  0.5446670000000 1.0
C      1  0.4586680000000  0.4117790000000  0.5467430000000 1.0
C      1  0.6010960000000  0.5073190000000  0.5476610000000 1.0
C      1  0.4077010000000  0.5592010000000  0.5214440000000 1.0
C      1  0.4966170000000  0.3920640000000  0.5233720000000 1.0
C      1  0.5964800000000  0.5501160000000  0.5240910000000 1.0
C      1  0.4281750000000  0.5806240000000  0.5194670000000 1.0
C      1  0.4685500000000  0.4002750000000  0.5210560000000 1.0
C      1  0.6036540000000  0.5218880000000  0.5216850000000 1.0
C      1  0.5649810000000  0.4713080000000  0.5296940000000 1.0
C      1  0.4849950000000  0.5576330000000  0.5245460000000 1.0
C      1  0.4562460000000  0.4741410000000  0.5309120000000 1.0
C      1  0.5386150000000  0.5520700000000  0.5374850000000 1.0
C      1  0.4397170000000  0.4990220000000  0.5336520000000 1.0
C      1  0.5285770000000  0.4404690000000  0.5407240000000 1.0
C      1  0.3831360000000  0.4653870000000  0.5068710000000 1.0
C      1  0.5883830000000  0.4193040000000  0.5070690000000 1.0
C      1  0.5290150000000  0.6189780000000  0.5066040000000 1.0
C      1  0.5898900000000  0.4808140000000  0.4278050000000 1.0
C      1  0.4737420000000  0.5893160000000  0.4246770000000 1.0
C      1  0.4356560000000  0.4339330000000  0.4256300000000 1.0
C      1  0.4824250000000  0.6192740000000  0.5015020000000 1.0
C      1  0.4079730000000  0.4259910000000  0.5013390000000 1.0
C      1  0.6140030000000  0.4572440000000  0.5024320000000 1.0
C      1  0.4181810000000  0.5281310000000  0.4416200000000 1.0
C      1  0.5161120000000  0.4182020000000  0.4401940000000 1.0
C      1  0.5615920000000  0.5542260000000  0.4456720000000 1.0
C      1  0.3995330000000  0.4746500000000  0.5520900000000 1.0
C      1  0.5739270000000  0.4232960000000  0.5525990000000 1.0
C      1  0.5305030000000  0.5988080000000  0.5509130000000 1.0
C      1  0.4474520000000  0.5351810000000  0.5034830000000 1.0
C      1  0.4918440000000  0.4475460000000  0.5121230000000 1.0
C      1  0.5348930000000  0.5167020000000  0.5075600000000 1.0
C      1  0.4680890000000  0.4407350000000  0.4647320000000 1.0
C      1  0.5650150000000  0.4971110000000  0.4679650000000 1.0
C      1  0.4619690000000  0.5620790000000  0.4618300000000 1.0
C      1  0.4347230000000  0.4863540000000  0.4190070000000 1.0
C      1  0.5449980000000  0.4543350000000  0.4207390000000 1.0
C      1  0.5184210000000  0.5606490000000  0.4228150000000 1.0
C      1  0.5471050000000  0.5765970000000  0.5493290000000 1.0
C      1  0.4132210000000  0.4985220000000  0.5480010000000 1.0
C      1  0.5460620000000  0.4198840000000  0.5506810000000 1.0
C      1  0.4499400000000  0.5359850000000  0.5740100000000 1.0
C      1  0.4952820000000  0.4346920000000  0.5808320000000 1.0
C      1  0.5599540000000  0.5250840000000  0.5779680000000 1.0
C      1  0.5414820000000  0.5295030000000  0.5553810000000 1.0
C      1  0.4571600000000  0.5165960000000  0.5528550000000 1.0
C      1  0.5107760000000  0.4500180000000  0.5607960000000 1.0
C      1  0.5202280000000  0.4673780000000  0.6096180000000 1.0
C      1  0.5185740000000  0.5324570000000  0.6052380000000 1.0
C      1  0.4625690000000  0.4982950000000  0.6056600000000 1.0
C      1  0.4473220000000  0.4927290000000  0.4831980000000 1.0
C      1  0.5314330000000  0.4563670000000  0.4891220000000 1.0
C      1  0.5148620000000  0.5504790000000  0.4873540000000 1.0
C      1  0.6086100000000  0.4792060000000  0.5472030000000 1.0
C      1  0.4665400000000  0.6003030000000  0.5448090000000 1.0
C      1  0.4315840000000  0.4218630000000  0.5455820000000 1.0
C      1  0.4823960000000  0.4648270000000  0.4590400000000 1.0
C      1  0.5390960000000  0.4965800000000  0.4561680000000 1.0
C      1  0.4746840000000  0.5366720000000  0.4565850000000 1.0
C      1  0.6003540000000  0.4798740000000  0.4928630000000 1.0
C      1  0.4658210000000  0.6000840000000  0.4896700000000 1.0
C      1  0.4333440000000  0.4232740000000  0.4899480000000 1.0
C      1  0.4661120000000  0.5226150000000  0.4329030000000 1.0
C      1  0.4976450000000  0.4630950000000  0.4343470000000 1.0
C      1  0.5341910000000  0.5146590000000  0.4336970000000 1.0
C      1  0.6056980000000  0.4330120000000  0.4866660000000 1.0
C      1  0.5078060000000  0.6248270000000  0.4864380000000 1.0
C      1  0.3895040000000  0.4444540000000  0.4866450000000 1.0
C      1  0.4397300000000  0.5110520000000  0.4317740000000 1.0
C      1  0.5208750000000  0.4457750000000  0.4327600000000 1.0
C      1  0.5368700000000  0.5434310000000  0.4356950000000 1.0
C      1  0.5088020000000  0.5745740000000  0.4747660000000 1.0
C      1  0.4312750000000  0.4731910000000  0.4716500000000 1.0
C      1  0.5583320000000  0.4464300000000  0.4825510000000 1.0
C      1  0.4807370000000  0.5812060000000  0.4734520000000 1.0
C      1  0.4410810000000  0.4461360000000  0.4736250000000 1.0
C      1  0.5748870000000  0.4725150000000  0.4802670000000 1.0
C      1  0.6009260000000  0.5083520000000  0.4973540000000 1.0
C      1  0.4391120000000  0.5890770000000  0.4946750000000 1.0
C      1  0.4569560000000  0.4070280000000  0.4962390000000 1.0
C      1  0.5736720000000  0.5755940000000  0.5589960000000 1.0
C      1  0.4016430000000  0.5232510000000  0.5547500000000 1.0
C      1  0.5311140000000  0.3969850000000  0.5582680000000 1.0
C      1  0.4785040000000  0.5177610000000  0.4076460000000 1.0
C      1  0.4948110000000  0.4732000000000  0.4074900000000 1.0
C      1  0.5254000000000  0.5090320000000  0.4068050000000 1.0
C      1  0.4459090000000  0.5761090000000  0.4239580000000 1.0
C      1  0.4609890000000  0.4173890000000  0.4259600000000 1.0
C      1  0.5918680000000  0.5103410000000  0.4301100000000 1.0
C      1  0.5316240000000  0.5444320000000  0.5103480000000 1.0
C      1  0.4395480000000  0.5088300000000  0.5053170000000 1.0
C      1  0.5196530000000  0.4465210000000  0.5136050000000 1.0
C      1  0.4062860000000  0.4799010000000  0.4591200000000 1.0
C      1  0.5652820000000  0.4308520000000  0.4565850000000 1.0
C      1  0.5281560000000  0.5906330000000  0.4609570000000 1.0
C      1  0.4738460000000  0.4814700000000  0.4827920000000 1.0
C      1  0.5241720000000  0.4816550000000  0.4768500000000 1.0
C      1  0.4906230000000  0.5344450000000  0.4816170000000 1.0
C      1  0.4097340000000  0.4336530000000  0.4405130000000 1.0
C      1  0.6038850000000  0.4592170000000  0.4416550000000 1.0
C      1  0.4878640000000  0.6118110000000  0.4393730000000 1.0
C      1  0.4755660000000  0.4156340000000  0.4758190000000 1.0
C      1  0.5809690000000  0.5180430000000  0.4789620000000 1.0
C      1  0.4364020000000  0.5705110000000  0.4724950000000 1.0
C      1  0.5837530000000  0.5363010000000  0.4370610000000 1.0
C      1  0.4260060000000  0.5561870000000  0.4307300000000 1.0
C      1  0.4881580000000  0.4105860000000  0.4312800000000 1.0
C      1  0.5169700000000  0.3925210000000  0.5028760000000 1.0
C      1  0.5861200000000  0.5679230000000  0.5038510000000 1.0
C      1  0.3957160000000  0.5419110000000  0.5014300000000 1.0
C      1  0.4930010000000  0.5460470000000  0.5472540000000 1.0
C      1  0.4676630000000  0.4672620000000  0.5554020000000 1.0
C      1  0.5487460000000  0.4841760000000  0.5449310000000 1.0
C      1  0.5036710000000  0.4988590000000  0.5536470000000 1.0
END
