TITL C-3201372-1405-541 13248.3301833957 125000 -368.832939245442 0 0 63 (C1) n - 1
REM
REM in /home/nfs/bkarasulu/CARBON/AIRSS/Generating-Clusters/LCBOP/Higher-Symm/SD-CG/FIRE-CG
REM
REM
REM
REM
REM
REM ./C.cell (b20cbc046b6831c77cfcea5457e17084)
REM AIRSS Version 0.9.1 bugfix July 2018 build 013d7b7c2542+ Fri, 06 Jul 2018 19:26:36 +0100
REM compiler GCC version 9.2.1 20190827 (Red Hat 9.2.1-1)
REM options -cpp -mtune=generic -march=x86-64 -g -O0 -fpre-include=/usr/include/finclude/math-vector-fortran.h
REM seed 753575260 2146911626 2014843817 849240089 -1221915859 -671759442 1774457714 393491760 948168029 -1772080450 -1106969666 -926066503 -876884733 1106136711 551002039 1235415039 1656742016 1355769086 -1474299135 979985510 -713411487 -1643598244 -647952398 -1703911313 527081406 682193117 1905621861 -1715112912 -1758873397 1875393325 997158800 -322307689 -190508026
REM
CELL 1.54180   50.00000   50.00000   50.00000   90.00000   90.00000   90.00000
LATT -1
SFAC C  
C      1  0.5209660000000  0.5292570000000  0.4031700000000 1.0
C      1  0.5007750000000  0.4875250000000  0.5743270000000 1.0
C      1  0.5083130000000  0.5255720000000  0.4256640000000 1.0
C      1  0.5080990000000  0.4722100000000  0.5955320000000 1.0
C      1  0.4917380000000  0.4776830000000  0.4257870000000 1.0
C      1  0.4916910000000  0.5309920000000  0.5955580000000 1.0
C      1  0.4793750000000  0.4739930000000  0.4031310000000 1.0
C      1  0.4989670000000  0.5156780000000  0.5743340000000 1.0
C      1  0.4715450000000  0.5342620000000  0.4580770000000 1.0
C      1  0.5328000000000  0.5325780000000  0.5444220000000 1.0
C      1  0.4832880000000  0.4804370000000  0.4759670000000 1.0
C      1  0.5132920000000  0.4782350000000  0.5245620000000 1.0
C      1  0.5160070000000  0.5229440000000  0.4759270000000 1.0
C      1  0.4862320000000  0.5250270000000  0.5245950000000 1.0
C      1  0.5280550000000  0.4685800000000  0.4586340000000 1.0
C      1  0.4668810000000  0.4705990000000  0.5445020000000 1.0
C      1  0.4568320000000  0.5158820000000  0.5276910000000 1.0
C      1  0.5444200000000  0.5124790000000  0.4737880000000 1.0
C      1  0.4488830000000  0.4892720000000  0.5327410000000 1.0
C      1  0.5491760000000  0.4849240000000  0.4691160000000 1.0
C      1  0.5507580000000  0.5139330000000  0.5325180000000 1.0
C      1  0.4499310000000  0.5180900000000  0.4679760000000 1.0
C      1  0.5427190000000  0.4873190000000  0.5273900000000 1.0
C      1  0.4548240000000  0.4909090000000  0.4739760000000 1.0
C      1  0.5547320000000  0.5636620000000  0.5171730000000 1.0
C      1  0.4472090000000  0.5652350000000  0.4857770000000 1.0
C      1  0.5473190000000  0.4417860000000  0.5130190000000 1.0
C      1  0.4509100000000  0.4464980000000  0.4910590000000 1.0
C      1  0.4520950000000  0.5616060000000  0.5140380000000 1.0
C      1  0.5482690000000  0.5569120000000  0.4909370000000 1.0
C      1  0.4446860000000  0.4396630000000  0.5173220000000 1.0
C      1  0.5509890000000  0.4346740000000  0.4856800000000 1.0
C      1  0.5066740000000  0.4282980000000  0.5398150000000 1.0
C      1  0.4819640000000  0.4311370000000  0.4544840000000 1.0
C      1  0.5189380000000  0.5782940000000  0.5472610000000 1.0
C      1  0.4897610000000  0.5784730000000  0.4498650000000 1.0
C      1  0.4808220000000  0.4249080000000  0.5470850000000 1.0
C      1  0.5090090000000  0.4246180000000  0.4497930000000 1.0
C      1  0.4931000000000  0.5750300000000  0.5399580000000 1.0
C      1  0.5169080000000  0.5722820000000  0.4545180000000 1.0
C      1  0.4314310000000  0.5325780000000  0.4829340000000 1.0
C      1  0.5689320000000  0.5258410000000  0.5146280000000 1.0
C      1  0.4376760000000  0.4729660000000  0.4881670000000 1.0
C      1  0.5601060000000  0.4685700000000  0.5141790000000 1.0
C      1  0.5615930000000  0.5305010000000  0.4878610000000 1.0
C      1  0.4391890000000  0.5350060000000  0.5164920000000 1.0
C      1  0.5665760000000  0.4718750000000  0.4868170000000 1.0
C      1  0.4305330000000  0.4775180000000  0.5149830000000 1.0
C      1  0.5206400000000  0.5549110000000  0.4799060000000 1.0
C      1  0.4818170000000  0.5568510000000  0.5196270000000 1.0
C      1  0.5267540000000  0.4396480000000  0.4691280000000 1.0
C      1  0.4604850000000  0.4430160000000  0.5399070000000 1.0
C      1  0.4722810000000  0.5632030000000  0.4692650000000 1.0
C      1  0.5391860000000  0.5601810000000  0.5399010000000 1.0
C      1  0.4784350000000  0.4485060000000  0.4798750000000 1.0
C      1  0.5176660000000  0.4465860000000  0.5193820000000 1.0
C      1  0.4976780000000  0.5244080000000  0.4515390000000 1.0
C      1  0.4942210000000  0.4773340000000  0.5486680000000 1.0
C      1  0.5020310000000  0.4787920000000  0.4518070000000 1.0
C      1  0.5054570000000  0.5258750000000  0.5486580000000 1.0
C      1  0.5052230000000  0.4420270000000  0.4926240000000 1.0
C      1  0.4938130000000  0.5612610000000  0.4927420000000 1.0
C      1  0.4996960000000  0.5016760000000  0.5003460000000 1.0
END
