TITL C-3201378-2706-2117 2.47925880089793 125000 -518.411781851004 0 0 89 (C1) n - 1
REM
REM in /home/nfs/bkarasulu/CARBON/AIRSS/Generating-Clusters/LCBOP/Higher-Symm/SD-CG/FIRE-CG
REM
REM
REM
REM
REM
REM ./C.cell (b20cbc046b6831c77cfcea5457e17084)
REM AIRSS Version 0.9.1 bugfix July 2018 build 013d7b7c2542+ Fri, 06 Jul 2018 19:26:36 +0100
REM compiler GCC version 9.2.1 20190827 (Red Hat 9.2.1-1)
REM options -cpp -mtune=generic -march=x86-64 -g -O0 -fpre-include=/usr/include/finclude/math-vector-fortran.h
REM seed -1635528018 -1045788962 -926269860 -1070895666 534830868 -1021748477 1851133383 -1700302740 -892791648 -1773268858 1036618314 -1066604004 690815000 1479096518 -881652060 -1595224316 -1055600275 -1155454654 1051192407 -1157588951 25995183 14159294 -1055897851 1392916830 1608436737 -221506043 -268307303 565983084 -1075760971 -336929867 -1249656182 303939111 -2145873795
REM
CELL 1.54180   50.00000   50.00000   50.00000   90.00000   90.00000   90.00000
LATT -1
SFAC C  
C      1  0.4651720000000  0.4341390000000  0.4551230000000 1.0
C      1  0.5750570000000  0.5023290000000  0.4576850000000 1.0
C      1  0.4599320000000  0.5624000000000  0.4555630000000 1.0
C      1  0.5167570000000  0.4229800000000  0.5085640000000 1.0
C      1  0.5612940000000  0.5530710000000  0.5113250000000 1.0
C      1  0.4239840000000  0.5245080000000  0.5096490000000 1.0
C      1  0.5302320000000  0.5331290000000  0.4756090000000 1.0
C      1  0.4549970000000  0.5084520000000  0.4734300000000 1.0
C      1  0.5143270000000  0.4576050000000  0.4728340000000 1.0
C      1  0.4786720000000  0.4801390000000  0.5621270000000 1.0
C      1  0.5260380000000  0.4936590000000  0.5499170000000 1.0
C      1  0.4910240000000  0.5248220000000  0.5514810000000 1.0
C      1  0.5730250000000  0.5381440000000  0.5344430000000 1.0
C      1  0.4303720000000  0.5418150000000  0.5329280000000 1.0
C      1  0.4982000000000  0.4190730000000  0.5310190000000 1.0
C      1  0.5655750000000  0.4434690000000  0.5215210000000 1.0
C      1  0.5181250000000  0.5840940000000  0.5189240000000 1.0
C      1  0.4183030000000  0.4722790000000  0.5197230000000 1.0
C      1  0.5121830000000  0.4143320000000  0.5552010000000 1.0
C      1  0.5645040000000  0.5490530000000  0.5598510000000 1.0
C      1  0.4185440000000  0.5310570000000  0.5571470000000 1.0
C      1  0.5062880000000  0.4320850000000  0.4838540000000 1.0
C      1  0.5564780000000  0.5386360000000  0.4870730000000 1.0
C      1  0.4373810000000  0.5284330000000  0.4848720000000 1.0
C      1  0.4515920000000  0.4426650000000  0.5451020000000 1.0
C      1  0.5768540000000  0.4858910000000  0.5478910000000 1.0
C      1  0.4743940000000  0.5721700000000  0.5444410000000 1.0
C      1  0.5847050000000  0.4757710000000  0.4601040000000 1.0
C      1  0.4787940000000  0.5834340000000  0.4580290000000 1.0
C      1  0.4373170000000  0.4390410000000  0.4580580000000 1.0
C      1  0.5744510000000  0.5165380000000  0.4824140000000 1.0
C      1  0.4473540000000  0.5550870000000  0.4801710000000 1.0
C      1  0.4781870000000  0.4271600000000  0.4796380000000 1.0
C      1  0.4641650000000  0.5591310000000  0.5025230000000 1.0
C      1  0.4658360000000  0.4393610000000  0.5019420000000 1.0
C      1  0.5692650000000  0.4996470000000  0.5045360000000 1.0
C      1  0.5382270000000  0.5541620000000  0.5671260000000 1.0
C      1  0.4238190000000  0.5052710000000  0.5668130000000 1.0
C      1  0.5308960000000  0.4294290000000  0.5648690000000 1.0
C      1  0.4828020000000  0.4477280000000  0.4376820000000 1.0
C      1  0.5548530000000  0.5114140000000  0.4401480000000 1.0
C      1  0.4620770000000  0.5403380000000  0.4380170000000 1.0
C      1  0.4526460000000  0.5607940000000  0.5288480000000 1.0
C      1  0.4712490000000  0.4301110000000  0.5282900000000 1.0
C      1  0.5773890000000  0.5088510000000  0.5305620000000 1.0
C      1  0.4592640000000  0.5128140000000  0.4452530000000 1.0
C      1  0.5077820000000  0.4597670000000  0.4448530000000 1.0
C      1  0.5321160000000  0.5272360000000  0.4473650000000 1.0
C      1  0.5877370000000  0.4562760000000  0.4785100000000 1.0
C      1  0.4954090000000  0.5953050000000  0.4756240000000 1.0
C      1  0.4189850000000  0.4464880000000  0.4764690000000 1.0
C      1  0.4976030000000  0.4573740000000  0.5653940000000 1.0
C      1  0.5343340000000  0.5198710000000  0.5366500000000 1.0
C      1  0.4630670000000  0.5226370000000  0.5515050000000 1.0
C      1  0.6124440000000  0.4343300000000  0.5135790000000 1.0
C      1  0.5055070000000  0.6293870000000  0.5079930000000 1.0
C      1  0.3874640000000  0.4360190000000  0.5113120000000 1.0
C      1  0.5009740000000  0.5624750000000  0.3830770000000 1.0
C      1  0.4416760000000  0.4674320000000  0.3820690000000 1.0
C      1  0.5521690000000  0.4732210000000  0.3800090000000 1.0
C      1  0.5451280000000  0.5760320000000  0.5153270000000 1.0
C      1  0.4121500000000  0.4992110000000  0.5137430000000 1.0
C      1  0.5443090000000  0.4264380000000  0.5137240000000 1.0
C      1  0.5090750000000  0.5510760000000  0.4050760000000 1.0
C      1  0.4483670000000  0.4807320000000  0.4034670000000 1.0
C      1  0.5388850000000  0.4701810000000  0.4022320000000 1.0
C      1  0.5607250000000  0.4620390000000  0.5435640000000 1.0
C      1  0.5028470000000  0.5692550000000  0.5386710000000 1.0
C      1  0.4378700000000  0.4680040000000  0.5408410000000 1.0
C      1  0.5318640000000  0.4629700000000  0.5548850000000 1.0
C      1  0.5160300000000  0.5430430000000  0.5487360000000 1.0
C      1  0.4499420000000  0.4929270000000  0.5553070000000 1.0
C      1  0.5197590000000  0.4788220000000  0.4917850000000 1.0
C      1  0.5073520000000  0.5268060000000  0.4924590000000 1.0
C      1  0.4708170000000  0.4921150000000  0.4912160000000 1.0
C      1  0.5063270000000  0.6029300000000  0.5007250000000 1.0
C      1  0.4082680000000  0.4515610000000  0.5023920000000 1.0
C      1  0.5887350000000  0.4446980000000  0.5044740000000 1.0
C      1  0.4554070000000  0.4936890000000  0.4254990000000 1.0
C      1  0.5254030000000  0.4677210000000  0.4249260000000 1.0
C      1  0.5169750000000  0.5394710000000  0.4275660000000 1.0
C      1  0.4612050000000  0.4667620000000  0.4980790000000 1.0
C      1  0.5462240000000  0.4835490000000  0.5004680000000 1.0
C      1  0.4896290000000  0.5474960000000  0.4990180000000 1.0
C      1  0.5266370000000  0.5039540000000  0.5793580000000 1.0
C      1  0.5030360000000  0.5118880000000  0.5897260000000 1.0
C      1  0.4825330000000  0.4946180000000  0.5893150000000 1.0
C      1  0.4969570000000  0.4960430000000  0.5396080000000 1.0
C      1  0.4982400000000  0.4981380000000  0.5032900000000 1.0
END
