TITL C-3201372-1405-568 256028.593338658 125000 -506.218991142824 0 0 85 (C1) n - 1
REM
REM in /home/nfs/bkarasulu/CARBON/AIRSS/Generating-Clusters/LCBOP/Higher-Symm/SD-CG/FIRE-CG
REM
REM
REM
REM
REM
REM ./C.cell (b20cbc046b6831c77cfcea5457e17084)
REM AIRSS Version 0.9.1 bugfix July 2018 build 013d7b7c2542+ Fri, 06 Jul 2018 19:26:36 +0100
REM compiler GCC version 9.2.1 20190827 (Red Hat 9.2.1-1)
REM options -cpp -mtune=generic -march=x86-64 -g -O0 -fpre-include=/usr/include/finclude/math-vector-fortran.h
REM seed -738952152 1342014666 1544587589 1227978629 132664604 -1949288204 -1747097189 -160051513 1681147771 -1521994512 -217800859 642166169 101813632 -1099645724 -1663800523 1373341480 -1240308464 980320774 1929898824 -259190509 -1225556606 -1301140559 -1408595057 -1366455450 1022525510 1057203828 -1201293967 -1798389309 2088096488 706687915 -1002646304 921387658 -894354893
REM
CELL 1.54180   50.00000   50.00000   50.00000   90.00000   90.00000   90.00000
LATT -1
SFAC C  
C      1  0.5311270000000  0.5535510000000  0.4259030000000 1.0
C      1  0.4258790000000  0.5302670000000  0.5497290000000 1.0
C      1  0.5512740000000  0.4284100000000  0.5317830000000 1.0
C      1  0.5310600000000  0.4481990000000  0.5727280000000 1.0
C      1  0.4670400000000  0.4465840000000  0.4265720000000 1.0
C      1  0.4647650000000  0.5525430000000  0.5725650000000 1.0
C      1  0.4276480000000  0.4680790000000  0.4469070000000 1.0
C      1  0.5735280000000  0.4677600000000  0.5517700000000 1.0
C      1  0.5709510000000  0.5310760000000  0.4446660000000 1.0
C      1  0.5535640000000  0.5720000000000  0.4682580000000 1.0
C      1  0.4477030000000  0.5712910000000  0.5303290000000 1.0
C      1  0.4461040000000  0.4253500000000  0.4673780000000 1.0
C      1  0.5304820000000  0.4281680000000  0.5532240000000 1.0
C      1  0.4277400000000  0.5511800000000  0.5290080000000 1.0
C      1  0.5515030000000  0.5321390000000  0.4241770000000 1.0
C      1  0.5313640000000  0.5711700000000  0.4484360000000 1.0
C      1  0.4669950000000  0.4263530000000  0.4466000000000 1.0
C      1  0.4670740000000  0.5718850000000  0.5523010000000 1.0
C      1  0.4271590000000  0.4462760000000  0.4676490000000 1.0
C      1  0.5733550000000  0.5521910000000  0.4658130000000 1.0
C      1  0.5730650000000  0.4468660000000  0.5306310000000 1.0
C      1  0.5521220000000  0.4688250000000  0.5712010000000 1.0
C      1  0.4448180000000  0.5307810000000  0.5704060000000 1.0
C      1  0.4465100000000  0.4678760000000  0.4259450000000 1.0
C      1  0.4673830000000  0.4429620000000  0.5106480000000 1.0
C      1  0.5055550000000  0.4704500000000  0.4482080000000 1.0
C      1  0.4446410000000  0.5127840000000  0.4644360000000 1.0
C      1  0.4725060000000  0.5493800000000  0.4923110000000 1.0
C      1  0.5368850000000  0.5545070000000  0.5148030000000 1.0
C      1  0.5327350000000  0.4450110000000  0.4869070000000 1.0
C      1  0.5127450000000  0.5373320000000  0.5642220000000 1.0
C      1  0.4916140000000  0.5308640000000  0.4450720000000 1.0
C      1  0.4886100000000  0.4709860000000  0.5536400000000 1.0
C      1  0.4458680000000  0.4870350000000  0.5291700000000 1.0
C      1  0.5554850000000  0.4865860000000  0.4626720000000 1.0
C      1  0.5670340000000  0.5071760000000  0.5239910000000 1.0
C      1  0.4691070000000  0.5090220000000  0.4454420000000 1.0
C      1  0.5063920000000  0.4470130000000  0.4711260000000 1.0
C      1  0.4417440000000  0.4613190000000  0.5136550000000 1.0
C      1  0.4618560000000  0.4851930000000  0.5567520000000 1.0
C      1  0.5215100000000  0.5101660000000  0.5615550000000 1.0
C      1  0.5285840000000  0.4922310000000  0.4440820000000 1.0
C      1  0.5169720000000  0.5595440000000  0.5442430000000 1.0
C      1  0.4852440000000  0.4436390000000  0.5360050000000 1.0
C      1  0.4874070000000  0.5545370000000  0.4658690000000 1.0
C      1  0.4507020000000  0.5259780000000  0.4913320000000 1.0
C      1  0.5557230000000  0.4683790000000  0.4883320000000 1.0
C      1  0.5658390000000  0.5330660000000  0.5127580000000 1.0
C      1  0.4609970000000  0.4201610000000  0.4911730000000 1.0
C      1  0.4905920000000  0.4620210000000  0.4235950000000 1.0
C      1  0.4268350000000  0.4912190000000  0.4649050000000 1.0
C      1  0.4649500000000  0.5737530000000  0.5082180000000 1.0
C      1  0.5391830000000  0.5752210000000  0.4927480000000 1.0
C      1  0.5330890000000  0.4278340000000  0.5083680000000 1.0
C      1  0.4878360000000  0.5376130000000  0.5783300000000 1.0
C      1  0.5072060000000  0.5387420000000  0.4205380000000 1.0
C      1  0.5077160000000  0.4635500000000  0.5764370000000 1.0
C      1  0.4234630000000  0.5066650000000  0.5344140000000 1.0
C      1  0.5734850000000  0.5075260000000  0.4613830000000 1.0
C      1  0.5827220000000  0.4939390000000  0.5436200000000 1.0
C      1  0.4620040000000  0.4914600000000  0.4217650000000 1.0
C      1  0.4903590000000  0.4228130000000  0.4623660000000 1.0
C      1  0.4255730000000  0.4629920000000  0.4912970000000 1.0
C      1  0.4614870000000  0.5079470000000  0.5736740000000 1.0
C      1  0.5367650000000  0.4921660000000  0.5762360000000 1.0
C      1  0.5355520000000  0.5086880000000  0.4191780000000 1.0
C      1  0.4921440000000  0.5748810000000  0.5390370000000 1.0
C      1  0.5068670000000  0.4270190000000  0.5362140000000 1.0
C      1  0.5091440000000  0.5727430000000  0.4662920000000 1.0
C      1  0.4264060000000  0.5354090000000  0.5057930000000 1.0
C      1  0.5791260000000  0.4534920000000  0.5024700000000 1.0
C      1  0.5784780000000  0.5356070000000  0.4883580000000 1.0
C      1  0.5047400000000  0.4953910000000  0.5413690000000 1.0
C      1  0.4923090000000  0.5376830000000  0.5121700000000 1.0
C      1  0.5153060000000  0.5158460000000  0.4589230000000 1.0
C      1  0.4847750000000  0.5147790000000  0.5271870000000 1.0
C      1  0.5228510000000  0.4863430000000  0.5200160000000 1.0
C      1  0.5201980000000  0.5162870000000  0.4850620000000 1.0
C      1  0.5496270000000  0.4876550000000  0.5122260000000 1.0
C      1  0.4823300000000  0.4860220000000  0.4904250000000 1.0
C      1  0.4641430000000  0.5022310000000  0.5085070000000 1.0
C      1  0.4859020000000  0.4575580000000  0.4924870000000 1.0
C      1  0.5181000000000  0.5370530000000  0.5021700000000 1.0
C      1  0.4834690000000  0.4882940000000  0.4614150000000 1.0
C      1  0.5096130000000  0.4938330000000  0.4968750000000 1.0
END
