TITL C-3201373-1215-1287 154.008714097108 125000 -1115.78891936748 0 0 189 (C1) n - 1
REM
REM in /home/nfs/bkarasulu/CARBON/AIRSS/Generating-Clusters/LCBOP/Higher-Symm/SD-CG/FIRE-CG
REM
REM
REM
REM
REM
REM ./C.cell (b20cbc046b6831c77cfcea5457e17084)
REM AIRSS Version 0.9.1 bugfix July 2018 build 013d7b7c2542+ Fri, 06 Jul 2018 19:26:36 +0100
REM compiler GCC version 9.2.1 20190827 (Red Hat 9.2.1-1)
REM options -cpp -mtune=generic -march=x86-64 -g -O0 -fpre-include=/usr/include/finclude/math-vector-fortran.h
REM seed 1849334237 -409084681 1807908278 -134844994 -2004615451 1797745094 670330119 -1882755664 1809257103 385086088 343166226 -106099856 582392487 1444837595 -1627499880 2119642644 452023833 -179976235 -1565521597 -1176123883 1504313718 886847888 1089787376 -1754410902 1169465976 -2142328399 -1822925936 -291736395 982044773 -1550706048 1085955968 -726496587 -425133013
REM
CELL 1.54180   50.00000   50.00000   50.00000   90.00000   90.00000   90.00000
LATT -1
SFAC C  
C      1  0.6177880000000  0.5045010000000  0.4683850000000 1.0
C      1  0.3851540000000  0.5052750000000  0.5267430000000 1.0
C      1  0.6180190000000  0.5062350000000  0.5239510000000 1.0
C      1  0.3841900000000  0.5065300000000  0.4706760000000 1.0
C      1  0.5343800000000  0.4403540000000  0.5977630000000 1.0
C      1  0.4664050000000  0.4317880000000  0.4024700000000 1.0
C      1  0.5341780000000  0.4290960000000  0.4035220000000 1.0
C      1  0.4681830000000  0.4287410000000  0.5951960000000 1.0
C      1  0.4417310000000  0.4458980000000  0.4154040000000 1.0
C      1  0.5573960000000  0.4497980000000  0.5811380000000 1.0
C      1  0.4424630000000  0.4405360000000  0.5815860000000 1.0
C      1  0.5587040000000  0.4428190000000  0.4163110000000 1.0
C      1  0.5855040000000  0.4546960000000  0.5702420000000 1.0
C      1  0.4135140000000  0.4529230000000  0.4270660000000 1.0
C      1  0.5863070000000  0.4498070000000  0.4274070000000 1.0
C      1  0.4137700000000  0.4478600000000  0.5720960000000 1.0
C      1  0.6047200000000  0.4281320000000  0.5268950000000 1.0
C      1  0.3985340000000  0.4310390000000  0.4767390000000 1.0
C      1  0.6010390000000  0.4337480000000  0.4767950000000 1.0
C      1  0.3939760000000  0.4202050000000  0.5280020000000 1.0
C      1  0.4087240000000  0.5489650000000  0.4750380000000 1.0
C      1  0.5969120000000  0.5492750000000  0.5226770000000 1.0
C      1  0.4074230000000  0.5488560000000  0.5264660000000 1.0
C      1  0.5940580000000  0.5475860000000  0.4718300000000 1.0
C      1  0.5278940000000  0.6263600000000  0.4588390000000 1.0
C      1  0.4759160000000  0.6298380000000  0.5431680000000 1.0
C      1  0.5285210000000  0.6277380000000  0.5427630000000 1.0
C      1  0.4759100000000  0.6266690000000  0.4601850000000 1.0
C      1  0.6184510000000  0.4816410000000  0.4505900000000 1.0
C      1  0.3899330000000  0.4777670000000  0.5362490000000 1.0
C      1  0.6066750000000  0.4808410000000  0.5325180000000 1.0
C      1  0.3822860000000  0.4843340000000  0.4521020000000 1.0
C      1  0.5542970000000  0.4370870000000  0.4610110000000 1.0
C      1  0.4402170000000  0.4316220000000  0.5373950000000 1.0
C      1  0.5583070000000  0.4303590000000  0.5392440000000 1.0
C      1  0.4451170000000  0.4396450000000  0.4591760000000 1.0
C      1  0.5247600000000  0.5658700000000  0.4326290000000 1.0
C      1  0.4763420000000  0.5754410000000  0.5669080000000 1.0
C      1  0.5269490000000  0.5708460000000  0.5634240000000 1.0
C      1  0.4745430000000  0.5680900000000  0.4336150000000 1.0
C      1  0.4808440000000  0.4688700000000  0.6137320000000 1.0
C      1  0.5248000000000  0.4714770000000  0.3775590000000 1.0
C      1  0.5165630000000  0.4636410000000  0.3540980000000 1.0
C      1  0.4880170000000  0.4627460000000  0.6380720000000 1.0
C      1  0.5547250000000  0.5716990000000  0.5714810000000 1.0
C      1  0.4466790000000  0.5715260000000  0.4264170000000 1.0
C      1  0.5525970000000  0.5689380000000  0.4247030000000 1.0
C      1  0.4479830000000  0.5719620000000  0.5745490000000 1.0
C      1  0.4573230000000  0.5604960000000  0.4780840000000 1.0
C      1  0.5473230000000  0.5527100000000  0.5214740000000 1.0
C      1  0.4555560000000  0.5611540000000  0.5254850000000 1.0
C      1  0.5449090000000  0.5549680000000  0.4748530000000 1.0
C      1  0.5346870000000  0.3892000000000  0.5847590000000 1.0
C      1  0.4770920000000  0.3891440000000  0.4355730000000 1.0
C      1  0.5253980000000  0.3899150000000  0.4369550000000 1.0
C      1  0.4876830000000  0.3827410000000  0.5730560000000 1.0
C      1  0.4479640000000  0.4155960000000  0.5161590000000 1.0
C      1  0.5383650000000  0.4198790000000  0.4765250000000 1.0
C      1  0.4616270000000  0.4209750000000  0.4707070000000 1.0
C      1  0.5411080000000  0.4115410000000  0.5271510000000 1.0
C      1  0.4670020000000  0.3670040000000  0.5712730000000 1.0
C      1  0.5440040000000  0.3723510000000  0.4320160000000 1.0
C      1  0.4595070000000  0.3718240000000  0.4272100000000 1.0
C      1  0.5561520000000  0.3774380000000  0.5936770000000 1.0
C      1  0.5241780000000  0.5692180000000  0.4616880000000 1.0
C      1  0.4769280000000  0.5757440000000  0.5382970000000 1.0
C      1  0.5259550000000  0.5664770000000  0.5350040000000 1.0
C      1  0.4770470000000  0.5726690000000  0.4620720000000 1.0
C      1  0.5970990000000  0.5229380000000  0.4563490000000 1.0
C      1  0.4034080000000  0.5238180000000  0.5412540000000 1.0
C      1  0.6013380000000  0.5259430000000  0.5389000000000 1.0
C      1  0.4045540000000  0.5252200000000  0.4584630000000 1.0
C      1  0.5866910000000  0.5109720000000  0.5618970000000 1.0
C      1  0.4162000000000  0.5103220000000  0.4332670000000 1.0
C      1  0.5835590000000  0.5071610000000  0.4326370000000 1.0
C      1  0.4167260000000  0.5069330000000  0.5638120000000 1.0
C      1  0.5835160000000  0.4363170000000  0.4552310000000 1.0
C      1  0.4124550000000  0.4290600000000  0.5476890000000 1.0
C      1  0.5864000000000  0.4328470000000  0.5478480000000 1.0
C      1  0.4157010000000  0.4382650000000  0.4550130000000 1.0
C      1  0.4329220000000  0.5517750000000  0.4120400000000 1.0
C      1  0.5658300000000  0.5497340000000  0.5852140000000 1.0
C      1  0.4385680000000  0.5471420000000  0.5844820000000 1.0
C      1  0.5660160000000  0.5481580000000  0.4114530000000 1.0
C      1  0.5489090000000  0.6240750000000  0.4758510000000 1.0
C      1  0.4553650000000  0.6246650000000  0.5261370000000 1.0
C      1  0.5481520000000  0.6219620000000  0.5248500000000 1.0
C      1  0.4548070000000  0.6248790000000  0.4772730000000 1.0
C      1  0.4702720000000  0.4802950000000  0.5899020000000 1.0
C      1  0.5319090000000  0.4838610000000  0.4017870000000 1.0
C      1  0.4694630000000  0.4912370000000  0.4110650000000 1.0
C      1  0.5297430000000  0.4899920000000  0.5739690000000 1.0
C      1  0.4499100000000  0.4961220000000  0.5204550000000 1.0
C      1  0.5377970000000  0.4868270000000  0.4755310000000 1.0
C      1  0.4516990000000  0.4913590000000  0.4746740000000 1.0
C      1  0.5430230000000  0.4954200000000  0.5212720000000 1.0
C      1  0.5176290000000  0.4679080000000  0.4779010000000 1.0
C      1  0.4744270000000  0.4854110000000  0.5225170000000 1.0
C      1  0.5206140000000  0.4804490000000  0.5272070000000 1.0
C      1  0.4720110000000  0.4757920000000  0.4764210000000 1.0
C      1  0.4560830000000  0.4560610000000  0.4388980000000 1.0
C      1  0.5444590000000  0.4496100000000  0.5549900000000 1.0
C      1  0.4551740000000  0.4479990000000  0.5555570000000 1.0
C      1  0.5444040000000  0.4543340000000  0.4394520000000 1.0
C      1  0.5956510000000  0.4784490000000  0.4317360000000 1.0
C      1  0.4065680000000  0.4769260000000  0.5618040000000 1.0
C      1  0.5934350000000  0.4813250000000  0.5590640000000 1.0
C      1  0.4042800000000  0.4815830000000  0.4322500000000 1.0
C      1  0.4290510000000  0.5839120000000  0.5558280000000 1.0
C      1  0.5692030000000  0.5817040000000  0.4446900000000 1.0
C      1  0.4306570000000  0.5839490000000  0.4470990000000 1.0
C      1  0.5720230000000  0.5818800000000  0.5507980000000 1.0
C      1  0.5721580000000  0.5685310000000  0.4717540000000 1.0
C      1  0.4274580000000  0.5718260000000  0.5279720000000 1.0
C      1  0.5738610000000  0.5681520000000  0.5239730000000 1.0
C      1  0.4290640000000  0.5715240000000  0.4746980000000 1.0
C      1  0.4335190000000  0.5235650000000  0.4135920000000 1.0
C      1  0.5667090000000  0.5217730000000  0.5803940000000 1.0
C      1  0.4371840000000  0.5187840000000  0.5814850000000 1.0
C      1  0.5648550000000  0.5199580000000  0.4138910000000 1.0
C      1  0.4745780000000  0.4663290000000  0.5651860000000 1.0
C      1  0.5262880000000  0.4718870000000  0.4264630000000 1.0
C      1  0.4762610000000  0.4722880000000  0.4295450000000 1.0
C      1  0.5225080000000  0.4691740000000  0.5542710000000 1.0
C      1  0.5431100000000  0.5082640000000  0.5903620000000 1.0
C      1  0.4565360000000  0.5129900000000  0.3999910000000 1.0
C      1  0.5418320000000  0.5099630000000  0.3999000000000 1.0
C      1  0.4592360000000  0.5059030000000  0.5946770000000 1.0
C      1  0.5275390000000  0.5173920000000  0.6125070000000 1.0
C      1  0.4728620000000  0.5273350000000  0.3816520000000 1.0
C      1  0.5246840000000  0.5269710000000  0.3845330000000 1.0
C      1  0.4757170000000  0.5204440000000  0.6135320000000 1.0
C      1  0.5018860000000  0.6146010000000  0.4579020000000 1.0
C      1  0.5023380000000  0.6304190000000  0.5497600000000 1.0
C      1  0.4985630000000  0.5352240000000  0.5734300000000 1.0
C      1  0.4978620000000  0.5263120000000  0.4366850000000 1.0
C      1  0.5028710000000  0.4305380000000  0.5860090000000 1.0
C      1  0.5001160000000  0.4298430000000  0.4147560000000 1.0
C      1  0.5948760000000  0.4700930000000  0.5086520000000 1.0
C      1  0.3956920000000  0.4630110000000  0.5123040000000 1.0
C      1  0.4506340000000  0.4044240000000  0.4905690000000 1.0
C      1  0.5453650000000  0.4041110000000  0.4994170000000 1.0
C      1  0.5009230000000  0.4064980000000  0.4397710000000 1.0
C      1  0.5109000000000  0.4010930000000  0.5719620000000 1.0
C      1  0.5018610000000  0.5867610000000  0.4710330000000 1.0
C      1  0.5014390000000  0.5733800000000  0.5205820000000 1.0
C      1  0.4989180000000  0.5531250000000  0.4267980000000 1.0
C      1  0.5015190000000  0.5631630000000  0.5753160000000 1.0
C      1  0.5795350000000  0.4894710000000  0.4945980000000 1.0
C      1  0.4131360000000  0.4772610000000  0.4961170000000 1.0
C      1  0.5165010000000  0.4100080000000  0.5428810000000 1.0
C      1  0.5003990000000  0.4224780000000  0.4663310000000 1.0
C      1  0.4919940000000  0.5170880000000  0.5559430000000 1.0
C      1  0.4965970000000  0.5112110000000  0.4588250000000 1.0
C      1  0.5534580000000  0.5048210000000  0.4949670000000 1.0
C      1  0.4350740000000  0.4937090000000  0.4966940000000 1.0
C      1  0.4991550000000  0.5314240000000  0.3771200000000 1.0
C      1  0.5019980000000  0.5219580000000  0.6202600000000 1.0
C      1  0.6085460000000  0.5495420000000  0.4965430000000 1.0
C      1  0.3954280000000  0.5491940000000  0.5003850000000 1.0
C      1  0.4438110000000  0.6146630000000  0.5017420000000 1.0
C      1  0.5585230000000  0.6120410000000  0.4999030000000 1.0
C      1  0.5416810000000  0.5345460000000  0.4965460000000 1.0
C      1  0.4653640000000  0.5486900000000  0.5020080000000 1.0
C      1  0.5582430000000  0.3801620000000  0.4949130000000 1.0
C      1  0.4406680000000  0.3795890000000  0.4850650000000 1.0
C      1  0.4997640000000  0.4519750000000  0.5615320000000 1.0
C      1  0.5010260000000  0.4587500000000  0.4323250000000 1.0
C      1  0.4936580000000  0.5478710000000  0.5061540000000 1.0
C      1  0.5115150000000  0.5283310000000  0.4992000000000 1.0
C      1  0.6022830000000  0.4433090000000  0.5030060000000 1.0
C      1  0.3918670000000  0.4359850000000  0.5043440000000 1.0
C      1  0.5722120000000  0.5862710000000  0.4982550000000 1.0
C      1  0.4275480000000  0.5897800000000  0.5013470000000 1.0
C      1  0.5050060000000  0.4507050000000  0.4609770000000 1.0
C      1  0.4994240000000  0.4328710000000  0.5381330000000 1.0
C      1  0.6261390000000  0.5069300000000  0.4959800000000 1.0
C      1  0.3771190000000  0.5077970000000  0.4987190000000 1.0
C      1  0.5026680000000  0.6492700000000  0.5010780000000 1.0
C      1  0.5029910000000  0.5947370000000  0.5001210000000 1.0
C      1  0.4960240000000  0.3907250000000  0.5029430000000 1.0
C      1  0.4950970000000  0.4401670000000  0.5120640000000 1.0
C      1  0.4975090000000  0.3386720000000  0.5102490000000 1.0
C      1  0.5029540000000  0.6752240000000  0.4985350000000 1.0
C      1  0.4978910000000  0.4753010000000  0.5059820000000 1.0
C      1  0.4964000000000  0.3644350000000  0.5064630000000 1.0
C      1  0.4974030000000  0.4178000000000  0.4950940000000 1.0
C      1  0.5025520000000  0.6226770000000  0.5040610000000 1.0
C      1  0.5006910000000  0.5069420000000  0.4863940000000 1.0
END
