TITL C-3201373-1215-2258 -1.19169115120342e-06 125000 -904.87213757824 0 0 138 (C1) n - 1
REM
REM in /home/nfs/bkarasulu/CARBON/AIRSS/Generating-Clusters/LCBOP/Higher-Symm/SD-CG/FIRE-CG
REM
REM
REM
REM
REM
REM ./C.cell (b20cbc046b6831c77cfcea5457e17084)
REM AIRSS Version 0.9.1 bugfix July 2018 build 013d7b7c2542+ Fri, 06 Jul 2018 19:26:36 +0100
REM compiler GCC version 9.2.1 20190827 (Red Hat 9.2.1-1)
REM options -cpp -mtune=generic -march=x86-64 -g -O0 -fpre-include=/usr/include/finclude/math-vector-fortran.h
REM seed 1201774552 1005204631 -795754083 -1398098974 1415435994 -1308836252 -1878827942 1615435476 -1017804076 111684310 -514282922 1709622763 1599910291 -1782334840 -480016691 -1668491553 1057553873 1529778031 1499861280 1075741061 -1037253520 43740557 -435227490 -518208960 -1895805658 1370017174 469333925 -2120177307 1985967416 -229866875 -1949498586 -340490410 -1318517496
REM
CELL 1.54180   50.00000   50.00000   50.00000   90.00000   90.00000   90.00000
LATT -1
SFAC C  
C      1  0.5427810000000  0.4127300000000  0.4952330000000 1.0
C      1  0.4956790000000  0.5414670000000  0.4161780000000 1.0
C      1  0.4137660000000  0.4955300000000  0.5430530000000 1.0
C      1  0.4496230000000  0.4090830000000  0.5063590000000 1.0
C      1  0.5467560000000  0.5866720000000  0.5057730000000 1.0
C      1  0.4518130000000  0.5838700000000  0.4951520000000 1.0
C      1  0.5061000000000  0.5513250000000  0.5876390000000 1.0
C      1  0.4946300000000  0.4561030000000  0.5829710000000 1.0
C      1  0.5077810000000  0.4490630000000  0.4088470000000 1.0
C      1  0.5883740000000  0.4943760000000  0.4557660000000 1.0
C      1  0.4073490000000  0.5069340000000  0.4493830000000 1.0
C      1  0.5888380000000  0.5077020000000  0.5506300000000 1.0
C      1  0.4941730000000  0.4136890000000  0.5441690000000 1.0
C      1  0.4126700000000  0.5446700000000  0.4956680000000 1.0
C      1  0.5460550000000  0.4938720000000  0.4146230000000 1.0
C      1  0.5053240000000  0.4125800000000  0.4497970000000 1.0
C      1  0.5084500000000  0.5925720000000  0.5509780000000 1.0
C      1  0.4960000000000  0.5824300000000  0.4582410000000 1.0
C      1  0.5875340000000  0.5454850000000  0.5059280000000 1.0
C      1  0.5864710000000  0.4493470000000  0.4941810000000 1.0
C      1  0.4135980000000  0.4503770000000  0.5046200000000 1.0
C      1  0.4505090000000  0.4931910000000  0.5864710000000 1.0
C      1  0.4488190000000  0.5053530000000  0.4125510000000 1.0
C      1  0.5436310000000  0.5051700000000  0.5862990000000 1.0
C      1  0.4118450000000  0.4778940000000  0.4995450000000 1.0
C      1  0.4989470000000  0.4144420000000  0.4775350000000 1.0
C      1  0.4765170000000  0.4982070000000  0.4134260000000 1.0
C      1  0.5895500000000  0.4772700000000  0.4987330000000 1.0
C      1  0.3965370000000  0.5205090000000  0.4972760000000 1.0
C      1  0.6035250000000  0.5207590000000  0.5038740000000 1.0
C      1  0.4961540000000  0.3975690000000  0.5200140000000 1.0
C      1  0.5118560000000  0.6106700000000  0.5289090000000 1.0
C      1  0.4998180000000  0.5927990000000  0.4854990000000 1.0
C      1  0.5157270000000  0.5017240000000  0.5949290000000 1.0
C      1  0.4703740000000  0.4897080000000  0.6065470000000 1.0
C      1  0.5210690000000  0.4961290000000  0.3993490000000 1.0
C      1  0.5116440000000  0.4704510000000  0.3901750000000 1.0
C      1  0.4703030000000  0.3896680000000  0.5100140000000 1.0
C      1  0.3885720000000  0.5106820000000  0.4710250000000 1.0
C      1  0.4964850000000  0.4800310000000  0.5993980000000 1.0
C      1  0.4987460000000  0.5141400000000  0.4057810000000 1.0
C      1  0.5007680000000  0.5234040000000  0.5844280000000 1.0
C      1  0.5150190000000  0.4039010000000  0.4984490000000 1.0
C      1  0.5216050000000  0.6013550000000  0.5033740000000 1.0
C      1  0.4792000000000  0.5833330000000  0.5025990000000 1.0
C      1  0.6089470000000  0.5104420000000  0.5304290000000 1.0
C      1  0.6006140000000  0.4989230000000  0.4829860000000 1.0
C      1  0.4026820000000  0.4988010000000  0.5164450000000 1.0
C      1  0.5047390000000  0.4776470000000  0.4491970000000 1.0
C      1  0.4535370000000  0.5023800000000  0.4809560000000 1.0
C      1  0.4859810000000  0.4517760000000  0.5087960000000 1.0
C      1  0.5132010000000  0.4843100000000  0.5343660000000 1.0
C      1  0.5158490000000  0.5305180000000  0.5407720000000 1.0
C      1  0.4945500000000  0.5193730000000  0.4622700000000 1.0
C      1  0.5515930000000  0.5108130000000  0.5155260000000 1.0
C      1  0.4670490000000  0.4938560000000  0.5252230000000 1.0
C      1  0.5391670000000  0.5053070000000  0.4713470000000 1.0
C      1  0.5249400000000  0.4646690000000  0.4906720000000 1.0
C      1  0.4754390000000  0.5373290000000  0.5026850000000 1.0
C      1  0.5212770000000  0.5431420000000  0.4955740000000 1.0
C      1  0.4643260000000  0.4674100000000  0.5161400000000 1.0
C      1  0.4707280000000  0.5039280000000  0.4596080000000 1.0
C      1  0.5063930000000  0.4592040000000  0.4696580000000 1.0
C      1  0.5458300000000  0.4809140000000  0.4845960000000 1.0
C      1  0.5422450000000  0.5254070000000  0.4918730000000 1.0
C      1  0.4618100000000  0.5135210000000  0.5056760000000 1.0
C      1  0.5310900000000  0.5070880000000  0.5338470000000 1.0
C      1  0.5170100000000  0.5035190000000  0.4552180000000 1.0
C      1  0.4879280000000  0.4961270000000  0.5436200000000 1.0
C      1  0.5118340000000  0.4634200000000  0.5160030000000 1.0
C      1  0.4966010000000  0.5363420000000  0.4830220000000 1.0
C      1  0.5122910000000  0.5508620000000  0.5222500000000 1.0
C      1  0.4264260000000  0.5499170000000  0.4696940000000 1.0
C      1  0.4687180000000  0.4276350000000  0.5499240000000 1.0
C      1  0.5524170000000  0.4679040000000  0.4277720000000 1.0
C      1  0.5732200000000  0.5521540000000  0.5319850000000 1.0
C      1  0.4251140000000  0.4455100000000  0.5307450000000 1.0
C      1  0.5732840000000  0.4441730000000  0.4684110000000 1.0
C      1  0.5319460000000  0.4239540000000  0.4451600000000 1.0
C      1  0.4698440000000  0.5695170000000  0.4505510000000 1.0
C      1  0.5335880000000  0.5765560000000  0.5553560000000 1.0
C      1  0.4469480000000  0.4692740000000  0.5698130000000 1.0
C      1  0.5517820000000  0.5324790000000  0.5753550000000 1.0
C      1  0.4451020000000  0.5310930000000  0.4261420000000 1.0
C      1  0.4692500000000  0.5492680000000  0.4286400000000 1.0
C      1  0.5510660000000  0.4244140000000  0.4684000000000 1.0
C      1  0.4259780000000  0.4688980000000  0.5496090000000 1.0
C      1  0.5330040000000  0.5564710000000  0.5766230000000 1.0
C      1  0.5325720000000  0.4452150000000  0.4254300000000 1.0
C      1  0.4692220000000  0.4497590000000  0.5691810000000 1.0
C      1  0.4458940000000  0.4253520000000  0.5309560000000 1.0
C      1  0.4471000000000  0.5704310000000  0.4697990000000 1.0
C      1  0.5531170000000  0.5739520000000  0.5321350000000 1.0
C      1  0.5738860000000  0.4675680000000  0.4487530000000 1.0
C      1  0.5729350000000  0.5323390000000  0.5546580000000 1.0
C      1  0.4247310000000  0.5310360000000  0.4467650000000 1.0
C      1  0.4220370000000  0.5196180000000  0.5568050000000 1.0
C      1  0.5566740000000  0.4196140000000  0.5197390000000 1.0
C      1  0.5199190000000  0.5551610000000  0.4238520000000 1.0
C      1  0.5795850000000  0.5188530000000  0.4427020000000 1.0
C      1  0.4160070000000  0.4793870000000  0.4396190000000 1.0
C      1  0.5781720000000  0.4814000000000  0.5578830000000 1.0
C      1  0.4411100000000  0.4181460000000  0.4792430000000 1.0
C      1  0.5590180000000  0.5777930000000  0.4811660000000 1.0
C      1  0.4384680000000  0.5797730000000  0.5208140000000 1.0
C      1  0.4800610000000  0.5631740000000  0.5800070000000 1.0
C      1  0.5189470000000  0.4431590000000  0.5755480000000 1.0
C      1  0.4799560000000  0.4404400000000  0.4171150000000 1.0
C      1  0.5589060000000  0.5183350000000  0.4227840000000 1.0
C      1  0.5186360000000  0.4219020000000  0.5566290000000 1.0
C      1  0.4196970000000  0.5581360000000  0.5205000000000 1.0
C      1  0.4425800000000  0.5196010000000  0.5770510000000 1.0
C      1  0.4360620000000  0.4790370000000  0.4183730000000 1.0
C      1  0.5569790000000  0.4810420000000  0.5774490000000 1.0
C      1  0.4793960000000  0.4191570000000  0.4370080000000 1.0
C      1  0.4807880000000  0.5837050000000  0.5594470000000 1.0
C      1  0.5200550000000  0.5753350000000  0.4441670000000 1.0
C      1  0.5793350000000  0.5575910000000  0.4810690000000 1.0
C      1  0.5779560000000  0.4386490000000  0.5200090000000 1.0
C      1  0.4198410000000  0.4377820000000  0.4788270000000 1.0
C      1  0.5443860000000  0.5421910000000  0.4176990000000 1.0
C      1  0.4151500000000  0.5439970000000  0.5444370000000 1.0
C      1  0.5427400000000  0.4146780000000  0.5438110000000 1.0
C      1  0.4572090000000  0.5444850000000  0.5822860000000 1.0
C      1  0.5430250000000  0.4567230000000  0.5814650000000 1.0
C      1  0.4544570000000  0.4556350000000  0.4133300000000 1.0
C      1  0.5844530000000  0.5430680000000  0.4570490000000 1.0
C      1  0.4133450000000  0.4544000000000  0.4552150000000 1.0
C      1  0.5822670000000  0.4567970000000  0.5426880000000 1.0
C      1  0.4561990000000  0.4144030000000  0.4544800000000 1.0
C      1  0.5444030000000  0.5820190000000  0.4571560000000 1.0
C      1  0.4556090000000  0.5869260000000  0.5440650000000 1.0
C      1  0.4792790000000  0.4854650000000  0.4390560000000 1.0
C      1  0.4315470000000  0.4864850000000  0.4819440000000 1.0
C      1  0.4887750000000  0.4403510000000  0.4828630000000 1.0
C      1  0.5639080000000  0.4871990000000  0.5057650000000 1.0
C      1  0.4850590000000  0.5597840000000  0.5177800000000 1.0
C      1  0.4945250000000  0.5198270000000  0.5572070000000 1.0
END
