TITL C-3201378-2706-1183 -3.37895934858103e-07 125000 -399.720856685104 0 0 66 (C1) n - 1
REM
REM in /home/nfs/bkarasulu/CARBON/AIRSS/Generating-Clusters/LCBOP/Higher-Symm/SD-CG/FIRE-CG
REM
REM
REM
REM
REM
REM ./C.cell (b20cbc046b6831c77cfcea5457e17084)
REM AIRSS Version 0.9.1 bugfix July 2018 build 013d7b7c2542+ Fri, 06 Jul 2018 19:26:36 +0100
REM compiler GCC version 9.2.1 20190827 (Red Hat 9.2.1-1)
REM options -cpp -mtune=generic -march=x86-64 -g -O0 -fpre-include=/usr/include/finclude/math-vector-fortran.h
REM seed -2022020973 -1083294801 1643870667 -1252018915 -1070864346 -164028635 444885090 173031877 -661558200 -1252662447 -220085451 -769665208 904976190 130529864 761861047 953806043 915607476 -1456466521 -578717358 1787935755 378615971 1659047406 -1028493188 241805408 239772838 1380275355 445529415 -1577158364 1601752284 357018446 458882888 677387604 -807025183
REM
CELL 1.54180   50.00000   50.00000   50.00000   90.00000   90.00000   90.00000
LATT -1
SFAC C  
C      1  0.5135720000000  0.3968140000000  0.5257820000000 1.0
C      1  0.5280780000000  0.6054160000000  0.5044710000000 1.0
C      1  0.5259190000000  0.4165240000000  0.4864060000000 1.0
C      1  0.5036990000000  0.5840030000000  0.4730210000000 1.0
C      1  0.4862920000000  0.3984740000000  0.4731310000000 1.0
C      1  0.4687790000000  0.6053370000000  0.4926610000000 1.0
C      1  0.4774940000000  0.4206730000000  0.5120040000000 1.0
C      1  0.4925460000000  0.5924270000000  0.5292430000000 1.0
C      1  0.4694780000000  0.5608370000000  0.4285310000000 1.0
C      1  0.4254870000000  0.4248970000000  0.4584800000000 1.0
C      1  0.4280800000000  0.5637560000000  0.5317510000000 1.0
C      1  0.4648550000000  0.4412030000000  0.5663560000000 1.0
C      1  0.5314890000000  0.5623280000000  0.5705000000000 1.0
C      1  0.5748680000000  0.4217720000000  0.5415710000000 1.0
C      1  0.5759620000000  0.5698910000000  0.4692230000000 1.0
C      1  0.5363560000000  0.4430530000000  0.4338540000000 1.0
C      1  0.5131840000000  0.4413420000000  0.5491050000000 1.0
C      1  0.5376570000000  0.5587870000000  0.5206540000000 1.0
C      1  0.5576350000000  0.4469680000000  0.5023910000000 1.0
C      1  0.5323010000000  0.5491440000000  0.4586850000000 1.0
C      1  0.4877690000000  0.4436190000000  0.4510030000000 1.0
C      1  0.4574080000000  0.5593230000000  0.4774860000000 1.0
C      1  0.4434940000000  0.4493150000000  0.4976970000000 1.0
C      1  0.4755110000000  0.5500780000000  0.5386690000000 1.0
C      1  0.4232030000000  0.4401110000000  0.4806030000000 1.0
C      1  0.4476300000000  0.5487600000000  0.5427130000000 1.0
C      1  0.4916280000000  0.4428180000000  0.5672390000000 1.0
C      1  0.5450430000000  0.5562470000000  0.5480220000000 1.0
C      1  0.5774890000000  0.4375050000000  0.5198600000000 1.0
C      1  0.5594740000000  0.5548110000000  0.4541650000000 1.0
C      1  0.5096220000000  0.4449900000000  0.4332500000000 1.0
C      1  0.4529440000000  0.5582650000000  0.4496050000000 1.0
C      1  0.5537630000000  0.4375200000000  0.4535860000000 1.0
C      1  0.4960420000000  0.5653110000000  0.4290890000000 1.0
C      1  0.4479680000000  0.4151530000000  0.4473050000000 1.0
C      1  0.4293440000000  0.5805200000000  0.5106610000000 1.0
C      1  0.4478400000000  0.4370710000000  0.5459320000000 1.0
C      1  0.5058550000000  0.5707180000000  0.5711130000000 1.0
C      1  0.5522280000000  0.4118700000000  0.5522760000000 1.0
C      1  0.5700740000000  0.5824210000000  0.4923090000000 1.0
C      1  0.4662000000000  0.4930500000000  0.5026630000000 1.0
C      1  0.4812880000000  0.5001090000000  0.5250720000000 1.0
C      1  0.5066890000000  0.4917110000000  0.5335160000000 1.0
C      1  0.5268510000000  0.5087640000000  0.5201860000000 1.0
C      1  0.5352860000000  0.4907010000000  0.4975100000000 1.0
C      1  0.5213130000000  0.5018020000000  0.4743230000000 1.0
C      1  0.4944740000000  0.4940460000000  0.4666570000000 1.0
C      1  0.4736200000000  0.5111120000000  0.4802390000000 1.0
C      1  0.4883260000000  0.5371790000000  0.5154780000000 1.0
C      1  0.5190760000000  0.4643450000000  0.5331680000000 1.0
C      1  0.5195700000000  0.5367970000000  0.5094480000000 1.0
C      1  0.5384900000000  0.4656760000000  0.5110000000000 1.0
C      1  0.5246440000000  0.5309020000000  0.4786520000000 1.0
C      1  0.4818490000000  0.4666620000000  0.4668260000000 1.0
C      1  0.4726610000000  0.5382360000000  0.4894370000000 1.0
C      1  0.4623180000000  0.4682260000000  0.4888670000000 1.0
C      1  0.5253070000000  0.4153110000000  0.5446170000000 1.0
C      1  0.5463170000000  0.5831950000000  0.5074250000000 1.0
C      1  0.5487530000000  0.4315250000000  0.4805180000000 1.0
C      1  0.5124690000000  0.5679990000000  0.4517160000000 1.0
C      1  0.4749900000000  0.4178220000000  0.4549400000000 1.0
C      1  0.4498510000000  0.5834680000000  0.4915210000000 1.0
C      1  0.4534800000000  0.4334040000000  0.5187120000000 1.0
C      1  0.4890440000000  0.5727530000000  0.5487090000000 1.0
C      1  0.5006800000000  0.4061240000000  0.4993250000000 1.0
C      1  0.4983250000000  0.5990070000000  0.4996040000000 1.0
END
