TITL C-3201372-1405-371 -12732.2994567821 125000 -1038.15735350734 0 0 171 (C1) n - 1
REM
REM in /home/nfs/bkarasulu/CARBON/AIRSS/Generating-Clusters/LCBOP/Higher-Symm/SD-CG/FIRE-CG
REM
REM
REM
REM
REM
REM ./C.cell (b20cbc046b6831c77cfcea5457e17084)
REM AIRSS Version 0.9.1 bugfix July 2018 build 013d7b7c2542+ Fri, 06 Jul 2018 19:26:36 +0100
REM compiler GCC version 9.2.1 20190827 (Red Hat 9.2.1-1)
REM options -cpp -mtune=generic -march=x86-64 -g -O0 -fpre-include=/usr/include/finclude/math-vector-fortran.h
REM seed 822258458 -1842807721 1888169111 -1305092302 -792705017 266612904 736405029 -1084563725 1980372679 -1162562886 1242549477 1113473941 291109253 -1833728832 1363095837 -2085157215 555672008 2001362002 490855666 204672970 -2137302735 1404765099 -894404195 1847888802 -835085048 1630923695 -809262483 1282841984 510568023 -114482837 1437974319 1322265918 -1283683472
REM
CELL 1.54180   50.00000   50.00000   50.00000   90.00000   90.00000   90.00000
LATT -1
SFAC C  
C      1  0.5813890000000  0.6148060000000  0.5710180000000 1.0
C      1  0.5446130000000  0.3766230000000  0.5867890000000 1.0
C      1  0.3886410000000  0.5076090000000  0.5812990000000 1.0
C      1  0.5885300000000  0.6052290000000  0.4215310000000 1.0
C      1  0.5594290000000  0.4000600000000  0.4208940000000 1.0
C      1  0.3336260000000  0.5288690000000  0.4578040000000 1.0
C      1  0.4255330000000  0.5910710000000  0.5708320000000 1.0
C      1  0.4414720000000  0.3670380000000  0.5743680000000 1.0
C      1  0.6269910000000  0.5222120000000  0.5868910000000 1.0
C      1  0.3852940000000  0.6229230000000  0.4559160000000 1.0
C      1  0.4682760000000  0.3897970000000  0.4155310000000 1.0
C      1  0.6283110000000  0.5094760000000  0.4212320000000 1.0
C      1  0.4936150000000  0.3780450000000  0.4746250000000 1.0
C      1  0.4092250000000  0.5645650000000  0.4575230000000 1.0
C      1  0.6148090000000  0.5422940000000  0.4749520000000 1.0
C      1  0.4862120000000  0.3725400000000  0.5280210000000 1.0
C      1  0.4040250000000  0.5650710000000  0.5158620000000 1.0
C      1  0.6151900000000  0.5501100000000  0.5300340000000 1.0
C      1  0.5202250000000  0.3794210000000  0.4745140000000 1.0
C      1  0.6040360000000  0.5666460000000  0.4722050000000 1.0
C      1  0.3951890000000  0.5416670000000  0.4581460000000 1.0
C      1  0.5127030000000  0.3740770000000  0.5308130000000 1.0
C      1  0.6028520000000  0.5734640000000  0.5262650000000 1.0
C      1  0.3919070000000  0.5414220000000  0.5202170000000 1.0
C      1  0.4685250000000  0.4881590000000  0.5967590000000 1.0
C      1  0.4743930000000  0.5374780000000  0.5910860000000 1.0
C      1  0.5144510000000  0.5092560000000  0.5980220000000 1.0
C      1  0.4923950000000  0.4610200000000  0.4041940000000 1.0
C      1  0.5011250000000  0.5077960000000  0.3909300000000 1.0
C      1  0.5398080000000  0.4785720000000  0.4047830000000 1.0
C      1  0.4975410000000  0.4859360000000  0.5979270000000 1.0
C      1  0.5026890000000  0.5348100000000  0.5954520000000 1.0
C      1  0.4539560000000  0.5156120000000  0.5933490000000 1.0
C      1  0.5216770000000  0.4531880000000  0.4064150000000 1.0
C      1  0.5292870000000  0.5038630000000  0.3961750000000 1.0
C      1  0.4827920000000  0.4872560000000  0.3971650000000 1.0
C      1  0.4799730000000  0.4286960000000  0.5308920000000 1.0
C      1  0.4522980000000  0.5477400000000  0.5056550000000 1.0
C      1  0.5695280000000  0.5203240000000  0.5170290000000 1.0
C      1  0.4803210000000  0.4343200000000  0.4802020000000 1.0
C      1  0.4628970000000  0.5661650000000  0.4483760000000 1.0
C      1  0.5646830000000  0.5215620000000  0.4846740000000 1.0
C      1  0.5124750000000  0.4288220000000  0.5220670000000 1.0
C      1  0.5530330000000  0.5493750000000  0.5246660000000 1.0
C      1  0.4382740000000  0.5225780000000  0.5006760000000 1.0
C      1  0.5071870000000  0.4352120000000  0.4916490000000 1.0
C      1  0.5551690000000  0.5462920000000  0.4712960000000 1.0
C      1  0.4280260000000  0.5104450000000  0.4766620000000 1.0
C      1  0.4595370000000  0.4129570000000  0.4855850000000 1.0
C      1  0.4535780000000  0.5862050000000  0.4695350000000 1.0
C      1  0.6078390000000  0.4960310000000  0.4922350000000 1.0
C      1  0.4578390000000  0.4116640000000  0.5173390000000 1.0
C      1  0.4506920000000  0.5778620000000  0.5009470000000 1.0
C      1  0.5969980000000  0.5051060000000  0.5198230000000 1.0
C      1  0.5543860000000  0.4090380000000  0.4932630000000 1.0
C      1  0.5562130000000  0.5751870000000  0.4809840000000 1.0
C      1  0.4009990000000  0.4967590000000  0.4798180000000 1.0
C      1  0.5412270000000  0.4136200000000  0.5207080000000 1.0
C      1  0.5554170000000  0.5775640000000  0.5121060000000 1.0
C      1  0.3933270000000  0.4924670000000  0.5097730000000 1.0
C      1  0.5030780000000  0.3636230000000  0.6145730000000 1.0
C      1  0.4291430000000  0.5262760000000  0.6078410000000 1.0
C      1  0.6027650000000  0.5881530000000  0.6096530000000 1.0
C      1  0.5268900000000  0.4272820000000  0.3910970000000 1.0
C      1  0.3249970000000  0.5794450000000  0.4515070000000 1.0
C      1  0.6088110000000  0.5724640000000  0.3874930000000 1.0
C      1  0.4767880000000  0.3609490000000  0.6114420000000 1.0
C      1  0.6142290000000  0.5644760000000  0.6136590000000 1.0
C      1  0.4267270000000  0.5547330000000  0.6086480000000 1.0
C      1  0.5040500000000  0.4116810000000  0.3846040000000 1.0
C      1  0.6185330000000  0.5477000000000  0.3877590000000 1.0
C      1  0.3378670000000  0.6027300000000  0.4512150000000 1.0
C      1  0.5155580000000  0.5223180000000  0.5219520000000 1.0
C      1  0.5124790000000  0.4750390000000  0.5266590000000 1.0
C      1  0.4739020000000  0.4986720000000  0.5160460000000 1.0
C      1  0.5153390000000  0.5249940000000  0.4633600000000 1.0
C      1  0.5103610000000  0.4799240000000  0.4786810000000 1.0
C      1  0.4724710000000  0.5055090000000  0.4626550000000 1.0
C      1  0.4887860000000  0.5220690000000  0.5173000000000 1.0
C      1  0.4850820000000  0.4751140000000  0.5239910000000 1.0
C      1  0.5277040000000  0.4978270000000  0.5252910000000 1.0
C      1  0.4884300000000  0.5274280000000  0.4570320000000 1.0
C      1  0.4837510000000  0.4812070000000  0.4713030000000 1.0
C      1  0.5260170000000  0.5017620000000  0.4738460000000 1.0
C      1  0.4258810000000  0.5837110000000  0.5185490000000 1.0
C      1  0.6149180000000  0.5225460000000  0.5363290000000 1.0
C      1  0.4605330000000  0.3843180000000  0.5293680000000 1.0
C      1  0.4239140000000  0.5889570000000  0.4615290000000 1.0
C      1  0.6173130000000  0.5142060000000  0.4724260000000 1.0
C      1  0.4687520000000  0.3898980000000  0.4683340000000 1.0
C      1  0.5794670000000  0.5893990000000  0.5258630000000 1.0
C      1  0.3879600000000  0.5142540000000  0.5278450000000 1.0
C      1  0.5362110000000  0.3885970000000  0.5368880000000 1.0
C      1  0.5821050000000  0.5844380000000  0.4685810000000 1.0
C      1  0.3831910000000  0.5165460000000  0.4653890000000 1.0
C      1  0.5447850000000  0.3928020000000  0.4720060000000 1.0
C      1  0.5005750000000  0.5498180000000  0.4172640000000 1.0
C      1  0.5586570000000  0.4759590000000  0.4528560000000 1.0
C      1  0.4578500000000  0.4576510000000  0.4398060000000 1.0
C      1  0.4834300000000  0.5581650000000  0.5473890000000 1.0
C      1  0.5477490000000  0.4875210000000  0.5655140000000 1.0
C      1  0.4506890000000  0.4665920000000  0.5547900000000 1.0
C      1  0.5292050000000  0.5459780000000  0.4238530000000 1.0
C      1  0.4460350000000  0.4839010000000  0.4328900000000 1.0
C      1  0.5412070000000  0.4529340000000  0.4578450000000 1.0
C      1  0.5120470000000  0.5577500000000  0.5530460000000 1.0
C      1  0.4395930000000  0.4921750000000  0.5455320000000 1.0
C      1  0.5312180000000  0.4622720000000  0.5665910000000 1.0
C      1  0.4427600000000  0.3750340000000  0.5489550000000 1.0
C      1  0.4281100000000  0.5951690000000  0.5444090000000 1.0
C      1  0.6246100000000  0.5147140000000  0.5614180000000 1.0
C      1  0.4609310000000  0.3879990000000  0.4412150000000 1.0
C      1  0.4098370000000  0.6130100000000  0.4592410000000 1.0
C      1  0.6259130000000  0.5049370000000  0.4473520000000 1.0
C      1  0.5487970000000  0.3837200000000  0.5614360000000 1.0
C      1  0.5769010000000  0.6094740000000  0.5452740000000 1.0
C      1  0.3828670000000  0.5088570000000  0.5551700000000 1.0
C      1  0.5572560000000  0.3932230000000  0.4466700000000 1.0
C      1  0.5826490000000  0.6027400000000  0.4474180000000 1.0
C      1  0.3554950000000  0.5142090000000  0.4621650000000 1.0
C      1  0.5279430000000  0.5445480000000  0.5338800000000 1.0
C      1  0.5219180000000  0.4528820000000  0.5410260000000 1.0
C      1  0.4462090000000  0.5021460000000  0.5197730000000 1.0
C      1  0.5345750000000  0.5421020000000  0.4516360000000 1.0
C      1  0.5233040000000  0.4548780000000  0.4794720000000 1.0
C      1  0.4451870000000  0.5028040000000  0.4552430000000 1.0
C      1  0.4744190000000  0.5448380000000  0.5238210000000 1.0
C      1  0.4704860000000  0.4551570000000  0.5376810000000 1.0
C      1  0.5513030000000  0.4992590000000  0.5392640000000 1.0
C      1  0.4824480000000  0.5487440000000  0.4394930000000 1.0
C      1  0.4712050000000  0.4567260000000  0.4650040000000 1.0
C      1  0.5543480000000  0.4978830000000  0.4712540000000 1.0
C      1  0.3992560000000  0.4646530000000  0.5174610000000 1.0
C      1  0.5278870000000  0.5942180000000  0.5158150000000 1.0
C      1  0.5634160000000  0.4345060000000  0.5316060000000 1.0
C      1  0.4077330000000  0.4664920000000  0.4724480000000 1.0
C      1  0.5280190000000  0.5882600000000  0.4727150000000 1.0
C      1  0.5770110000000  0.4262690000000  0.4909790000000 1.0
C      1  0.5902280000000  0.4758610000000  0.5317810000000 1.0
C      1  0.4787840000000  0.5886360000000  0.5123390000000 1.0
C      1  0.4304950000000  0.4273190000000  0.5214530000000 1.0
C      1  0.6016180000000  0.4676120000000  0.4883420000000 1.0
C      1  0.4806990000000  0.6042500000000  0.4701430000000 1.0
C      1  0.4312290000000  0.4244090000000  0.4780660000000 1.0
C      1  0.4552640000000  0.4665090000000  0.5829720000000 1.0
C      1  0.4681500000000  0.5568060000000  0.5709980000000 1.0
C      1  0.5409180000000  0.5047440000000  0.5875190000000 1.0
C      1  0.4727620000000  0.4460470000000  0.4185380000000 1.0
C      1  0.4928150000000  0.5350060000000  0.3940660000000 1.0
C      1  0.5610180000000  0.4801820000000  0.4246180000000 1.0
C      1  0.5116220000000  0.4628470000000  0.5878690000000 1.0
C      1  0.5178230000000  0.5541890000000  0.5807000000000 1.0
C      1  0.4409160000000  0.5116300000000  0.5656450000000 1.0
C      1  0.5286640000000  0.4433210000000  0.4345880000000 1.0
C      1  0.5420200000000  0.5279550000000  0.4055490000000 1.0
C      1  0.4565090000000  0.4931510000000  0.4076640000000 1.0
C      1  0.4543720000000  0.3620400000000  0.5971300000000 1.0
C      1  0.4243320000000  0.5768720000000  0.5935670000000 1.0
C      1  0.6230080000000  0.5406510000000  0.6056850000000 1.0
C      1  0.4838510000000  0.3975920000000  0.3952170000000 1.0
C      1  0.3591950000000  0.6185600000000  0.4528820000000 1.0
C      1  0.6254960000000  0.5250470000000  0.3998430000000 1.0
C      1  0.5275980000000  0.3692820000000  0.6059120000000 1.0
C      1  0.5909360000000  0.6065370000000  0.5944680000000 1.0
C      1  0.4049990000000  0.5121590000000  0.6021660000000 1.0
C      1  0.5500700000000  0.4129020000000  0.3992390000000 1.0
C      1  0.5980660000000  0.5936320000000  0.3995310000000 1.0
C      1  0.3230620000000  0.5530040000000  0.4538600000000 1.0
C      1  0.5009570000000  0.5961060000000  0.4927510000000 1.0
C      1  0.5856990000000  0.4528780000000  0.5108950000000 1.0
C      1  0.4143490000000  0.4470810000000  0.4969480000000 1.0
END
