TITL C-3201373-1215-801 0.00471920869367402 125000 -506.690653088273 0 0 83 (C1) n - 1
REM
REM in /home/nfs/bkarasulu/CARBON/AIRSS/Generating-Clusters/LCBOP/Higher-Symm/SD-CG/FIRE-CG
REM
REM
REM
REM
REM
REM ./C.cell (b20cbc046b6831c77cfcea5457e17084)
REM AIRSS Version 0.9.1 bugfix July 2018 build 013d7b7c2542+ Fri, 06 Jul 2018 19:26:36 +0100
REM compiler GCC version 9.2.1 20190827 (Red Hat 9.2.1-1)
REM options -cpp -mtune=generic -march=x86-64 -g -O0 -fpre-include=/usr/include/finclude/math-vector-fortran.h
REM seed -243088178 -1298216913 581755481 -752979507 1064264431 1941824760 356904313 -1239954182 -1730922935 -1253836999 1661020966 -2068399475 1731547445 448916214 298465307 1566387128 1561730851 1121928472 506293863 156690447 -2040813205 -1694105755 -1906011922 720614681 -1264071757 1380796980 -1147629223 2082157906 1390133025 -2099012465 -209818690 1069235660 1459505915
REM
CELL 1.54180   50.00000   50.00000   50.00000   90.00000   90.00000   90.00000
LATT -1
SFAC C  
C      1  0.5567470000000  0.5526890000000  0.4828830000000 1.0
C      1  0.5763050000000  0.4692740000000  0.4392790000000 1.0
C      1  0.4316880000000  0.4880800000000  0.5726520000000 1.0
C      1  0.5856570000000  0.4051960000000  0.4739740000000 1.0
C      1  0.5016300000000  0.5611280000000  0.5221750000000 1.0
C      1  0.4186570000000  0.5022360000000  0.4787700000000 1.0
C      1  0.5118450000000  0.4095760000000  0.4836050000000 1.0
C      1  0.4971350000000  0.5065950000000  0.5564240000000 1.0
C      1  0.4518370000000  0.5582230000000  0.5416370000000 1.0
C      1  0.6168000000000  0.4656860000000  0.5336390000000 1.0
C      1  0.4999580000000  0.5927760000000  0.4294240000000 1.0
C      1  0.4528870000000  0.4677700000000  0.4708640000000 1.0
C      1  0.6382810000000  0.4502320000000  0.5269640000000 1.0
C      1  0.4776630000000  0.5632550000000  0.5368850000000 1.0
C      1  0.4257500000000  0.5806980000000  0.5093630000000 1.0
C      1  0.4129460000000  0.5101940000000  0.5343250000000 1.0
C      1  0.5244900000000  0.4914070000000  0.5210290000000 1.0
C      1  0.4786100000000  0.4999130000000  0.4162270000000 1.0
C      1  0.4910930000000  0.5207150000000  0.4760330000000 1.0
C      1  0.5195200000000  0.4345800000000  0.4733270000000 1.0
C      1  0.4275490000000  0.4572620000000  0.4855280000000 1.0
C      1  0.5401060000000  0.4644890000000  0.5939490000000 1.0
C      1  0.4955260000000  0.6087480000000  0.4093160000000 1.0
C      1  0.5662820000000  0.4215300000000  0.4678920000000 1.0
C      1  0.5325770000000  0.5069960000000  0.4308330000000 1.0
C      1  0.4358100000000  0.4472670000000  0.5112070000000 1.0
C      1  0.5030240000000  0.4716100000000  0.4477350000000 1.0
C      1  0.4762200000000  0.4609940000000  0.4902840000000 1.0
C      1  0.4797610000000  0.4763210000000  0.4317770000000 1.0
C      1  0.5203780000000  0.5517230000000  0.4464300000000 1.0
C      1  0.5261640000000  0.5996900000000  0.5063030000000 1.0
C      1  0.4795260000000  0.5019140000000  0.5773420000000 1.0
C      1  0.5179950000000  0.5387250000000  0.5289310000000 1.0
C      1  0.4279750000000  0.5581440000000  0.5266310000000 1.0
C      1  0.6087190000000  0.5077000000000  0.5646220000000 1.0
C      1  0.5026670000000  0.4346910000000  0.5390710000000 1.0
C      1  0.5345390000000  0.4497820000000  0.5724350000000 1.0
C      1  0.5258040000000  0.5180770000000  0.5100890000000 1.0
C      1  0.4196650000000  0.5286450000000  0.4901700000000 1.0
C      1  0.3950340000000  0.4682850000000  0.4522110000000 1.0
C      1  0.5423540000000  0.5148100000000  0.5945700000000 1.0
C      1  0.4914560000000  0.5237530000000  0.4152660000000 1.0
C      1  0.5292420000000  0.4808270000000  0.4411050000000 1.0
C      1  0.4089850000000  0.4582570000000  0.4313570000000 1.0
C      1  0.5508600000000  0.4633990000000  0.4475540000000 1.0
C      1  0.4249340000000  0.4614080000000  0.5331150000000 1.0
C      1  0.4955020000000  0.4032590000000  0.5040790000000 1.0
C      1  0.4438180000000  0.5407890000000  0.4787240000000 1.0
C      1  0.5410190000000  0.5293550000000  0.5705360000000 1.0
C      1  0.5259290000000  0.4493140000000  0.5456820000000 1.0
C      1  0.4639970000000  0.4389720000000  0.5091050000000 1.0
C      1  0.4416750000000  0.4347800000000  0.4044800000000 1.0
C      1  0.5162010000000  0.5303350000000  0.4274270000000 1.0
C      1  0.4358120000000  0.4516030000000  0.4252070000000 1.0
C      1  0.5675470000000  0.5557370000000  0.5072770000000 1.0
C      1  0.4660030000000  0.5905940000000  0.4788910000000 1.0
C      1  0.5002090000000  0.4556560000000  0.4718170000000 1.0
C      1  0.4973400000000  0.4911300000000  0.5320000000000 1.0
C      1  0.4799680000000  0.4825210000000  0.5116800000000 1.0
C      1  0.5896150000000  0.5259870000000  0.5672820000000 1.0
C      1  0.5042270000000  0.5751430000000  0.4507040000000 1.0
C      1  0.5340840000000  0.5426550000000  0.4697050000000 1.0
C      1  0.4473450000000  0.4973370000000  0.4714010000000 1.0
C      1  0.5657120000000  0.5375410000000  0.5580030000000 1.0
C      1  0.5075200000000  0.5800840000000  0.5014170000000 1.0
C      1  0.4067190000000  0.4760100000000  0.4767250000000 1.0
C      1  0.5426650000000  0.4894590000000  0.6030040000000 1.0
C      1  0.5674970000000  0.5519880000000  0.5337980000000 1.0
C      1  0.4565000000000  0.4626660000000  0.4413920000000 1.0
C      1  0.5168400000000  0.5279760000000  0.5554770000000 1.0
C      1  0.5916070000000  0.4615290000000  0.5220620000000 1.0
C      1  0.4423270000000  0.5920410000000  0.4913870000000 1.0
C      1  0.4548440000000  0.4946480000000  0.5841380000000 1.0
C      1  0.4842430000000  0.4228970000000  0.5210770000000 1.0
C      1  0.4926690000000  0.5812960000000  0.4766720000000 1.0
C      1  0.4166490000000  0.5331010000000  0.5181340000000 1.0
C      1  0.6189080000000  0.4864310000000  0.5523730000000 1.0
C      1  0.4635670000000  0.5208850000000  0.4726060000000 1.0
C      1  0.5388190000000  0.4678310000000  0.5273580000000 1.0
C      1  0.5456320000000  0.4397170000000  0.4629270000000 1.0
C      1  0.5652680000000  0.4636320000000  0.5196480000000 1.0
C      1  0.4210010000000  0.4859800000000  0.5467390000000 1.0
C      1  0.5180720000000  0.5238540000000  0.4838690000000 1.0
END
