TITL C-3201373-1215-668 -25818.3591715533 125000 -991.135181842924 0 0 161 (C1) n - 1
REM
REM in /home/nfs/bkarasulu/CARBON/AIRSS/Generating-Clusters/LCBOP/Higher-Symm/SD-CG/FIRE-CG
REM
REM
REM
REM
REM
REM ./C.cell (b20cbc046b6831c77cfcea5457e17084)
REM AIRSS Version 0.9.1 bugfix July 2018 build 013d7b7c2542+ Fri, 06 Jul 2018 19:26:36 +0100
REM compiler GCC version 9.2.1 20190827 (Red Hat 9.2.1-1)
REM options -cpp -mtune=generic -march=x86-64 -g -O0 -fpre-include=/usr/include/finclude/math-vector-fortran.h
REM seed 539032024 772673435 -521880742 419604908 1987239899 630214527 -46322878 -336732095 856108756 -70924921 -700163867 1566397234 -275045932 -710288769 1292420376 -1609543406 -919970186 1911668269 1664791628 155593884 -1095138367 1528209451 239701285 1008947123 1279367108 58062138 471187434 -400211226 -1389766256 -1769545773 -1138248256 1404562866 786531180
REM
CELL 1.54180   50.00000   50.00000   50.00000   90.00000   90.00000   90.00000
LATT -1
SFAC C  
C      1  0.4701690000000  0.4371680000000  0.5545950000000 1.0
C      1  0.4663890000000  0.4406610000000  0.4570740000000 1.0
C      1  0.5596840000000  0.4365620000000  0.4988530000000 1.0
C      1  0.4319410000000  0.5609490000000  0.5374160000000 1.0
C      1  0.4797250000000  0.5609040000000  0.4074370000000 1.0
C      1  0.6004370000000  0.5564300000000  0.5458710000000 1.0
C      1  0.4755010000000  0.4932480000000  0.4579430000000 1.0
C      1  0.5435860000000  0.4852940000000  0.4989410000000 1.0
C      1  0.4803820000000  0.4860760000000  0.5408430000000 1.0
C      1  0.6044290000000  0.4615960000000  0.5185700000000 1.0
C      1  0.4277160000000  0.4612290000000  0.5829440000000 1.0
C      1  0.4565920000000  0.4551710000000  0.3980820000000 1.0
C      1  0.5159470000000  0.3882340000000  0.5301310000000 1.0
C      1  0.4857830000000  0.3768690000000  0.4793280000000 1.0
C      1  0.5105410000000  0.3893540000000  0.4737890000000 1.0
C      1  0.5757210000000  0.5522330000000  0.4683780000000 1.0
C      1  0.5092240000000  0.5396940000000  0.5703030000000 1.0
C      1  0.4410450000000  0.5330490000000  0.4693080000000 1.0
C      1  0.5218270000000  0.5036980000000  0.4551330000000 1.0
C      1  0.5303820000000  0.5013610000000  0.5433130000000 1.0
C      1  0.4505400000000  0.4991420000000  0.5043550000000 1.0
C      1  0.4877500000000  0.4290590000000  0.5775670000000 1.0
C      1  0.4380820000000  0.4293350000000  0.4574950000000 1.0
C      1  0.5687530000000  0.4292670000000  0.4704790000000 1.0
C      1  0.4762200000000  0.6230560000000  0.5423820000000 1.0
C      1  0.5020610000000  0.6018410000000  0.4740720000000 1.0
C      1  0.5256120000000  0.6087750000000  0.4918180000000 1.0
C      1  0.5960040000000  0.4939550000000  0.4512580000000 1.0
C      1  0.4904280000000  0.4944370000000  0.6078940000000 1.0
C      1  0.4029180000000  0.4860310000000  0.4381680000000 1.0
C      1  0.5374260000000  0.5228720000000  0.4413650000000 1.0
C      1  0.5327240000000  0.5222350000000  0.5660660000000 1.0
C      1  0.4305140000000  0.5177320000000  0.4927480000000 1.0
C      1  0.5167340000000  0.4193420000000  0.5784810000000 1.0
C      1  0.4273120000000  0.4182820000000  0.4827620000000 1.0
C      1  0.5535830000000  0.4205750000000  0.4450630000000 1.0
C      1  0.4038320000000  0.5094740000000  0.4535140000000 1.0
C      1  0.5858230000000  0.5171650000000  0.4383480000000 1.0
C      1  0.5088280000000  0.5159490000000  0.6084930000000 1.0
C      1  0.5211840000000  0.4420320000000  0.4784970000000 1.0
C      1  0.5036530000000  0.4412550000000  0.5237180000000 1.0
C      1  0.4815730000000  0.4403240000000  0.5031050000000 1.0
C      1  0.4113450000000  0.5647400000000  0.4908790000000 1.0
C      1  0.5460060000000  0.5678240000000  0.4242380000000 1.0
C      1  0.5445420000000  0.5689030000000  0.5825270000000 1.0
C      1  0.4588810000000  0.5603370000000  0.5267900000000 1.0
C      1  0.4859280000000  0.5745970000000  0.4329170000000 1.0
C      1  0.5395480000000  0.5731390000000  0.5237100000000 1.0
C      1  0.3912140000000  0.4982050000000  0.5252120000000 1.0
C      1  0.5306760000000  0.5054700000000  0.3913180000000 1.0
C      1  0.5782300000000  0.4997200000000  0.5883410000000 1.0
C      1  0.4377360000000  0.3928660000000  0.4895930000000 1.0
C      1  0.5483860000000  0.3928040000000  0.4427470000000 1.0
C      1  0.5201040000000  0.3912130000000  0.5772720000000 1.0
C      1  0.6084160000000  0.4904950000000  0.4774300000000 1.0
C      1  0.4612400000000  0.4929150000000  0.6026540000000 1.0
C      1  0.4194320000000  0.4825480000000  0.4148540000000 1.0
C      1  0.5192650000000  0.3772720000000  0.5543030000000 1.0
C      1  0.4599390000000  0.3780340000000  0.4864030000000 1.0
C      1  0.5287100000000  0.3792980000000  0.4550670000000 1.0
C      1  0.5494390000000  0.4675440000000  0.4277320000000 1.0
C      1  0.5348150000000  0.4650560000000  0.5818390000000 1.0
C      1  0.3986580000000  0.4584170000000  0.4860050000000 1.0
C      1  0.4787630000000  0.5017600000000  0.5627050000000 1.0
C      1  0.4705760000000  0.5036710000000  0.4332280000000 1.0
C      1  0.5642870000000  0.5001010000000  0.4897060000000 1.0
C      1  0.5016510000000  0.6216310000000  0.5507990000000 1.0
C      1  0.4748430000000  0.6055930000000  0.4826680000000 1.0
C      1  0.5473830000000  0.6179130000000  0.4754910000000 1.0
C      1  0.4993070000000  0.5487950000000  0.3905350000000 1.0
C      1  0.6018180000000  0.5412430000000  0.5681990000000 1.0
C      1  0.4198030000000  0.5376230000000  0.5515640000000 1.0
C      1  0.4572550000000  0.4515540000000  0.5112880000000 1.0
C      1  0.5115470000000  0.4558400000000  0.4568440000000 1.0
C      1  0.5302430000000  0.4517940000000  0.5332370000000 1.0
C      1  0.5508520000000  0.6099120000000  0.4497730000000 1.0
C      1  0.5268460000000  0.6095050000000  0.5470570000000 1.0
C      1  0.4518390000000  0.6045020000000  0.4998530000000 1.0
C      1  0.4550380000000  0.4629960000000  0.5960700000000 1.0
C      1  0.4321130000000  0.4551070000000  0.4158130000000 1.0
C      1  0.6029820000000  0.4619730000000  0.4877440000000 1.0
C      1  0.5208140000000  0.5325710000000  0.3986630000000 1.0
C      1  0.5794610000000  0.5278040000000  0.5788470000000 1.0
C      1  0.4038980000000  0.5245270000000  0.5306010000000 1.0
C      1  0.4537220000000  0.5494890000000  0.4033060000000 1.0
C      1  0.5887250000000  0.5519520000000  0.5206100000000 1.0
C      1  0.4588220000000  0.5504040000000  0.5743390000000 1.0
C      1  0.5032820000000  0.4688080000000  0.5998020000000 1.0
C      1  0.4020700000000  0.4607740000000  0.4548280000000 1.0
C      1  0.5810070000000  0.4689450000000  0.4446570000000 1.0
C      1  0.5407670000000  0.4578980000000  0.4918190000000 1.0
C      1  0.4870410000000  0.4584140000000  0.5432760000000 1.0
C      1  0.4612940000000  0.4702440000000  0.4672400000000 1.0
C      1  0.5521590000000  0.4875430000000  0.5929840000000 1.0
C      1  0.3956330000000  0.4846510000000  0.4993870000000 1.0
C      1  0.5500610000000  0.4920530000000  0.4090320000000 1.0
C      1  0.4039650000000  0.5592810000000  0.4632200000000 1.0
C      1  0.5744750000000  0.5631340000000  0.4234730000000 1.0
C      1  0.5253140000000  0.5645010000000  0.6043450000000 1.0
C      1  0.5309250000000  0.5435410000000  0.4232550000000 1.0
C      1  0.5551230000000  0.5423480000000  0.5724580000000 1.0
C      1  0.4127690000000  0.5392070000000  0.5061940000000 1.0
C      1  0.4077570000000  0.5023400000000  0.4809120000000 1.0
C      1  0.5605200000000  0.5113420000000  0.4276280000000 1.0
C      1  0.5326660000000  0.5082490000000  0.5937780000000 1.0
C      1  0.3735550000000  0.4875980000000  0.5433890000000 1.0
C      1  0.5217230000000  0.4930640000000  0.3685360000000 1.0
C      1  0.6012630000000  0.4855950000000  0.5930340000000 1.0
C      1  0.5403860000000  0.5935430000000  0.5676050000000 1.0
C      1  0.4280440000000  0.5883000000000  0.4954440000000 1.0
C      1  0.5345010000000  0.5907930000000  0.4365530000000 1.0
C      1  0.4817840000000  0.4498260000000  0.5965130000000 1.0
C      1  0.4209070000000  0.4431410000000  0.4401250000000 1.0
C      1  0.5883110000000  0.4496930000000  0.4651680000000 1.0
C      1  0.5534850000000  0.4350710000000  0.5271600000000 1.0
C      1  0.4482360000000  0.4382760000000  0.5348950000000 1.0
C      1  0.4918390000000  0.4438100000000  0.4409870000000 1.0
C      1  0.4764270000000  0.5003130000000  0.5164580000000 1.0
C      1  0.4984650000000  0.5039320000000  0.4719240000000 1.0
C      1  0.5247840000000  0.5003650000000  0.5144790000000 1.0
C      1  0.5622300000000  0.5601970000000  0.5127080000000 1.0
C      1  0.4733890000000  0.5596050000000  0.5513310000000 1.0
C      1  0.4680320000000  0.5669830000000  0.4531950000000 1.0
C      1  0.4368070000000  0.5318920000000  0.5746750000000 1.0
C      1  0.4391330000000  0.5273870000000  0.3981430000000 1.0
C      1  0.6034510000000  0.5332030000000  0.5049800000000 1.0
C      1  0.5003060000000  0.5551240000000  0.5497800000000 1.0
C      1  0.4613600000000  0.5514030000000  0.4749960000000 1.0
C      1  0.5541300000000  0.5532070000000  0.4858620000000 1.0
C      1  0.5070280000000  0.5906200000000  0.4458160000000 1.0
C      1  0.5327380000000  0.6010910000000  0.5195840000000 1.0
C      1  0.4567250000000  0.6168080000000  0.5250010000000 1.0
C      1  0.5038960000000  0.4372580000000  0.4162230000000 1.0
C      1  0.5686110000000  0.4351370000000  0.5511940000000 1.0
C      1  0.4200030000000  0.4374100000000  0.5352970000000 1.0
C      1  0.5252740000000  0.5508260000000  0.4825160000000 1.0
C      1  0.5150490000000  0.5588120000000  0.5266400000000 1.0
C      1  0.4736270000000  0.5548690000000  0.5009780000000 1.0
C      1  0.5417070000000  0.4360680000000  0.5766480000000 1.0
C      1  0.4113910000000  0.4360210000000  0.5007830000000 1.0
C      1  0.5394620000000  0.4382000000000  0.4246080000000 1.0
C      1  0.5138210000000  0.4122300000000  0.5165110000000 1.0
C      1  0.4777790000000  0.4260220000000  0.4800680000000 1.0
C      1  0.5175490000000  0.4137960000000  0.4874290000000 1.0
C      1  0.4497340000000  0.4724220000000  0.4937490000000 1.0
C      1  0.5278020000000  0.4769470000000  0.4472990000000 1.0
C      1  0.5314680000000  0.4737880000000  0.5523090000000 1.0
C      1  0.4542210000000  0.4813810000000  0.3849380000000 1.0
C      1  0.6140610000000  0.4889040000000  0.5237310000000 1.0
C      1  0.4177260000000  0.4883470000000  0.5866270000000 1.0
C      1  0.5939610000000  0.4466430000000  0.5417220000000 1.0
C      1  0.4140800000000  0.4458490000000  0.5624390000000 1.0
C      1  0.4822410000000  0.4416320000000  0.3973900000000 1.0
C      1  0.5859840000000  0.5456040000000  0.4432300000000 1.0
C      1  0.5061240000000  0.5435090000000  0.5995620000000 1.0
C      1  0.4165360000000  0.5357780000000  0.4520110000000 1.0
C      1  0.4348870000000  0.4995830000000  0.3970730000000 1.0
C      1  0.6123270000000  0.5069400000000  0.5011130000000 1.0
C      1  0.4382000000000  0.5083730000000  0.5909370000000 1.0
C      1  0.5029950000000  0.5535290000000  0.5012620000000 1.0
C      1  0.4998020000000  0.5043950000000  0.5008200000000 1.0
END
