TITL C-3201373-1215-1094 1955.46464680454 125000 -420.296905538278 0 0 72 (C1) n - 1
REM
REM in /home/nfs/bkarasulu/CARBON/AIRSS/Generating-Clusters/LCBOP/Higher-Symm/SD-CG/FIRE-CG
REM
REM
REM
REM
REM
REM ./C.cell (b20cbc046b6831c77cfcea5457e17084)
REM AIRSS Version 0.9.1 bugfix July 2018 build 013d7b7c2542+ Fri, 06 Jul 2018 19:26:36 +0100
REM compiler GCC version 9.2.1 20190827 (Red Hat 9.2.1-1)
REM options -cpp -mtune=generic -march=x86-64 -g -O0 -fpre-include=/usr/include/finclude/math-vector-fortran.h
REM seed 1151659544 -1746299827 461049516 -968941349 -1774559143 -2035306484 -970585321 -896840398 -301063980 -1389179156 1083122443 -607088274 -926718817 -1836617557 -977858657 -42473668 2050043438 -854182470 1676981706 -930599245 -743951167 -436395142 -1165478298 397973619 1750651722 538616646 -51010944 1731745322 -902254229 1381157311 -1877231118 -1241618510 725452862
REM
CELL 1.54180   50.00000   50.00000   50.00000   90.00000   90.00000   90.00000
LATT -1
SFAC C  
C      1  0.5265590000000  0.5635490000000  0.5421880000000 1.0
C      1  0.4642220000000  0.5487860000000  0.5429750000000 1.0
C      1  0.4380160000000  0.4833170000000  0.5408880000000 1.0
C      1  0.4870410000000  0.4460810000000  0.5540250000000 1.0
C      1  0.5611400000000  0.4624420000000  0.5364400000000 1.0
C      1  0.4477440000000  0.4583780000000  0.5246890000000 1.0
C      1  0.5328360000000  0.4340600000000  0.5091160000000 1.0
C      1  0.5744170000000  0.4863930000000  0.5250860000000 1.0
C      1  0.5073660000000  0.5702080000000  0.5190560000000 1.0
C      1  0.4436080000000  0.5326870000000  0.5238630000000 1.0
C      1  0.5547010000000  0.5029210000000  0.5129770000000 1.0
C      1  0.5111190000000  0.5435390000000  0.5043310000000 1.0
C      1  0.4655530000000  0.5233080000000  0.5053460000000 1.0
C      1  0.4668580000000  0.4731520000000  0.5073070000000 1.0
C      1  0.5186350000000  0.4580720000000  0.5039430000000 1.0
C      1  0.4853590000000  0.5339360000000  0.5616710000000 1.0
C      1  0.4553110000000  0.4908940000000  0.5629720000000 1.0
C      1  0.5034730000000  0.4692410000000  0.5650760000000 1.0
C      1  0.5374220000000  0.4650250000000  0.5579600000000 1.0
C      1  0.5114360000000  0.5487100000000  0.5626260000000 1.0
C      1  0.4686960000000  0.5731790000000  0.4944790000000 1.0
C      1  0.4189210000000  0.5002250000000  0.4938940000000 1.0
C      1  0.4769770000000  0.4277580000000  0.5036770000000 1.0
C      1  0.5695500000000  0.4480090000000  0.4862630000000 1.0
C      1  0.5582250000000  0.5557010000000  0.4992600000000 1.0
C      1  0.4237230000000  0.5515000000000  0.5109280000000 1.0
C      1  0.4252750000000  0.4453510000000  0.5102860000000 1.0
C      1  0.5287440000000  0.4075260000000  0.5016160000000 1.0
C      1  0.6001250000000  0.4874280000000  0.5133860000000 1.0
C      1  0.5155880000000  0.5942000000000  0.5037470000000 1.0
C      1  0.5512980000000  0.5588340000000  0.4703170000000 1.0
C      1  0.4630590000000  0.5645430000000  0.4672210000000 1.0
C      1  0.4211040000000  0.4887620000000  0.4659240000000 1.0
C      1  0.4837220000000  0.4284400000000  0.4739580000000 1.0
C      1  0.5720540000000  0.4648690000000  0.4627870000000 1.0
C      1  0.4343810000000  0.5654880000000  0.4646150000000 1.0
C      1  0.4098980000000  0.4623420000000  0.4659940000000 1.0
C      1  0.4968340000000  0.4040790000000  0.4663010000000 1.0
C      1  0.5971190000000  0.4788940000000  0.4643490000000 1.0
C      1  0.5439590000000  0.5859290000000  0.4646950000000 1.0
C      1  0.5390140000000  0.5379460000000  0.4514580000000 1.0
C      1  0.4778480000000  0.5436520000000  0.4510050000000 1.0
C      1  0.4452730000000  0.4932880000000  0.4449920000000 1.0
C      1  0.4872850000000  0.4517370000000  0.4539190000000 1.0
C      1  0.5492120000000  0.4784930000000  0.4476880000000 1.0
C      1  0.4770170000000  0.5691440000000  0.5224940000000 1.0
C      1  0.4274390000000  0.5051360000000  0.5229490000000 1.0
C      1  0.4690340000000  0.4369150000000  0.5323520000000 1.0
C      1  0.5595800000000  0.4434060000000  0.5133790000000 1.0
C      1  0.5517240000000  0.5592310000000  0.5264130000000 1.0
C      1  0.5136360000000  0.4774040000000  0.5238340000000 1.0
C      1  0.5300860000000  0.5019160000000  0.5274700000000 1.0
C      1  0.5114560000000  0.5232820000000  0.5251040000000 1.0
C      1  0.4852840000000  0.5126970000000  0.5228560000000 1.0
C      1  0.4865680000000  0.4850750000000  0.5231420000000 1.0
C      1  0.5170690000000  0.3942200000000  0.4813490000000 1.0
C      1  0.6087370000000  0.4866610000000  0.4877030000000 1.0
C      1  0.5284040000000  0.6008430000000  0.4810380000000 1.0
C      1  0.4183270000000  0.5609680000000  0.4861450000000 1.0
C      1  0.4120820000000  0.4451600000000  0.4868260000000 1.0
C      1  0.4605680000000  0.5186720000000  0.4529610000000 1.0
C      1  0.4651160000000  0.4718690000000  0.4551470000000 1.0
C      1  0.5164800000000  0.4646420000000  0.4546780000000 1.0
C      1  0.5520840000000  0.5094150000000  0.4552840000000 1.0
C      1  0.5080730000000  0.5386360000000  0.4549080000000 1.0
C      1  0.5077190000000  0.5274540000000  0.4815670000000 1.0
C      1  0.4646190000000  0.5111600000000  0.4808410000000 1.0
C      1  0.4667390000000  0.4825640000000  0.4820020000000 1.0
C      1  0.5156840000000  0.4738600000000  0.4806130000000 1.0
C      1  0.5486620000000  0.5065070000000  0.4850260000000 1.0
C      1  0.5194330000000  0.5016290000000  0.4838910000000 1.0
C      1  0.4826240000000  0.4991110000000  0.5674530000000 1.0
END
