TITL C-3201376-6384-373 1.11616068745689e-06 125000 -87.8342426881761 0 0 20 (C5) n - 1
REM
REM in /home/nfs/bkarasulu/CARBON/AIRSS/Generating-Clusters/LCBOP/Higher-Symm/SD-CG/FIRE-CG
REM
REM
REM
REM
REM
REM ./C.cell (b20cbc046b6831c77cfcea5457e17084)
REM AIRSS Version 0.9.1 bugfix July 2018 build 013d7b7c2542+ Fri, 06 Jul 2018 19:26:36 +0100
REM compiler GCC version 9.2.1 20190827 (Red Hat 9.2.1-1)
REM options -cpp -mtune=generic -march=x86-64 -g -O0 -fpre-include=/usr/include/finclude/math-vector-fortran.h
REM seed -233606328 656160465 663186692 -852823808 499540715 315088024 648640004 -1222024717 -839757993 -390750721 1449196652 -1554645375 879891761 803655104 -1440293519 1004871079 490709499 -647271312 854881310 -1980243229 -217181573 -619750867 1470073229 1320525714 2116753527 1914899267 -1780253510 -629704083 -237542390 1863024348 1024689373 -1364230321 -1816502675
REM
CELL 1.54180   50.00000   50.00000   50.00000   90.00000   90.00000   90.00000
LATT -1
SFAC C  
C      1  0.5484090000000  0.4719880000000  0.5207070000000 1.0
C      1  0.4883190000000  0.4453040000000  0.5207070000000 1.0
C      1  0.4443720000000  0.4942080000000  0.5207070000000 1.0
C      1  0.4773010000000  0.5511160000000  0.5207070000000 1.0
C      1  0.5416000000000  0.5373840000000  0.5207070000000 1.0
C      1  0.5495110000000  0.4726900000000  0.4772150000000 1.0
C      1  0.4893260000000  0.4444730000000  0.4772150000000 1.0
C      1  0.4438930000000  0.4929920000000  0.4772150000000 1.0
C      1  0.4759970000000  0.5511960000000  0.4772150000000 1.0
C      1  0.5412730000000  0.5386480000000  0.4772150000000 1.0
C      1  0.5228750000000  0.5564810000000  0.4982200000000 1.0
C      1  0.5607850000000  0.4956980000000  0.4982200000000 1.0
C      1  0.5146920000000  0.4408610000000  0.4982200000000 1.0
C      1  0.4482950000000  0.4677520000000  0.4982200000000 1.0
C      1  0.4533530000000  0.5392090000000  0.4982200000000 1.0
C      1  0.4958320000000  0.5587050000000  0.4992320000000 1.0
C      1  0.5545440000000  0.5221040000000  0.4992320000000 1.0
C      1  0.4428810000000  0.5141770000000  0.4992320000000 1.0
C      1  0.5378770000000  0.4549570000000  0.4992320000000 1.0
C      1  0.4688660000000  0.4500570000000  0.4992320000000 1.0
END
