TITL C-3201377-4638-1186 3859.53514791341 125000 -812.40873938293 0 0 140 (C1) n - 1
REM
REM in /home/nfs/bkarasulu/CARBON/AIRSS/Generating-Clusters/LCBOP/Higher-Symm/SD-CG/FIRE-CG
REM
REM
REM
REM
REM
REM ./C.cell (b20cbc046b6831c77cfcea5457e17084)
REM AIRSS Version 0.9.1 bugfix July 2018 build 013d7b7c2542+ Fri, 06 Jul 2018 19:26:36 +0100
REM compiler GCC version 9.2.1 20190827 (Red Hat 9.2.1-1)
REM options -cpp -mtune=generic -march=x86-64 -g -O0 -fpre-include=/usr/include/finclude/math-vector-fortran.h
REM seed -639258329 2090811190 -117349570 -719885886 -1550142437 546924145 -1239767067 313719524 979352621 1237557983 -27194763 -1881316862 -148048317 1698825294 1187614182 1698211695 1264745131 1858139541 232239012 -679300456 1501766223 161889159 1475030449 -278507024 598759677 870473837 -2008346131 418708193 1805992246 1322567949 -1293550895 -1270241632 -835994951
REM
CELL 1.54180   50.00000   50.00000   50.00000   90.00000   90.00000   90.00000
LATT -1
SFAC C  
C      1  0.4054720000000  0.4957390000000  0.5407430000000 1.0
C      1  0.5956140000000  0.5037730000000  0.4645730000000 1.0
C      1  0.5956310000000  0.5043010000000  0.5410620000000 1.0
C      1  0.4085710000000  0.4946830000000  0.4597440000000 1.0
C      1  0.4322940000000  0.5674200000000  0.4560410000000 1.0
C      1  0.5643660000000  0.5732360000000  0.5437070000000 1.0
C      1  0.5679930000000  0.5742530000000  0.4545060000000 1.0
C      1  0.4299710000000  0.5680150000000  0.5453920000000 1.0
C      1  0.5165560000000  0.5313620000000  0.5424610000000 1.0
C      1  0.4856720000000  0.5345790000000  0.4616020000000 1.0
C      1  0.4848780000000  0.5311850000000  0.5454190000000 1.0
C      1  0.5159220000000  0.5358000000000  0.4624780000000 1.0
C      1  0.4569500000000  0.4181370000000  0.5719700000000 1.0
C      1  0.5537170000000  0.4131410000000  0.4418060000000 1.0
C      1  0.5491670000000  0.4104630000000  0.5460660000000 1.0
C      1  0.4572360000000  0.4292140000000  0.4289280000000 1.0
C      1  0.4563950000000  0.5772960000000  0.4417910000000 1.0
C      1  0.5401030000000  0.5813310000000  0.5577640000000 1.0
C      1  0.5427500000000  0.5812800000000  0.4408880000000 1.0
C      1  0.4538690000000  0.5784490000000  0.5593580000000 1.0
C      1  0.5282140000000  0.5237360000000  0.3953700000000 1.0
C      1  0.4730040000000  0.5236140000000  0.6064510000000 1.0
C      1  0.4752540000000  0.5219700000000  0.3952010000000 1.0
C      1  0.5258960000000  0.5256820000000  0.6056010000000 1.0
C      1  0.4322310000000  0.5270290000000  0.4254770000000 1.0
C      1  0.5679470000000  0.5335660000000  0.5746830000000 1.0
C      1  0.5705340000000  0.5311850000000  0.4261680000000 1.0
C      1  0.4300240000000  0.5276310000000  0.5760460000000 1.0
C      1  0.4122560000000  0.5223020000000  0.5523630000000 1.0
C      1  0.5888760000000  0.5289720000000  0.4498950000000 1.0
C      1  0.5864370000000  0.5297260000000  0.5517130000000 1.0
C      1  0.4142860000000  0.5218160000000  0.4489570000000 1.0
C      1  0.4708300000000  0.5595950000000  0.4237650000000 1.0
C      1  0.5272150000000  0.5633050000000  0.5766520000000 1.0
C      1  0.5298180000000  0.5618170000000  0.4236250000000 1.0
C      1  0.4682740000000  0.5612270000000  0.5777880000000 1.0
C      1  0.6108280000000  0.5046630000000  0.5163910000000 1.0
C      1  0.3957630000000  0.4933180000000  0.4860840000000 1.0
C      1  0.3941390000000  0.4948120000000  0.5134960000000 1.0
C      1  0.6107050000000  0.5048260000000  0.4891590000000 1.0
C      1  0.5343920000000  0.4281030000000  0.4260330000000 1.0
C      1  0.4807570000000  0.4324480000000  0.5703240000000 1.0
C      1  0.4830370000000  0.4333530000000  0.4177370000000 1.0
C      1  0.5305430000000  0.4255340000000  0.5618110000000 1.0
C      1  0.5580180000000  0.5292320000000  0.5129090000000 1.0
C      1  0.4433590000000  0.5270010000000  0.4856460000000 1.0
C      1  0.4427140000000  0.5270460000000  0.5173040000000 1.0
C      1  0.5585430000000  0.5363310000000  0.4830790000000 1.0
C      1  0.4537460000000  0.4999730000000  0.4801780000000 1.0
C      1  0.5482600000000  0.5004830000000  0.5118040000000 1.0
C      1  0.5362210000000  0.4844530000000  0.4877090000000 1.0
C      1  0.4519430000000  0.5002860000000  0.5236140000000 1.0
C      1  0.4767140000000  0.4280350000000  0.4722680000000 1.0
C      1  0.5332770000000  0.4491090000000  0.5173640000000 1.0
C      1  0.5293240000000  0.4329180000000  0.4744240000000 1.0
C      1  0.4642100000000  0.4566970000000  0.5061950000000 1.0
C      1  0.5267680000000  0.5050480000000  0.5537860000000 1.0
C      1  0.4798660000000  0.5043480000000  0.4448070000000 1.0
C      1  0.4778060000000  0.5023570000000  0.5603160000000 1.0
C      1  0.5270870000000  0.5104360000000  0.4497200000000 1.0
C      1  0.4190810000000  0.5418230000000  0.4727420000000 1.0
C      1  0.5808550000000  0.5480240000000  0.5269940000000 1.0
C      1  0.5822540000000  0.5507640000000  0.4712550000000 1.0
C      1  0.4181360000000  0.5422580000000  0.5288030000000 1.0
C      1  0.4521710000000  0.4885620000000  0.5495300000000 1.0
C      1  0.5480480000000  0.4946380000000  0.4618690000000 1.0
C      1  0.5486900000000  0.4920860000000  0.5397830000000 1.0
C      1  0.4558950000000  0.4903800000000  0.4537150000000 1.0
C      1  0.5332290000000  0.4495520000000  0.5783960000000 1.0
C      1  0.4899690000000  0.4589530000000  0.4078960000000 1.0
C      1  0.4874530000000  0.4526320000000  0.5889500000000 1.0
C      1  0.5350930000000  0.4563040000000  0.4202940000000 1.0
C      1  0.4318400000000  0.4496720000000  0.4677350000000 1.0
C      1  0.5847080000000  0.4590840000000  0.5296100000000 1.0
C      1  0.5735990000000  0.4590840000000  0.4823410000000 1.0
C      1  0.4229420000000  0.4537660000000  0.5225980000000 1.0
C      1  0.4552170000000  0.5374030000000  0.5884570000000 1.0
C      1  0.5447140000000  0.5388530000000  0.4135160000000 1.0
C      1  0.5422010000000  0.5407570000000  0.5873150000000 1.0
C      1  0.4576230000000  0.5359550000000  0.4131690000000 1.0
C      1  0.5491260000000  0.4115210000000  0.4702170000000 1.0
C      1  0.4328740000000  0.4073790000000  0.5745320000000 1.0
C      1  0.4528880000000  0.4326060000000  0.4566510000000 1.0
C      1  0.5569420000000  0.4012550000000  0.5216920000000 1.0
C      1  0.4638560000000  0.5465760000000  0.5260490000000 1.0
C      1  0.5349530000000  0.5519510000000  0.4785720000000 1.0
C      1  0.5350620000000  0.5465040000000  0.5244140000000 1.0
C      1  0.4641560000000  0.5472580000000  0.4782080000000 1.0
C      1  0.4257310000000  0.4736350000000  0.5459220000000 1.0
C      1  0.5750890000000  0.4834390000000  0.4642100000000 1.0
C      1  0.5763390000000  0.4826980000000  0.5430840000000 1.0
C      1  0.4300860000000  0.4753120000000  0.4533240000000 1.0
C      1  0.4698360000000  0.6009880000000  0.5520250000000 1.0
C      1  0.5248570000000  0.6026690000000  0.4471880000000 1.0
C      1  0.5224050000000  0.6027860000000  0.5510810000000 1.0
C      1  0.4722220000000  0.6003280000000  0.4478430000000 1.0
C      1  0.3964730000000  0.4266060000000  0.4921710000000 1.0
C      1  0.6139050000000  0.4361210000000  0.4979090000000 1.0
C      1  0.5055320000000  0.4917130000000  0.5686490000000 1.0
C      1  0.5060280000000  0.4954890000000  0.4360110000000 1.0
C      1  0.5577050000000  0.3997760000000  0.4945580000000 1.0
C      1  0.4087100000000  0.3976490000000  0.5755060000000 1.0
C      1  0.4577830000000  0.5669200000000  0.5026410000000 1.0
C      1  0.5391370000000  0.5697200000000  0.5033130000000 1.0
C      1  0.4039750000000  0.5490300000000  0.5004070000000 1.0
C      1  0.5959330000000  0.5577720000000  0.4993020000000 1.0
C      1  0.4982520000000  0.6081340000000  0.4475560000000 1.0
C      1  0.4958790000000  0.6085100000000  0.5509340000000 1.0
C      1  0.4965620000000  0.4775800000000  0.5274010000000 1.0
C      1  0.5075660000000  0.4862660000000  0.4855780000000 1.0
C      1  0.5056250000000  0.4185610000000  0.4320290000000 1.0
C      1  0.5021210000000  0.4278340000000  0.5490650000000 1.0
C      1  0.5002270000000  0.5628080000000  0.4203570000000 1.0
C      1  0.4977520000000  0.5646720000000  0.5806840000000 1.0
C      1  0.5082380000000  0.4519480000000  0.5308200000000 1.0
C      1  0.5034070000000  0.4274270000000  0.4619540000000 1.0
C      1  0.4459400000000  0.5911800000000  0.5018150000000 1.0
C      1  0.5486460000000  0.5950720000000  0.5029330000000 1.0
C      1  0.5108230000000  0.4675600000000  0.5831040000000 1.0
C      1  0.5117730000000  0.4730760000000  0.4193590000000 1.0
C      1  0.5002270000000  0.3634320000000  0.4274950000000 1.0
C      1  0.5043770000000  0.3788180000000  0.5379360000000 1.0
C      1  0.4939090000000  0.4036860000000  0.5334340000000 1.0
C      1  0.5030070000000  0.3893020000000  0.4286600000000 1.0
C      1  0.5018490000000  0.5198110000000  0.3893200000000 1.0
C      1  0.4996720000000  0.5214170000000  0.6119040000000 1.0
C      1  0.5435340000000  0.4552730000000  0.4899410000000 1.0
C      1  0.4564470000000  0.4830980000000  0.5021020000000 1.0
C      1  0.5915470000000  0.4508610000000  0.5031570000000 1.0
C      1  0.4180910000000  0.4441800000000  0.4943310000000 1.0
C      1  0.4330020000000  0.3708920000000  0.5114420000000 1.0
C      1  0.4990050000000  0.5541100000000  0.5023540000000 1.0
C      1  0.4721780000000  0.4077500000000  0.5157050000000 1.0
C      1  0.4980390000000  0.5814530000000  0.4981300000000 1.0
C      1  0.4968840000000  0.6080830000000  0.4987040000000 1.0
C      1  0.4966990000000  0.4989240000000  0.5078280000000 1.0
C      1  0.4969210000000  0.5269450000000  0.5040480000000 1.0
C      1  0.4721230000000  0.4308350000000  0.4996470000000 1.0
C      1  0.4957600000000  0.6341690000000  0.4990880000000 1.0
C      1  0.4515890000000  0.3890030000000  0.5137950000000 1.0
END
