TITL C-3201373-1215-341 2776562.60598201 125000 -977.366101861572 0 0 164 (C1) n - 1
REM
REM in /home/nfs/bkarasulu/CARBON/AIRSS/Generating-Clusters/LCBOP/Higher-Symm/SD-CG/FIRE-CG
REM
REM
REM
REM
REM
REM ./C.cell (b20cbc046b6831c77cfcea5457e17084)
REM AIRSS Version 0.9.1 bugfix July 2018 build 013d7b7c2542+ Fri, 06 Jul 2018 19:26:36 +0100
REM compiler GCC version 9.2.1 20190827 (Red Hat 9.2.1-1)
REM options -cpp -mtune=generic -march=x86-64 -g -O0 -fpre-include=/usr/include/finclude/math-vector-fortran.h
REM seed 186699382 -526371586 2063316980 -886507369 1490269790 -1933382618 -308740208 -1337164782 -852439360 1511201763 -106452426 -336068429 1869214450 813955339 781615103 -232910237 1428378936 1212857514 -375704999 805395915 -1208200670 782768154 -1117025409 -1069443166 -2136282700 940971214 -1031121784 1409574848 1988096355 -1650171408 654521511 839918904 -809389588
REM
CELL 1.54180   50.00000   50.00000   50.00000   90.00000   90.00000   90.00000
LATT -1
SFAC C  
C      1  0.5313830000000  0.4053760000000  0.4856320000000 1.0
C      1  0.4053810000000  0.4687500000000  0.4851050000000 1.0
C      1  0.4686410000000  0.5952420000000  0.4848700000000 1.0
C      1  0.5943060000000  0.5313860000000  0.4855960000000 1.0
C      1  0.5315270000000  0.4048980000000  0.5142040000000 1.0
C      1  0.4056060000000  0.4683300000000  0.5136860000000 1.0
C      1  0.4685660000000  0.5945000000000  0.5134810000000 1.0
C      1  0.5945920000000  0.5311540000000  0.5141700000000 1.0
C      1  0.4266860000000  0.4558420000000  0.5699250000000 1.0
C      1  0.4559250000000  0.5731080000000  0.5697110000000 1.0
C      1  0.5732560000000  0.5430800000000  0.5704970000000 1.0
C      1  0.5441210000000  0.4263100000000  0.5704090000000 1.0
C      1  0.4267360000000  0.4570520000000  0.4286800000000 1.0
C      1  0.4569780000000  0.5738460000000  0.4284860000000 1.0
C      1  0.5734460000000  0.5439460000000  0.4293630000000 1.0
C      1  0.5441590000000  0.4266650000000  0.4293820000000 1.0
C      1  0.4236760000000  0.4489190000000  0.5234590000000 1.0
C      1  0.4491830000000  0.5764370000000  0.5233200000000 1.0
C      1  0.5770210000000  0.5505340000000  0.5246720000000 1.0
C      1  0.5509030000000  0.4226660000000  0.5242540000000 1.0
C      1  0.4229650000000  0.4494740000000  0.4744970000000 1.0
C      1  0.4492650000000  0.5777760000000  0.4743020000000 1.0
C      1  0.5764500000000  0.5509340000000  0.4757660000000 1.0
C      1  0.5505480000000  0.4235840000000  0.4757280000000 1.0
C      1  0.4818560000000  0.4877430000000  0.4848620000000 1.0
C      1  0.4873230000000  0.5189610000000  0.4829930000000 1.0
C      1  0.5182410000000  0.5110920000000  0.4842090000000 1.0
C      1  0.5112640000000  0.4817960000000  0.4840250000000 1.0
C      1  0.4814950000000  0.4889440000000  0.5149810000000 1.0
C      1  0.4885970000000  0.5181710000000  0.5149660000000 1.0
C      1  0.5181740000000  0.5123990000000  0.5142300000000 1.0
C      1  0.5125110000000  0.4811710000000  0.5161270000000 1.0
C      1  0.4734290000000  0.5312950000000  0.3998620000000 1.0
C      1  0.5314060000000  0.5271470000000  0.3999000000000 1.0
C      1  0.5272830000000  0.4689610000000  0.4000790000000 1.0
C      1  0.4693260000000  0.4733560000000  0.4000340000000 1.0
C      1  0.4727650000000  0.5309140000000  0.5990560000000 1.0
C      1  0.5307490000000  0.5266840000000  0.5992270000000 1.0
C      1  0.5269830000000  0.4686380000000  0.5993110000000 1.0
C      1  0.4688310000000  0.4728030000000  0.5992630000000 1.0
C      1  0.4556800000000  0.4818290000000  0.5203920000000 1.0
C      1  0.4819960000000  0.5441620000000  0.5201610000000 1.0
C      1  0.5441620000000  0.5184400000000  0.5202460000000 1.0
C      1  0.5181840000000  0.4550440000000  0.5203540000000 1.0
C      1  0.4557540000000  0.4816680000000  0.4788260000000 1.0
C      1  0.4817630000000  0.5451670000000  0.4788440000000 1.0
C      1  0.5442350000000  0.5182160000000  0.4786750000000 1.0
C      1  0.5178140000000  0.4558130000000  0.4790690000000 1.0
C      1  0.5000730000000  0.5221760000000  0.5574870000000 1.0
C      1  0.5225290000000  0.5004400000000  0.5574910000000 1.0
C      1  0.5014190000000  0.4773120000000  0.5579520000000 1.0
C      1  0.4765830000000  0.4990160000000  0.5580480000000 1.0
C      1  0.4993400000000  0.5228640000000  0.4414470000000 1.0
C      1  0.5223380000000  0.5016770000000  0.4411490000000 1.0
C      1  0.5005740000000  0.4767870000000  0.4413910000000 1.0
C      1  0.4775680000000  0.5004380000000  0.4417650000000 1.0
C      1  0.5488350000000  0.5453350000000  0.5251490000000 1.0
C      1  0.5452500000000  0.4507620000000  0.5250310000000 1.0
C      1  0.4517800000000  0.4547570000000  0.5248860000000 1.0
C      1  0.4549170000000  0.5483080000000  0.5247470000000 1.0
C      1  0.5483230000000  0.5452640000000  0.4743660000000 1.0
C      1  0.5448730000000  0.4517010000000  0.4743370000000 1.0
C      1  0.4511110000000  0.4547760000000  0.4739470000000 1.0
C      1  0.4547060000000  0.5496700000000  0.4740370000000 1.0
C      1  0.4210830000000  0.4305470000000  0.5442760000000 1.0
C      1  0.4308250000000  0.5789560000000  0.5441980000000 1.0
C      1  0.5800750000000  0.5678630000000  0.5453350000000 1.0
C      1  0.5692450000000  0.4202880000000  0.5446820000000 1.0
C      1  0.4198900000000  0.4321550000000  0.4538740000000 1.0
C      1  0.4319610000000  0.5805940000000  0.4536660000000 1.0
C      1  0.5791320000000  0.5692410000000  0.4549790000000 1.0
C      1  0.5690940000000  0.4209240000000  0.4552080000000 1.0
C      1  0.4981960000000  0.4584720000000  0.5994690000000 1.0
C      1  0.4585220000000  0.5015880000000  0.5993530000000 1.0
C      1  0.5015190000000  0.5410570000000  0.5991880000000 1.0
C      1  0.5410260000000  0.4979890000000  0.5993130000000 1.0
C      1  0.4984860000000  0.4588400000000  0.3999470000000 1.0
C      1  0.4591760000000  0.5020900000000  0.3999210000000 1.0
C      1  0.5021490000000  0.5414820000000  0.3997110000000 1.0
C      1  0.5415520000000  0.4983180000000  0.3998330000000 1.0
C      1  0.5475050000000  0.4502450000000  0.4140780000000 1.0
C      1  0.4505650000000  0.4531870000000  0.4138440000000 1.0
C      1  0.4532060000000  0.5499450000000  0.4137600000000 1.0
C      1  0.5499330000000  0.5474680000000  0.4139700000000 1.0
C      1  0.5473750000000  0.4500760000000  0.5853520000000 1.0
C      1  0.4502580000000  0.4524650000000  0.5852580000000 1.0
C      1  0.4525080000000  0.5495520000000  0.5850790000000 1.0
C      1  0.5494320000000  0.5469420000000  0.5854030000000 1.0
C      1  0.4029090000000  0.4921040000000  0.4691560000000 1.0
C      1  0.4917740000000  0.5977610000000  0.4685550000000 1.0
C      1  0.5967730000000  0.5082920000000  0.4691550000000 1.0
C      1  0.5082000000000  0.4027220000000  0.4694930000000 1.0
C      1  0.4028250000000  0.4912760000000  0.5302850000000 1.0
C      1  0.4917650000000  0.5969400000000  0.5297190000000 1.0
C      1  0.5970420000000  0.5079230000000  0.5302990000000 1.0
C      1  0.5084840000000  0.4024250000000  0.5306480000000 1.0
C      1  0.4424020000000  0.5289180000000  0.5426080000000 1.0
C      1  0.5293280000000  0.5577230000000  0.5427680000000 1.0
C      1  0.5574360000000  0.4705780000000  0.5425890000000 1.0
C      1  0.4711170000000  0.4424530000000  0.5428660000000 1.0
C      1  0.4423830000000  0.5298440000000  0.4565790000000 1.0
C      1  0.5291430000000  0.5577740000000  0.4564150000000 1.0
C      1  0.5571060000000  0.4711940000000  0.4564540000000 1.0
C      1  0.4706060000000  0.4422160000000  0.4564460000000 1.0
C      1  0.4253200000000  0.4885610000000  0.4405980000000 1.0
C      1  0.4882280000000  0.5753920000000  0.4400710000000 1.0
C      1  0.5748900000000  0.5121810000000  0.4404790000000 1.0
C      1  0.5119040000000  0.4250010000000  0.4408990000000 1.0
C      1  0.4248980000000  0.4877260000000  0.5586290000000 1.0
C      1  0.4879860000000  0.5746920000000  0.5583540000000 1.0
C      1  0.5746650000000  0.5117630000000  0.5586960000000 1.0
C      1  0.5121090000000  0.4246730000000  0.5590100000000 1.0
C      1  0.4990790000000  0.5500300000000  0.5430730000000 1.0
C      1  0.5499160000000  0.5009600000000  0.5429780000000 1.0
C      1  0.5013770000000  0.4493720000000  0.5435240000000 1.0
C      1  0.4495900000000  0.4986700000000  0.5432440000000 1.0
C      1  0.4988620000000  0.5508020000000  0.4557800000000 1.0
C      1  0.5499060000000  0.5014630000000  0.4555940000000 1.0
C      1  0.5008790000000  0.4495990000000  0.4562470000000 1.0
C      1  0.4499780000000  0.4994200000000  0.4562960000000 1.0
C      1  0.4941630000000  0.4306290000000  0.5846150000000 1.0
C      1  0.4306930000000  0.5056150000000  0.5843310000000 1.0
C      1  0.5056410000000  0.5688830000000  0.5842900000000 1.0
C      1  0.5686850000000  0.4939670000000  0.5842590000000 1.0
C      1  0.4942920000000  0.4310020000000  0.4148960000000 1.0
C      1  0.4314370000000  0.5062770000000  0.4148850000000 1.0
C      1  0.5061740000000  0.5692830000000  0.4145930000000 1.0
C      1  0.5693250000000  0.4942250000000  0.4148510000000 1.0
C      1  0.4674480000000  0.4341040000000  0.5713430000000 1.0
C      1  0.4340740000000  0.5324270000000  0.5711480000000 1.0
C      1  0.5326280000000  0.5656400000000  0.5714230000000 1.0
C      1  0.5656080000000  0.4672210000000  0.5712150000000 1.0
C      1  0.4672930000000  0.4343870000000  0.4277800000000 1.0
C      1  0.4345880000000  0.5331520000000  0.4278280000000 1.0
C      1  0.5328400000000  0.5659200000000  0.4278660000000 1.0
C      1  0.5657740000000  0.4675020000000  0.4280800000000 1.0
C      1  0.3955660000000  0.5421700000000  0.4716260000000 1.0
C      1  0.5419780000000  0.6035170000000  0.4698720000000 1.0
C      1  0.6031080000000  0.4578960000000  0.4706060000000 1.0
C      1  0.4580010000000  0.3955630000000  0.4717580000000 1.0
C      1  0.3967680000000  0.5416770000000  0.5293100000000 1.0
C      1  0.5420190000000  0.6043650000000  0.5275670000000 1.0
C      1  0.6036650000000  0.4577370000000  0.5285290000000 1.0
C      1  0.4582180000000  0.3965150000000  0.5294730000000 1.0
C      1  0.4305390000000  0.4033150000000  0.4731320000000 1.0
C      1  0.4032030000000  0.5696470000000  0.4730330000000 1.0
C      1  0.5697130000000  0.5946430000000  0.4705230000000 1.0
C      1  0.5943180000000  0.4301310000000  0.4712590000000 1.0
C      1  0.4304790000000  0.4053340000000  0.5288230000000 1.0
C      1  0.4055250000000  0.5694710000000  0.5287170000000 1.0
C      1  0.5695110000000  0.5966500000000  0.5262310000000 1.0
C      1  0.5950080000000  0.4299920000000  0.5278830000000 1.0
C      1  0.6021820000000  0.4833140000000  0.5149890000000 1.0
C      1  0.4837060000000  0.3974110000000  0.5156550000000 1.0
C      1  0.3976590000000  0.5161950000000  0.5154310000000 1.0
C      1  0.5163700000000  0.6025100000000  0.5143480000000 1.0
C      1  0.6019750000000  0.4834590000000  0.4842500000000 1.0
C      1  0.4836630000000  0.3973290000000  0.4849470000000 1.0
C      1  0.3974850000000  0.5164820000000  0.4847310000000 1.0
C      1  0.5164710000000  0.6026170000000  0.4836440000000 1.0
C      1  0.4020250000000  0.5800920000000  0.5007200000000 1.0
C      1  0.4199750000000  0.4020010000000  0.5007710000000 1.0
C      1  0.5801590000000  0.5979750000000  0.4986050000000 1.0
C      1  0.5970890000000  0.4195200000000  0.4994700000000 1.0
END
