TITL C-3201372-1405-1551 45.2712279666092 125000 -986.115100915643 0 0 161 (C1) n - 1
REM
REM in /home/nfs/bkarasulu/CARBON/AIRSS/Generating-Clusters/LCBOP/Higher-Symm/SD-CG/FIRE-CG
REM
REM
REM
REM
REM
REM ./C.cell (b20cbc046b6831c77cfcea5457e17084)
REM AIRSS Version 0.9.1 bugfix July 2018 build 013d7b7c2542+ Fri, 06 Jul 2018 19:26:36 +0100
REM compiler GCC version 9.2.1 20190827 (Red Hat 9.2.1-1)
REM options -cpp -mtune=generic -march=x86-64 -g -O0 -fpre-include=/usr/include/finclude/math-vector-fortran.h
REM seed 2017558622 -2081866465 -1278909842 -1020298217 1403839362 -656733603 1017236021 1258164220 -596226832 -447442855 -594600675 610107157 -2104830338 -1798139369 1545524401 -453549439 112777109 1531582206 -1845813054 1846696463 -1034511721 -130162341 5829016 639627627 1347935149 203532644 -1298566236 514996398 1025206605 -1897854478 -850993960 784595727 1045024850
REM
CELL 1.54180   50.00000   50.00000   50.00000   90.00000   90.00000   90.00000
LATT -1
SFAC C  
C      1  0.4317810000000  0.5586420000000  0.4158040000000 1.0
C      1  0.5840620000000  0.4425990000000  0.5771880000000 1.0
C      1  0.5892840000000  0.5591820000000  0.5838620000000 1.0
C      1  0.4886390000000  0.5524300000000  0.4237490000000 1.0
C      1  0.4826850000000  0.5016150000000  0.4058770000000 1.0
C      1  0.5005100000000  0.4855520000000  0.6251250000000 1.0
C      1  0.4797100000000  0.3892050000000  0.4603390000000 1.0
C      1  0.6152800000000  0.5608750000000  0.4854210000000 1.0
C      1  0.5791010000000  0.4330500000000  0.4928070000000 1.0
C      1  0.5169560000000  0.5095890000000  0.4364430000000 1.0
C      1  0.5618900000000  0.5665090000000  0.5858420000000 1.0
C      1  0.5366420000000  0.6038120000000  0.4456780000000 1.0
C      1  0.5828960000000  0.4475300000000  0.4699380000000 1.0
C      1  0.5643060000000  0.4152610000000  0.5104190000000 1.0
C      1  0.5498760000000  0.5923210000000  0.5844730000000 1.0
C      1  0.5151840000000  0.5035740000000  0.3921130000000 1.0
C      1  0.3424360000000  0.3853050000000  0.5679180000000 1.0
C      1  0.4588370000000  0.4252430000000  0.5446640000000 1.0
C      1  0.5472580000000  0.4690590000000  0.5046930000000 1.0
C      1  0.4563310000000  0.4938900000000  0.4505280000000 1.0
C      1  0.4690280000000  0.5109060000000  0.4317110000000 1.0
C      1  0.5641970000000  0.5325370000000  0.5238610000000 1.0
C      1  0.4879920000000  0.5342670000000  0.6083100000000 1.0
C      1  0.5368260000000  0.5712990000000  0.4092800000000 1.0
C      1  0.5035290000000  0.5706000000000  0.4878770000000 1.0
C      1  0.5168030000000  0.4244280000000  0.5760910000000 1.0
C      1  0.5605770000000  0.4186510000000  0.5394800000000 1.0
C      1  0.4222440000000  0.5104200000000  0.4034070000000 1.0
C      1  0.5759570000000  0.5793940000000  0.4660060000000 1.0
C      1  0.4424680000000  0.5398740000000  0.5967030000000 1.0
C      1  0.6080800000000  0.5408140000000  0.4658820000000 1.0
C      1  0.4705770000000  0.5960620000000  0.4118340000000 1.0
C      1  0.4763230000000  0.4369550000000  0.4481940000000 1.0
C      1  0.4963690000000  0.5793420000000  0.5575930000000 1.0
C      1  0.6080440000000  0.5414360000000  0.5758680000000 1.0
C      1  0.5601910000000  0.4713840000000  0.5298780000000 1.0
C      1  0.5885150000000  0.5559120000000  0.4485740000000 1.0
C      1  0.5535720000000  0.5171400000000  0.5450880000000 1.0
C      1  0.4507610000000  0.5909690000000  0.5306240000000 1.0
C      1  0.5687560000000  0.4626230000000  0.5869440000000 1.0
C      1  0.4878630000000  0.4814610000000  0.5175870000000 1.0
C      1  0.4834380000000  0.6235450000000  0.5546950000000 1.0
C      1  0.5123180000000  0.5395290000000  0.5470040000000 1.0
C      1  0.4622590000000  0.6153220000000  0.5395370000000 1.0
C      1  0.5007260000000  0.4548780000000  0.5244390000000 1.0
C      1  0.5359500000000  0.4189360000000  0.5548910000000 1.0
C      1  0.4891000000000  0.4346730000000  0.4022480000000 1.0
C      1  0.4108210000000  0.5205770000000  0.5032430000000 1.0
C      1  0.4113290000000  0.4244060000000  0.5525600000000 1.0
C      1  0.4569030000000  0.5003260000000  0.6222710000000 1.0
C      1  0.5623650000000  0.4896930000000  0.4892190000000 1.0
C      1  0.5029430000000  0.6059300000000  0.5653760000000 1.0
C      1  0.4106400000000  0.4764380000000  0.5678860000000 1.0
C      1  0.3977510000000  0.5673110000000  0.5040770000000 1.0
C      1  0.5481600000000  0.5916350000000  0.4698890000000 1.0
C      1  0.5319290000000  0.5530460000000  0.4535320000000 1.0
C      1  0.5245560000000  0.4687800000000  0.4534500000000 1.0
C      1  0.5283660000000  0.6075590000000  0.5779090000000 1.0
C      1  0.5439120000000  0.5380370000000  0.4773790000000 1.0
C      1  0.6268720000000  0.4731690000000  0.5182460000000 1.0
C      1  0.3200750000000  0.3728140000000  0.5727800000000 1.0
C      1  0.4843870000000  0.3898480000000  0.4887130000000 1.0
C      1  0.4389240000000  0.4924860000000  0.4727790000000 1.0
C      1  0.4219760000000  0.5321890000000  0.4233500000000 1.0
C      1  0.5336310000000  0.4827610000000  0.4037390000000 1.0
C      1  0.4271980000000  0.4240240000000  0.5057010000000 1.0
C      1  0.5479190000000  0.5551320000000  0.4301650000000 1.0
C      1  0.5051160000000  0.5194400000000  0.4574200000000 1.0
C      1  0.6001060000000  0.5130990000000  0.4674280000000 1.0
C      1  0.4236280000000  0.5232910000000  0.5836250000000 1.0
C      1  0.5745880000000  0.4838010000000  0.4320510000000 1.0
C      1  0.5535330000000  0.5111090000000  0.4709570000000 1.0
C      1  0.4200880000000  0.4489670000000  0.5653890000000 1.0
C      1  0.5345320000000  0.5302320000000  0.5612820000000 1.0
C      1  0.4761300000000  0.4556580000000  0.3911330000000 1.0
C      1  0.4645940000000  0.4812320000000  0.3957370000000 1.0
C      1  0.4760680000000  0.5402680000000  0.5138420000000 1.0
C      1  0.4197920000000  0.5140410000000  0.4759350000000 1.0
C      1  0.5751310000000  0.5101190000000  0.4485430000000 1.0
C      1  0.5217630000000  0.4730160000000  0.5738920000000 1.0
C      1  0.4255290000000  0.4624570000000  0.4178180000000 1.0
C      1  0.4942380000000  0.4630410000000  0.6072230000000 1.0
C      1  0.4699740000000  0.4073270000000  0.5657810000000 1.0
C      1  0.4245630000000  0.5512420000000  0.5417650000000 1.0
C      1  0.5087270000000  0.4308720000000  0.4881060000000 1.0
C      1  0.4691820000000  0.5484640000000  0.5912600000000 1.0
C      1  0.5248890000000  0.5961910000000  0.4200370000000 1.0
C      1  0.4756370000000  0.4764040000000  0.5866930000000 1.0
C      1  0.4266660000000  0.4946240000000  0.5844340000000 1.0
C      1  0.4843290000000  0.5098760000000  0.6236750000000 1.0
C      1  0.4878780000000  0.5722440000000  0.4648660000000 1.0
C      1  0.3651700000000  0.3980050000000  0.5629730000000 1.0
C      1  0.5234240000000  0.4500120000000  0.5056760000000 1.0
C      1  0.4956830000000  0.4856250000000  0.5665830000000 1.0
C      1  0.4568720000000  0.5546900000000  0.4950850000000 1.0
C      1  0.5155110000000  0.5669290000000  0.5393290000000 1.0
C      1  0.4955970000000  0.5530880000000  0.3966310000000 1.0
C      1  0.5482530000000  0.5467100000000  0.5057450000000 1.0
C      1  0.4423320000000  0.4724770000000  0.4923480000000 1.0
C      1  0.4474140000000  0.5689840000000  0.5492980000000 1.0
C      1  0.4118570000000  0.5365510000000  0.5622140000000 1.0
C      1  0.5357230000000  0.5709340000000  0.5172140000000 1.0
C      1  0.4495120000000  0.4261570000000  0.4470710000000 1.0
C      1  0.5249270000000  0.4835730000000  0.4307210000000 1.0
C      1  0.4991880000000  0.4910120000000  0.4921130000000 1.0
C      1  0.4830560000000  0.4300070000000  0.5258260000000 1.0
C      1  0.5233550000000  0.5534410000000  0.3909090000000 1.0
C      1  0.5620190000000  0.4910510000000  0.4062350000000 1.0
C      1  0.3984740000000  0.4875360000000  0.5444340000000 1.0
C      1  0.5613470000000  0.5198530000000  0.4013490000000 1.0
C      1  0.4493690000000  0.5810730000000  0.5042340000000 1.0
C      1  0.5915540000000  0.5364100000000  0.5227820000000 1.0
C      1  0.5507010000000  0.3948420000000  0.4960020000000 1.0
C      1  0.4714860000000  0.5654330000000  0.5671940000000 1.0
C      1  0.4923310000000  0.4122750000000  0.5039070000000 1.0
C      1  0.5493040000000  0.4786280000000  0.5740100000000 1.0
C      1  0.4883370000000  0.5267020000000  0.5376550000000 1.0
C      1  0.4942500000000  0.4073870000000  0.5774360000000 1.0
C      1  0.4497130000000  0.4740310000000  0.5405970000000 1.0
C      1  0.4479860000000  0.4511410000000  0.5564770000000 1.0
C      1  0.4299470000000  0.4471160000000  0.4921300000000 1.0
C      1  0.5927560000000  0.4960400000000  0.4910360000000 1.0
C      1  0.4509300000000  0.4867300000000  0.5976210000000 1.0
C      1  0.5011840000000  0.3991090000000  0.4419560000000 1.0
C      1  0.6179370000000  0.5232220000000  0.5582490000000 1.0
C      1  0.6106400000000  0.4947110000000  0.5139270000000 1.0
C      1  0.5394820000000  0.3886770000000  0.4723300000000 1.0
C      1  0.4585080000000  0.4782040000000  0.5146130000000 1.0
C      1  0.5283580000000  0.5846090000000  0.4926420000000 1.0
C      1  0.5028530000000  0.4714480000000  0.4713560000000 1.0
C      1  0.4998270000000  0.5427170000000  0.4974960000000 1.0
C      1  0.4366310000000  0.4848620000000  0.4042040000000 1.0
C      1  0.4921890000000  0.4233090000000  0.4277750000000 1.0
C      1  0.5294110000000  0.3976850000000  0.4474000000000 1.0
C      1  0.5580690000000  0.4901410000000  0.5500570000000 1.0
C      1  0.5469640000000  0.4135770000000  0.4316810000000 1.0
C      1  0.4006600000000  0.5003900000000  0.5208100000000 1.0
C      1  0.5055050000000  0.5628660000000  0.4446550000000 1.0
C      1  0.5346230000000  0.5270120000000  0.3892170000000 1.0
C      1  0.3878600000000  0.4107320000000  0.5580070000000 1.0
C      1  0.4529720000000  0.3981090000000  0.4527540000000 1.0
C      1  0.5712150000000  0.5371860000000  0.4301960000000 1.0
C      1  0.5624910000000  0.4353320000000  0.4289770000000 1.0
C      1  0.6103610000000  0.5174810000000  0.5315100000000 1.0
C      1  0.5827230000000  0.4261760000000  0.5557660000000 1.0
C      1  0.4316360000000  0.4159430000000  0.5325010000000 1.0
C      1  0.4301010000000  0.4411180000000  0.4335230000000 1.0
C      1  0.5030500000000  0.5177300000000  0.4845770000000 1.0
C      1  0.4683620000000  0.5385720000000  0.4392760000000 1.0
C      1  0.5139910000000  0.4497850000000  0.5897860000000 1.0
C      1  0.4481590000000  0.5803060000000  0.4124220000000 1.0
C      1  0.4066070000000  0.5146140000000  0.3809280000000 1.0
C      1  0.4642070000000  0.5539250000000  0.4656510000000 1.0
C      1  0.5753900000000  0.4563840000000  0.4433770000000 1.0
C      1  0.5972350000000  0.5820530000000  0.4862700000000 1.0
C      1  0.4125040000000  0.5469840000000  0.5154330000000 1.0
C      1  0.5439480000000  0.5446350000000  0.5834530000000 1.0
C      1  0.4141570000000  0.5271790000000  0.4508400000000 1.0
C      1  0.4912380000000  0.4457230000000  0.4701880000000 1.0
C      1  0.4899080000000  0.4988160000000  0.5420450000000 1.0
C      1  0.4972010000000  0.6024600000000  0.4136730000000 1.0
END
