TITL C-3201378-2706-1406 9137.26587498733 125000 -1040.83330539411 0 0 173 (C1) n - 1
REM
REM in /home/nfs/bkarasulu/CARBON/AIRSS/Generating-Clusters/LCBOP/Higher-Symm/SD-CG/FIRE-CG
REM
REM
REM
REM
REM
REM ./C.cell (b20cbc046b6831c77cfcea5457e17084)
REM AIRSS Version 0.9.1 bugfix July 2018 build 013d7b7c2542+ Fri, 06 Jul 2018 19:26:36 +0100
REM compiler GCC version 9.2.1 20190827 (Red Hat 9.2.1-1)
REM options -cpp -mtune=generic -march=x86-64 -g -O0 -fpre-include=/usr/include/finclude/math-vector-fortran.h
REM seed -704629610 -274324552 234127656 1047283014 -918847975 460851123 -211015737 1192027586 84090919 -697103497 -1808633542 -1609103767 1171599412 -1916549851 -1202510214 1863740712 2003016337 -1062023776 730449308 754638390 -19866254 -998877328 1917781732 -1884263816 886635228 -2060634720 11360118 281979801 1625140367 1887509381 -498684486 1899436558 -1900655863
REM
CELL 1.54180   50.00000   50.00000   50.00000   90.00000   90.00000   90.00000
LATT -1
SFAC C  
C      1  0.4459510000000  0.4200540000000  0.5053890000000 1.0
C      1  0.5631050000000  0.5836130000000  0.5003710000000 1.0
C      1  0.5002850000000  0.3954340000000  0.5256290000000 1.0
C      1  0.5053990000000  0.6179850000000  0.4663470000000 1.0
C      1  0.4495000000000  0.4289580000000  0.4131340000000 1.0
C      1  0.5293130000000  0.5661190000000  0.6080530000000 1.0
C      1  0.5764270000000  0.4508330000000  0.5699850000000 1.0
C      1  0.4271180000000  0.5467540000000  0.4304300000000 1.0
C      1  0.5410810000000  0.5673460000000  0.5127930000000 1.0
C      1  0.4673530000000  0.4733120000000  0.4919050000000 1.0
C      1  0.4212180000000  0.5338960000000  0.5024110000000 1.0
C      1  0.5932740000000  0.4813610000000  0.5081530000000 1.0
C      1  0.4900650000000  0.6025150000000  0.3912980000000 1.0
C      1  0.5144790000000  0.3832660000000  0.5889000000000 1.0
C      1  0.4418660000000  0.3882270000000  0.3788760000000 1.0
C      1  0.4795660000000  0.5709730000000  0.5949610000000 1.0
C      1  0.5481820000000  0.6272940000000  0.5297330000000 1.0
C      1  0.4647580000000  0.3784000000000  0.4785350000000 1.0
C      1  0.4326250000000  0.4236390000000  0.5852840000000 1.0
C      1  0.5575770000000  0.5411680000000  0.4088560000000 1.0
C      1  0.5512000000000  0.4931470000000  0.5616020000000 1.0
C      1  0.4417820000000  0.4996670000000  0.4427810000000 1.0
C      1  0.4406750000000  0.5345370000000  0.6022180000000 1.0
C      1  0.5500060000000  0.4511290000000  0.4155870000000 1.0
C      1  0.5617460000000  0.5632610000000  0.5540990000000 1.0
C      1  0.3893870000000  0.4620480000000  0.4304520000000 1.0
C      1  0.5839330000000  0.5545270000000  0.5357030000000 1.0
C      1  0.3877510000000  0.4678620000000  0.4566120000000 1.0
C      1  0.5203620000000  0.5652110000000  0.3923520000000 1.0
C      1  0.4779900000000  0.4130200000000  0.5975190000000 1.0
C      1  0.4668280000000  0.5162540000000  0.5505190000000 1.0
C      1  0.5407330000000  0.4895920000000  0.4522150000000 1.0
C      1  0.4059140000000  0.4753840000000  0.4768360000000 1.0
C      1  0.5888410000000  0.5265220000000  0.5448840000000 1.0
C      1  0.4565460000000  0.5985820000000  0.5645570000000 1.0
C      1  0.5560240000000  0.4060090000000  0.4645370000000 1.0
C      1  0.4287580000000  0.4912240000000  0.4676140000000 1.0
C      1  0.5697010000000  0.5167800000000  0.5653270000000 1.0
C      1  0.4688890000000  0.4328110000000  0.5178040000000 1.0
C      1  0.5487080000000  0.5935600000000  0.4726820000000 1.0
C      1  0.5266250000000  0.5429770000000  0.4774930000000 1.0
C      1  0.4668880000000  0.4610110000000  0.5168670000000 1.0
C      1  0.5992070000000  0.4588120000000  0.4948330000000 1.0
C      1  0.4107730000000  0.5558430000000  0.5138640000000 1.0
C      1  0.5141690000000  0.5230120000000  0.5665560000000 1.0
C      1  0.4533180000000  0.4749710000000  0.4279600000000 1.0
C      1  0.5336610000000  0.5698170000000  0.5416190000000 1.0
C      1  0.4676090000000  0.4283330000000  0.4357240000000 1.0
C      1  0.5613810000000  0.5436400000000  0.5767680000000 1.0
C      1  0.4082330000000  0.4582930000000  0.4117140000000 1.0
C      1  0.4996530000000  0.4404260000000  0.4679330000000 1.0
C      1  0.4982240000000  0.5766300000000  0.5105400000000 1.0
C      1  0.5235380000000  0.3906890000000  0.5122070000000 1.0
C      1  0.4797120000000  0.6208310000000  0.4766810000000 1.0
C      1  0.5868510000000  0.5640720000000  0.5076780000000 1.0
C      1  0.4222580000000  0.4361860000000  0.5024600000000 1.0
C      1  0.4529510000000  0.5161260000000  0.3806140000000 1.0
C      1  0.5446090000000  0.4645930000000  0.6260030000000 1.0
C      1  0.5790520000000  0.4114880000000  0.5074380000000 1.0
C      1  0.4532750000000  0.6191250000000  0.4787350000000 1.0
C      1  0.4477010000000  0.4933950000000  0.4880670000000 1.0
C      1  0.5706560000000  0.5235680000000  0.4932700000000 1.0
C      1  0.5262950000000  0.5733110000000  0.4199600000000 1.0
C      1  0.4796040000000  0.4328720000000  0.5758670000000 1.0
C      1  0.5075070000000  0.5742630000000  0.4419450000000 1.0
C      1  0.5007280000000  0.4342990000000  0.5561090000000 1.0
C      1  0.4515400000000  0.4744900000000  0.5358860000000 1.0
C      1  0.5503120000000  0.5285900000000  0.4739220000000 1.0
C      1  0.5548590000000  0.5684950000000  0.4225250000000 1.0
C      1  0.4526090000000  0.4416810000000  0.5721920000000 1.0
C      1  0.4676890000000  0.3575590000000  0.5467730000000 1.0
C      1  0.5480920000000  0.6392630000000  0.4552480000000 1.0
C      1  0.4357960000000  0.5527880000000  0.5809460000000 1.0
C      1  0.5772010000000  0.4477990000000  0.4237090000000 1.0
C      1  0.4071610000000  0.4612800000000  0.5032240000000 1.0
C      1  0.5928740000000  0.5417940000000  0.4897030000000 1.0
C      1  0.4987510000000  0.4616130000000  0.4018420000000 1.0
C      1  0.4885380000000  0.5177850000000  0.6156110000000 1.0
C      1  0.4078840000000  0.4314500000000  0.5717910000000 1.0
C      1  0.5705160000000  0.5263140000000  0.4300170000000 1.0
C      1  0.4935640000000  0.4473910000000  0.3792300000000 1.0
C      1  0.5012240000000  0.5095610000000  0.6384300000000 1.0
C      1  0.5741220000000  0.4236440000000  0.5592680000000 1.0
C      1  0.4293510000000  0.5754380000000  0.4325660000000 1.0
C      1  0.4972950000000  0.5762780000000  0.3814010000000 1.0
C      1  0.5031070000000  0.4037600000000  0.6058310000000 1.0
C      1  0.5033930000000  0.5291370000000  0.5933770000000 1.0
C      1  0.4799340000000  0.4797580000000  0.4153900000000 1.0
C      1  0.5817050000000  0.4143320000000  0.5339380000000 1.0
C      1  0.4195130000000  0.5928760000000  0.4519150000000 1.0
C      1  0.5023910000000  0.6134150000000  0.5456630000000 1.0
C      1  0.5048870000000  0.3949460000000  0.4529610000000 1.0
C      1  0.4300040000000  0.6094930000000  0.4700270000000 1.0
C      1  0.5748070000000  0.4197360000000  0.4805380000000 1.0
C      1  0.4556640000000  0.5819660000000  0.4192420000000 1.0
C      1  0.5472140000000  0.4151990000000  0.5710240000000 1.0
C      1  0.5798060000000  0.5706970000000  0.4365350000000 1.0
C      1  0.4394110000000  0.4593770000000  0.5552620000000 1.0
C      1  0.4101830000000  0.5627580000000  0.5399090000000 1.0
C      1  0.5881660000000  0.4440320000000  0.4730970000000 1.0
C      1  0.5211650000000  0.6403620000000  0.4585910000000 1.0
C      1  0.4849330000000  0.3740960000000  0.5353190000000 1.0
C      1  0.5330530000000  0.3889890000000  0.5692900000000 1.0
C      1  0.4721490000000  0.6056960000000  0.4121430000000 1.0
C      1  0.5190650000000  0.5922720000000  0.4631090000000 1.0
C      1  0.4916660000000  0.4218780000000  0.5313050000000 1.0
C      1  0.5085110000000  0.5878890000000  0.5359830000000 1.0
C      1  0.4925110000000  0.4199450000000  0.4485130000000 1.0
C      1  0.5935750000000  0.4333320000000  0.4069310000000 1.0
C      1  0.4555100000000  0.5746500000000  0.5797730000000 1.0
C      1  0.5227280000000  0.4235890000000  0.6141660000000 1.0
C      1  0.4751400000000  0.5582950000000  0.3797830000000 1.0
C      1  0.4518620000000  0.5700570000000  0.3912050000000 1.0
C      1  0.5479930000000  0.4181610000000  0.6015870000000 1.0
C      1  0.5641160000000  0.6102570000000  0.5160590000000 1.0
C      1  0.4494110000000  0.3952810000000  0.4925840000000 1.0
C      1  0.4966760000000  0.5021590000000  0.4291230000000 1.0
C      1  0.4862420000000  0.4808320000000  0.5878130000000 1.0
C      1  0.5395820000000  0.4770270000000  0.4779200000000 1.0
C      1  0.4762040000000  0.5369400000000  0.5325530000000 1.0
C      1  0.4273470000000  0.5193890000000  0.3887660000000 1.0
C      1  0.5702130000000  0.4653800000000  0.6173620000000 1.0
C      1  0.5545760000000  0.5138310000000  0.4501990000000 1.0
C      1  0.4482410000000  0.5022450000000  0.5337230000000 1.0
C      1  0.4043310000000  0.5186340000000  0.5567420000000 1.0
C      1  0.6039350000000  0.4828460000000  0.4489900000000 1.0
C      1  0.4945330000000  0.5224420000000  0.4069620000000 1.0
C      1  0.4996920000000  0.4669210000000  0.6065160000000 1.0
C      1  0.5851810000000  0.4583390000000  0.5958530000000 1.0
C      1  0.4150810000000  0.5332840000000  0.4085610000000 1.0
C      1  0.5293830000000  0.4409050000000  0.5615070000000 1.0
C      1  0.4755600000000  0.5599450000000  0.4376660000000 1.0
C      1  0.4440090000000  0.5159830000000  0.5066090000000 1.0
C      1  0.5710460000000  0.4983380000000  0.5061380000000 1.0
C      1  0.4758560000000  0.4996900000000  0.5715720000000 1.0
C      1  0.5224670000000  0.4862580000000  0.4318590000000 1.0
C      1  0.4604870000000  0.5219070000000  0.6151360000000 1.0
C      1  0.5249390000000  0.4639210000000  0.4140850000000 1.0
C      1  0.4157350000000  0.5450580000000  0.5613520000000 1.0
C      1  0.5891710000000  0.4580940000000  0.4479100000000 1.0
C      1  0.5199660000000  0.4518320000000  0.6191560000000 1.0
C      1  0.4770200000000  0.5304180000000  0.3857980000000 1.0
C      1  0.5263720000000  0.5019260000000  0.5502210000000 1.0
C      1  0.4903790000000  0.5131510000000  0.4579960000000 1.0
C      1  0.4872900000000  0.3758430000000  0.4640110000000 1.0
C      1  0.5240500000000  0.6312210000000  0.5415560000000 1.0
C      1  0.4699570000000  0.5321340000000  0.5042140000000 1.0
C      1  0.5457420000000  0.4853250000000  0.5049110000000 1.0
C      1  0.4760970000000  0.6153660000000  0.5559260000000 1.0
C      1  0.5330380000000  0.3952240000000  0.4557690000000 1.0
C      1  0.4494510000000  0.3433440000000  0.5588060000000 1.0
C      1  0.5619100000000  0.6165280000000  0.4609530000000 1.0
C      1  0.3965820000000  0.4974280000000  0.5411370000000 1.0
C      1  0.6123900000000  0.5065270000000  0.4593910000000 1.0
C      1  0.4111760000000  0.4532050000000  0.5522900000000 1.0
C      1  0.5910820000000  0.5447610000000  0.4418780000000 1.0
C      1  0.5526220000000  0.5542350000000  0.6012260000000 1.0
C      1  0.4361700000000  0.4553620000000  0.4112910000000 1.0
C      1  0.4790040000000  0.4597140000000  0.4709810000000 1.0
C      1  0.5182950000000  0.5608520000000  0.4969790000000 1.0
C      1  0.5508520000000  0.4639670000000  0.5630100000000 1.0
C      1  0.4512040000000  0.5331610000000  0.4401520000000 1.0
C      1  0.4886420000000  0.5186690000000  0.4864980000000 1.0
C      1  0.5245230000000  0.4953720000000  0.5216960000000 1.0
C      1  0.5038970000000  0.5578240000000  0.5994190000000 1.0
C      1  0.4450090000000  0.4078540000000  0.3957260000000 1.0
C      1  0.4498880000000  0.4073710000000  0.6016910000000 1.0
C      1  0.5389540000000  0.5438360000000  0.3872030000000 1.0
C      1  0.4620610000000  0.4545520000000  0.4489220000000 1.0
C      1  0.5185030000000  0.5467340000000  0.5522800000000 1.0
C      1  0.6047940000000  0.5339570000000  0.4642420000000 1.0
C      1  0.4002150000000  0.4703320000000  0.5312910000000 1.0
C      1  0.5040620000000  0.5035750000000  0.5048310000000 1.0
END
