TITL C-3201375-1262-1214 -1.15333641181716e-07 125000 -31.1856428631268 0 0 6 (D(inf)h) n - 1
REM
REM in /home/nfs/bkarasulu/CARBON/AIRSS/Generating-Clusters/LCBOP/Higher-Symm/SD-CG/FIRE-CG
REM
REM
REM
REM
REM
REM ./C.cell (b20cbc046b6831c77cfcea5457e17084)
REM AIRSS Version 0.9.1 bugfix July 2018 build 013d7b7c2542+ Fri, 06 Jul 2018 19:26:36 +0100
REM compiler GCC version 9.2.1 20190827 (Red Hat 9.2.1-1)
REM options -cpp -mtune=generic -march=x86-64 -g -O0 -fpre-include=/usr/include/finclude/math-vector-fortran.h
REM seed -2094230402 270855365 2083793819 1552742812 -1162250192 -309170687 -911823661 1052564783 -385237428 90265428 -1238785339 794393577 -504462250 852609435 318122334 -506668672 -310141525 1800061256 1806386739 -1012787668 -2140577807 -980235050 795213267 -552462982 1760115458 601070171 -1859359240 356776659 -627372147 -161657431 -216627356 922708691 891276768
REM
CELL 1.54180   50.00000   50.00000   50.00000   90.00000   90.00000   90.00000
LATT -1
SFAC C  
C      1  0.4363610000000  0.4831700000000  0.5051580000000 1.0
C      1  0.5636390000000  0.5168300000000  0.5051580000000 1.0
C      1  0.4615650000000  0.4898350000000  0.5051580000000 1.0
C      1  0.5384350000000  0.5101650000000  0.5051580000000 1.0
C      1  0.4871910000000  0.4966120000000  0.5051580000000 1.0
C      1  0.5128090000000  0.5033880000000  0.5051580000000 1.0
END
