TITL C-3201375-1262-840 -1.30081214371958e-06 125000 -1171.01253997343 0 0 191 (C1) n - 1
REM
REM in /home/nfs/bkarasulu/CARBON/AIRSS/Generating-Clusters/LCBOP/Higher-Symm/SD-CG/FIRE-CG
REM
REM
REM
REM
REM
REM ./C.cell (b20cbc046b6831c77cfcea5457e17084)
REM AIRSS Version 0.9.1 bugfix July 2018 build 013d7b7c2542+ Fri, 06 Jul 2018 19:26:36 +0100
REM compiler GCC version 9.2.1 20190827 (Red Hat 9.2.1-1)
REM options -cpp -mtune=generic -march=x86-64 -g -O0 -fpre-include=/usr/include/finclude/math-vector-fortran.h
REM seed -339952432 -1491678268 -2140440277 -2055114999 -247199428 1994321186 2048007101 290990171 -1903352573 259081810 216795947 1423469510 295369154 -1415469417 1966352386 272993884 1142857205 1367503111 1866916194 -641066264 1750029517 -1406142454 187262403 -990757682 -433115993 285084329 1267908951 -2118569464 -743362527 -1630299265 -2005506335 2105761179 70414493
REM
CELL 1.54180   50.00000   50.00000   50.00000   90.00000   90.00000   90.00000
LATT -1
SFAC C  
C      1  0.5591260000000  0.5776400000000  0.4584580000000 1.0
C      1  0.5556580000000  0.4230340000000  0.5395450000000 1.0
C      1  0.4414330000000  0.5787090000000  0.4485010000000 1.0
C      1  0.4503880000000  0.4230680000000  0.5392110000000 1.0
C      1  0.5559090000000  0.4197640000000  0.4454670000000 1.0
C      1  0.5597790000000  0.5762520000000  0.5508280000000 1.0
C      1  0.4426670000000  0.4180520000000  0.4568970000000 1.0
C      1  0.4431120000000  0.5727590000000  0.5350940000000 1.0
C      1  0.5338030000000  0.5649670000000  0.4562520000000 1.0
C      1  0.5283950000000  0.4313220000000  0.5446890000000 1.0
C      1  0.4690210000000  0.5734670000000  0.4535630000000 1.0
C      1  0.4782410000000  0.4307510000000  0.5432070000000 1.0
C      1  0.5292110000000  0.4275930000000  0.4522470000000 1.0
C      1  0.5316510000000  0.5692640000000  0.5509030000000 1.0
C      1  0.4673190000000  0.4307150000000  0.4523750000000 1.0
C      1  0.4701200000000  0.5706630000000  0.5469780000000 1.0
C      1  0.4853780000000  0.4739610000000  0.4555280000000 1.0
C      1  0.4915110000000  0.5273720000000  0.5299950000000 1.0
C      1  0.5116570000000  0.4721150000000  0.4404760000000 1.0
C      1  0.5097040000000  0.5240620000000  0.5570490000000 1.0
C      1  0.4861780000000  0.5301230000000  0.4545380000000 1.0
C      1  0.4827530000000  0.4782070000000  0.5633090000000 1.0
C      1  0.5097740000000  0.5238440000000  0.4758880000000 1.0
C      1  0.5118500000000  0.4852860000000  0.5145380000000 1.0
C      1  0.5213480000000  0.5635740000000  0.5977880000000 1.0
C      1  0.5226410000000  0.4321830000000  0.4048960000000 1.0
C      1  0.4671510000000  0.5509770000000  0.5948960000000 1.0
C      1  0.4682730000000  0.4459900000000  0.4045650000000 1.0
C      1  0.5312520000000  0.4531550000000  0.5928450000000 1.0
C      1  0.5320480000000  0.5470130000000  0.4095850000000 1.0
C      1  0.4765470000000  0.4379360000000  0.5936030000000 1.0
C      1  0.4785620000000  0.5633520000000  0.4084960000000 1.0
C      1  0.5879340000000  0.5997680000000  0.4918270000000 1.0
C      1  0.5847240000000  0.4023760000000  0.5053600000000 1.0
C      1  0.4101550000000  0.5928220000000  0.4830780000000 1.0
C      1  0.4126450000000  0.3999180000000  0.5164910000000 1.0
C      1  0.5880070000000  0.4067880000000  0.4789900000000 1.0
C      1  0.5874180000000  0.6005980000000  0.5187810000000 1.0
C      1  0.4112350000000  0.3985970000000  0.4895860000000 1.0
C      1  0.4111290000000  0.5993650000000  0.5092620000000 1.0
C      1  0.4604290000000  0.5542130000000  0.4952260000000 1.0
C      1  0.4491360000000  0.4651770000000  0.5037070000000 1.0
C      1  0.5694210000000  0.5346190000000  0.4886120000000 1.0
C      1  0.5591770000000  0.4611900000000  0.5083770000000 1.0
C      1  0.4319760000000  0.4645080000000  0.4809460000000 1.0
C      1  0.4446020000000  0.5497420000000  0.5172520000000 1.0
C      1  0.5439050000000  0.4471060000000  0.4922390000000 1.0
C      1  0.5545100000000  0.5403090000000  0.5116100000000 1.0
C      1  0.5913990000000  0.5523310000000  0.4841970000000 1.0
C      1  0.6005390000000  0.4429350000000  0.5233060000000 1.0
C      1  0.4166060000000  0.5440970000000  0.4717640000000 1.0
C      1  0.4050480000000  0.4459240000000  0.5330460000000 1.0
C      1  0.5831050000000  0.4543550000000  0.4649110000000 1.0
C      1  0.6068820000000  0.5597810000000  0.5342650000000 1.0
C      1  0.4107610000000  0.4456600000000  0.4803190000000 1.0
C      1  0.3959280000000  0.5586760000000  0.5284590000000 1.0
C      1  0.5735160000000  0.4710600000000  0.5547160000000 1.0
C      1  0.5784820000000  0.5177930000000  0.4435580000000 1.0
C      1  0.4210220000000  0.4657130000000  0.5458250000000 1.0
C      1  0.4134100000000  0.5128480000000  0.4362410000000 1.0
C      1  0.5794700000000  0.5282850000000  0.5542950000000 1.0
C      1  0.5813270000000  0.4905870000000  0.4345110000000 1.0
C      1  0.4233810000000  0.5264970000000  0.5542660000000 1.0
C      1  0.4159830000000  0.4842010000000  0.4384650000000 1.0
C      1  0.5351950000000  0.5137350000000  0.5458310000000 1.0
C      1  0.5370450000000  0.4811390000000  0.4542320000000 1.0
C      1  0.4658840000000  0.5131970000000  0.5361870000000 1.0
C      1  0.4622860000000  0.4898130000000  0.4522340000000 1.0
C      1  0.5329370000000  0.4886070000000  0.5336900000000 1.0
C      1  0.5348010000000  0.5076510000000  0.4653090000000 1.0
C      1  0.4641250000000  0.4864770000000  0.5439910000000 1.0
C      1  0.4603770000000  0.5177480000000  0.4537190000000 1.0
C      1  0.3860480000000  0.5195550000000  0.4432210000000 1.0
C      1  0.4088700000000  0.4831070000000  0.5641510000000 1.0
C      1  0.6045080000000  0.5296920000000  0.4467530000000 1.0
C      1  0.5938980000000  0.4849210000000  0.5654130000000 1.0
C      1  0.3905540000000  0.4721450000000  0.4439710000000 1.0
C      1  0.4017310000000  0.5090480000000  0.5557720000000 1.0
C      1  0.6095790000000  0.4839710000000  0.4365880000000 1.0
C      1  0.6010370000000  0.5102480000000  0.5555390000000 1.0
C      1  0.6236300000000  0.4868640000000  0.5203540000000 1.0
C      1  0.6202840000000  0.5181930000000  0.4696060000000 1.0
C      1  0.3735060000000  0.4849110000000  0.5259380000000 1.0
C      1  0.3801340000000  0.5099130000000  0.4707040000000 1.0
C      1  0.6187760000000  0.5116520000000  0.5331020000000 1.0
C      1  0.6189900000000  0.4888550000000  0.4642530000000 1.0
C      1  0.3841980000000  0.5103830000000  0.5329270000000 1.0
C      1  0.3792540000000  0.4798830000000  0.4702530000000 1.0
C      1  0.4384560000000  0.4763140000000  0.3853910000000 1.0
C      1  0.4381270000000  0.5228210000000  0.6179220000000 1.0
C      1  0.5556060000000  0.4608510000000  0.3837720000000 1.0
C      1  0.5554240000000  0.5369660000000  0.6196420000000 1.0
C      1  0.4445140000000  0.5352850000000  0.3880810000000 1.0
C      1  0.4432230000000  0.4656290000000  0.6148610000000 1.0
C      1  0.5610990000000  0.5200530000000  0.3845840000000 1.0
C      1  0.5600790000000  0.4788660000000  0.6189430000000 1.0
C      1  0.5323270000000  0.5569570000000  0.5051710000000 1.0
C      1  0.5259040000000  0.4295210000000  0.4803340000000 1.0
C      1  0.4905830000000  0.5582940000000  0.5287120000000 1.0
C      1  0.4783360000000  0.4504350000000  0.4700550000000 1.0
C      1  0.4991940000000  0.4597780000000  0.5118150000000 1.0
C      1  0.5226020000000  0.5521800000000  0.4794260000000 1.0
C      1  0.4751620000000  0.4567420000000  0.4968950000000 1.0
C      1  0.4744070000000  0.5738050000000  0.4813550000000 1.0
C      1  0.4829180000000  0.4665590000000  0.3887290000000 1.0
C      1  0.4825300000000  0.5318100000000  0.6119890000000 1.0
C      1  0.5096760000000  0.4617600000000  0.3847280000000 1.0
C      1  0.5096410000000  0.5381600000000  0.6154510000000 1.0
C      1  0.4901270000000  0.5332460000000  0.3906950000000 1.0
C      1  0.4894000000000  0.4661710000000  0.6148350000000 1.0
C      1  0.5168900000000  0.5280950000000  0.3924590000000 1.0
C      1  0.5159690000000  0.4714830000000  0.6108160000000 1.0
C      1  0.4744330000000  0.6360960000000  0.4757460000000 1.0
C      1  0.4726750000000  0.3758710000000  0.5265190000000 1.0
C      1  0.4948740000000  0.6238890000000  0.4568890000000 1.0
C      1  0.4935930000000  0.3782350000000  0.5460690000000 1.0
C      1  0.5065060000000  0.3823160000000  0.4625620000000 1.0
C      1  0.5059570000000  0.6212130000000  0.5427860000000 1.0
C      1  0.5276180000000  0.3727950000000  0.4813620000000 1.0
C      1  0.5275890000000  0.6219980000000  0.5235440000000 1.0
C      1  0.5790020000000  0.4261810000000  0.4607330000000 1.0
C      1  0.5855430000000  0.5793230000000  0.5375540000000 1.0
C      1  0.4188820000000  0.4194630000000  0.4723230000000 1.0
C      1  0.4151790000000  0.5806990000000  0.5302720000000 1.0
C      1  0.5825980000000  0.5779730000000  0.4748000000000 1.0
C      1  0.5812440000000  0.4216200000000  0.5258860000000 1.0
C      1  0.4198050000000  0.5724110000000  0.4662900000000 1.0
C      1  0.4218090000000  0.4216230000000  0.5320100000000 1.0
C      1  0.4481890000000  0.4427180000000  0.6003810000000 1.0
C      1  0.4500150000000  0.5593950000000  0.4005570000000 1.0
C      1  0.5582470000000  0.4566610000000  0.6024150000000 1.0
C      1  0.5591710000000  0.5426980000000  0.4005810000000 1.0
C      1  0.4399060000000  0.5459170000000  0.6027350000000 1.0
C      1  0.4407350000000  0.4517500000000  0.3980850000000 1.0
C      1  0.5505360000000  0.5603870000000  0.6058380000000 1.0
C      1  0.5505960000000  0.4368290000000  0.3964540000000 1.0
C      1  0.5162560000000  0.4015670000000  0.4107150000000 1.0
C      1  0.5147580000000  0.5944470000000  0.5917290000000 1.0
C      1  0.5097550000000  0.3871190000000  0.4339090000000 1.0
C      1  0.5094690000000  0.6113460000000  0.5701980000000 1.0
C      1  0.4912410000000  0.6133900000000  0.4300270000000 1.0
C      1  0.4890920000000  0.3888860000000  0.5723390000000 1.0
C      1  0.4859330000000  0.5942510000000  0.4105760000000 1.0
C      1  0.4834940000000  0.4081770000000  0.5908810000000 1.0
C      1  0.5195380000000  0.3768450000000  0.5336100000000 1.0
C      1  0.5105160000000  0.6083590000000  0.4774400000000 1.0
C      1  0.4703710000000  0.3830730000000  0.5002930000000 1.0
C      1  0.4740350000000  0.6205700000000  0.5015850000000 1.0
C      1  0.5295800000000  0.6180050000000  0.4964620000000 1.0
C      1  0.5266530000000  0.3866680000000  0.5077250000000 1.0
C      1  0.4807040000000  0.6261730000000  0.5290050000000 1.0
C      1  0.4884890000000  0.3965470000000  0.4827360000000 1.0
C      1  0.5123950000000  0.5528130000000  0.5699880000000 1.0
C      1  0.5120730000000  0.4426780000000  0.4316550000000 1.0
C      1  0.4800140000000  0.5616880000000  0.5723540000000 1.0
C      1  0.4809070000000  0.4350000000000  0.4275720000000 1.0
C      1  0.5187230000000  0.4434360000000  0.5693810000000 1.0
C      1  0.5196830000000  0.5584770000000  0.4326310000000 1.0
C      1  0.4878570000000  0.4486910000000  0.5675730000000 1.0
C      1  0.4881600000000  0.5554290000000  0.4370180000000 1.0
C      1  0.3839440000000  0.4596070000000  0.5170360000000 1.0
C      1  0.3949200000000  0.5296350000000  0.4874930000000 1.0
C      1  0.6112190000000  0.4645640000000  0.5078160000000 1.0
C      1  0.6155520000000  0.5376030000000  0.4911480000000 1.0
C      1  0.3891590000000  0.5334800000000  0.5156380000000 1.0
C      1  0.3865220000000  0.4583970000000  0.4886810000000 1.0
C      1  0.6187310000000  0.5371580000000  0.5197520000000 1.0
C      1  0.6053990000000  0.4675920000000  0.4798100000000 1.0
C      1  0.4424890000000  0.5275670000000  0.5338550000000 1.0
C      1  0.4374170000000  0.4767620000000  0.4557220000000 1.0
C      1  0.5570410000000  0.5291340000000  0.5375490000000 1.0
C      1  0.5648310000000  0.4722440000000  0.4495920000000 1.0
C      1  0.4442990000000  0.4719350000000  0.5310050000000 1.0
C      1  0.4325550000000  0.5273460000000  0.4530650000000 1.0
C      1  0.5559150000000  0.4730290000000  0.5330670000000 1.0
C      1  0.5600500000000  0.5211840000000  0.4655490000000 1.0
C      1  0.5327000000000  0.4781480000000  0.3799760000000 1.0
C      1  0.5319310000000  0.5202390000000  0.6227680000000 1.0
C      1  0.4645280000000  0.4893440000000  0.3825820000000 1.0
C      1  0.4643090000000  0.5100600000000  0.6210000000000 1.0
C      1  0.5351610000000  0.5067710000000  0.3815670000000 1.0
C      1  0.5341240000000  0.4921130000000  0.6216960000000 1.0
C      1  0.4671980000000  0.5176000000000  0.3844520000000 1.0
C      1  0.4664800000000  0.4817730000000  0.6203500000000 1.0
C      1  0.5102680000000  0.4123570000000  0.4997370000000 1.0
C      1  0.4875800000000  0.5959250000000  0.4919010000000 1.0
C      1  0.5174160000000  0.5680820000000  0.5257920000000 1.0
C      1  0.5046760000000  0.4316440000000  0.5240500000000 1.0
C      1  0.5077540000000  0.4932670000000  0.4197450000000 1.0
C      1  0.4983130000000  0.5004090000000  0.5724850000000 1.0
C      1  0.5022360000000  0.5117070000000  0.5046780000000 1.0
END
