TITL C-3201379-3821-2220 -1.00431231732229e-06 125000 -750.645791116945 0 0 124 (C1) n - 1
REM
REM in /home/nfs/bkarasulu/CARBON/AIRSS/Generating-Clusters/LCBOP/Higher-Symm/SD-CG/FIRE-CG
REM
REM
REM
REM
REM
REM ./C.cell (b20cbc046b6831c77cfcea5457e17084)
REM AIRSS Version 0.9.1 bugfix July 2018 build 013d7b7c2542+ Fri, 06 Jul 2018 19:26:36 +0100
REM compiler GCC version 9.2.1 20190827 (Red Hat 9.2.1-1)
REM options -cpp -mtune=generic -march=x86-64 -g -O0 -fpre-include=/usr/include/finclude/math-vector-fortran.h
REM seed 1746663581 1312057143 1697681900 243312896 596555168 1387570993 1037767777 2084699316 -256514632 -1509112143 -1032976144 1517051462 -1960704151 -1498963285 -1554373348 -1722946104 -962506929 -2089017247 1637440209 -2000755091 614004580 1131529209 -392926712 -1120329047 1056820439 859852653 -388383094 783115606 1757263377 615037933 -61567963 -251372528 95052685
REM
CELL 1.54180   50.00000   50.00000   50.00000   90.00000   90.00000   90.00000
LATT -1
SFAC C  
C      1  0.4773880000000  0.5035580000000  0.3900170000000 1.0
C      1  0.4868610000000  0.5687630000000  0.5623720000000 1.0
C      1  0.5013920000000  0.4773780000000  0.5801750000000 1.0
C      1  0.4270830000000  0.4614910000000  0.4446050000000 1.0
C      1  0.4980920000000  0.5432840000000  0.5744950000000 1.0
C      1  0.5266560000000  0.4833460000000  0.4508460000000 1.0
C      1  0.5621730000000  0.4869750000000  0.5365180000000 1.0
C      1  0.4935460000000  0.5259710000000  0.3872630000000 1.0
C      1  0.4137060000000  0.5475960000000  0.4347160000000 1.0
C      1  0.5615110000000  0.5232890000000  0.5756630000000 1.0
C      1  0.4747630000000  0.5258220000000  0.5839340000000 1.0
C      1  0.5355090000000  0.4685000000000  0.3969300000000 1.0
C      1  0.4768530000000  0.5755550000000  0.4132860000000 1.0
C      1  0.3627860000000  0.5533500000000  0.4897120000000 1.0
C      1  0.4459650000000  0.4892210000000  0.4875910000000 1.0
C      1  0.3891880000000  0.5498810000000  0.4815110000000 1.0
C      1  0.3382970000000  0.5562110000000  0.4981540000000 1.0
C      1  0.4542400000000  0.4212180000000  0.5448780000000 1.0
C      1  0.5842090000000  0.4096790000000  0.5217610000000 1.0
C      1  0.4887440000000  0.4778330000000  0.6312970000000 1.0
C      1  0.4618010000000  0.5366760000000  0.5347910000000 1.0
C      1  0.4869720000000  0.5974110000000  0.4033290000000 1.0
C      1  0.5073480000000  0.5791930000000  0.5438630000000 1.0
C      1  0.5521320000000  0.5100050000000  0.6002840000000 1.0
C      1  0.5979860000000  0.4987010000000  0.4838130000000 1.0
C      1  0.4671110000000  0.4891190000000  0.5069390000000 1.0
C      1  0.5926400000000  0.5181480000000  0.5032770000000 1.0
C      1  0.4690380000000  0.5840090000000  0.5207840000000 1.0
C      1  0.5093910000000  0.4112020000000  0.5051840000000 1.0
C      1  0.4192840000000  0.4924790000000  0.5480770000000 1.0
C      1  0.5456260000000  0.5341490000000  0.4913030000000 1.0
C      1  0.4602300000000  0.4074790000000  0.5200440000000 1.0
C      1  0.4504520000000  0.4808960000000  0.5791270000000 1.0
C      1  0.5795100000000  0.5662120000000  0.4987550000000 1.0
C      1  0.5359030000000  0.4191070000000  0.5126290000000 1.0
C      1  0.4824550000000  0.5345110000000  0.4392260000000 1.0
C      1  0.5549650000000  0.4828450000000  0.6061680000000 1.0
C      1  0.4783470000000  0.4229040000000  0.5607660000000 1.0
C      1  0.4881910000000  0.3971730000000  0.5193730000000 1.0
C      1  0.4866800000000  0.5257870000000  0.4844140000000 1.0
C      1  0.4954310000000  0.4774950000000  0.6060880000000 1.0
C      1  0.5553640000000  0.5902390000000  0.5356790000000 1.0
C      1  0.4361910000000  0.4427740000000  0.5490990000000 1.0
C      1  0.5041590000000  0.4819520000000  0.5526620000000 1.0
C      1  0.4145220000000  0.5386940000000  0.5506010000000 1.0
C      1  0.4960290000000  0.4254440000000  0.4838640000000 1.0
C      1  0.4531760000000  0.4977050000000  0.4613350000000 1.0
C      1  0.5052370000000  0.4457470000000  0.4317110000000 1.0
C      1  0.4960680000000  0.5966130000000  0.5235180000000 1.0
C      1  0.5275070000000  0.4458130000000  0.4133590000000 1.0
C      1  0.4345990000000  0.5620310000000  0.4942320000000 1.0
C      1  0.4833660000000  0.5533930000000  0.4885390000000 1.0
C      1  0.5196930000000  0.5551620000000  0.5319890000000 1.0
C      1  0.5519920000000  0.4872110000000  0.4116840000000 1.0
C      1  0.5274670000000  0.5551720000000  0.5048320000000 1.0
C      1  0.4875520000000  0.4684910000000  0.5067630000000 1.0
C      1  0.5085860000000  0.5651930000000  0.4848470000000 1.0
C      1  0.4334460000000  0.4692580000000  0.5583010000000 1.0
C      1  0.5224860000000  0.5113160000000  0.4550590000000 1.0
C      1  0.5453160000000  0.5980930000000  0.5087090000000 1.0
C      1  0.4267000000000  0.5168650000000  0.5649810000000 1.0
C      1  0.5762300000000  0.4757500000000  0.4508110000000 1.0
C      1  0.5313080000000  0.5272610000000  0.6103200000000 1.0
C      1  0.5192520000000  0.5640100000000  0.4578360000000 1.0
C      1  0.4685540000000  0.3977460000000  0.6010140000000 1.0
C      1  0.4509920000000  0.5102790000000  0.5801150000000 1.0
C      1  0.4804540000000  0.4434190000000  0.4184470000000 1.0
C      1  0.4713320000000  0.4614440000000  0.3994430000000 1.0
C      1  0.4104490000000  0.5485990000000  0.5004390000000 1.0
C      1  0.4539840000000  0.4886030000000  0.4131140000000 1.0
C      1  0.4433980000000  0.4839150000000  0.4384490000000 1.0
C      1  0.3958900000000  0.5478200000000  0.4544080000000 1.0
C      1  0.5480290000000  0.4570010000000  0.6060520000000 1.0
C      1  0.4382550000000  0.5490930000000  0.4247520000000 1.0
C      1  0.5422770000000  0.4467690000000  0.5146920000000 1.0
C      1  0.4976160000000  0.4369630000000  0.5459060000000 1.0
C      1  0.5566390000000  0.5729390000000  0.5570400000000 1.0
C      1  0.4882940000000  0.4779220000000  0.3819120000000 1.0
C      1  0.5940080000000  0.4303160000000  0.4583440000000 1.0
C      1  0.4973930000000  0.4620520000000  0.5336980000000 1.0
C      1  0.5184770000000  0.5357370000000  0.3895750000000 1.0
C      1  0.5237020000000  0.5474200000000  0.5907850000000 1.0
C      1  0.4855060000000  0.4135080000000  0.5864900000000 1.0
C      1  0.5223410000000  0.5142430000000  0.4846040000000 1.0
C      1  0.5480050000000  0.5698040000000  0.4609250000000 1.0
C      1  0.5431430000000  0.5335380000000  0.4000780000000 1.0
C      1  0.4725320000000  0.4123440000000  0.4742940000000 1.0
C      1  0.4199840000000  0.4902500000000  0.4983720000000 1.0
C      1  0.5698190000000  0.5231220000000  0.4435480000000 1.0
C      1  0.5583610000000  0.5158770000000  0.4162120000000 1.0
C      1  0.5514090000000  0.4765650000000  0.4386630000000 1.0
C      1  0.5158640000000  0.4748810000000  0.3777040000000 1.0
C      1  0.5589580000000  0.5835750000000  0.4862540000000 1.0
C      1  0.5111780000000  0.5376370000000  0.4440990000000 1.0
C      1  0.4651200000000  0.5642510000000  0.5433060000000 1.0
C      1  0.5301650000000  0.4908040000000  0.5004360000000 1.0
C      1  0.4660170000000  0.5526430000000  0.4251060000000 1.0
C      1  0.5574980000000  0.5421080000000  0.4611890000000 1.0
C      1  0.4713310000000  0.3973840000000  0.4515560000000 1.0
C      1  0.4663910000000  0.5118640000000  0.5247020000000 1.0
C      1  0.6024260000000  0.4700700000000  0.4881890000000 1.0
C      1  0.5584360000000  0.4028520000000  0.5175950000000 1.0
C      1  0.6017540000000  0.4299640000000  0.5206280000000 1.0
C      1  0.5461580000000  0.4744730000000  0.5168350000000 1.0
C      1  0.4212030000000  0.4424730000000  0.4626530000000 1.0
C      1  0.5852990000000  0.5026270000000  0.4573730000000 1.0
C      1  0.6083830000000  0.4538120000000  0.5101810000000 1.0
C      1  0.4727860000000  0.5176680000000  0.4606570000000 1.0
C      1  0.5137500000000  0.5061640000000  0.5442580000000 1.0
C      1  0.4508530000000  0.4136970000000  0.4934220000000 1.0
C      1  0.4280080000000  0.4265040000000  0.4832250000000 1.0
C      1  0.5107710000000  0.4209560000000  0.5969040000000 1.0
C      1  0.4973030000000  0.4541450000000  0.4818310000000 1.0
C      1  0.5907850000000  0.4563490000000  0.4652400000000 1.0
C      1  0.5681920000000  0.5063590000000  0.5541110000000 1.0
C      1  0.5324640000000  0.4354740000000  0.6027600000000 1.0
C      1  0.5178130000000  0.6078640000000  0.5084370000000 1.0
C      1  0.5080840000000  0.4622640000000  0.4557540000000 1.0
C      1  0.5732720000000  0.5383520000000  0.5053200000000 1.0
C      1  0.4109560000000  0.5023930000000  0.5220180000000 1.0
C      1  0.4082800000000  0.5317550000000  0.5231290000000 1.0
C      1  0.5120260000000  0.5328550000000  0.5479660000000 1.0
C      1  0.4616230000000  0.5691710000000  0.4972810000000 1.0
C      1  0.5493110000000  0.5507120000000  0.5738220000000 1.0
END
