TITL C-3201372-1405-174 -2.30321848907395e-07 125000 -18.9723641415037 0 0 4 (D(inf)h) n - 1
REM
REM in /home/nfs/bkarasulu/CARBON/AIRSS/Generating-Clusters/LCBOP/Higher-Symm/SD-CG/FIRE-CG
REM
REM
REM
REM
REM
REM ./C.cell (b20cbc046b6831c77cfcea5457e17084)
REM AIRSS Version 0.9.1 bugfix July 2018 build 013d7b7c2542+ Fri, 06 Jul 2018 19:26:36 +0100
REM compiler GCC version 9.2.1 20190827 (Red Hat 9.2.1-1)
REM options -cpp -mtune=generic -march=x86-64 -g -O0 -fpre-include=/usr/include/finclude/math-vector-fortran.h
REM seed -1175497267 1716357349 -1770966279 -716616901 965670440 2006827505 978591614 -507022464 1565424990 -1639531852 -1246331238 -1364512578 -1361049756 2091866305 -473100589 462301087 -848246729 771865016 -1680865561 -1914370893 -1697863079 -387624882 -1020723379 469861137 -1747697670 -963037712 1590813301 1403972259 1800831026 -1774457937 -197211492 985830087 -201744124
REM
CELL 1.54180   50.00000   50.00000   50.00000   90.00000   90.00000   90.00000
LATT -1
SFAC C  
C      1  0.4991440000000  0.5014030000000  0.4606730000000 1.0
C      1  0.4991440000000  0.5014030000000  0.4867430000000 1.0
C      1  0.4991440000000  0.5014030000000  0.5393270000000 1.0
C      1  0.4991440000000  0.5014030000000  0.5132570000000 1.0
END
