TITL C-3201375-1262-1787 68860.4563492967 125000 -1169.99095606665 0 0 193 (C1) n - 1
REM
REM in /home/nfs/bkarasulu/CARBON/AIRSS/Generating-Clusters/LCBOP/Higher-Symm/SD-CG/FIRE-CG
REM
REM
REM
REM
REM
REM ./C.cell (b20cbc046b6831c77cfcea5457e17084)
REM AIRSS Version 0.9.1 bugfix July 2018 build 013d7b7c2542+ Fri, 06 Jul 2018 19:26:36 +0100
REM compiler GCC version 9.2.1 20190827 (Red Hat 9.2.1-1)
REM options -cpp -mtune=generic -march=x86-64 -g -O0 -fpre-include=/usr/include/finclude/math-vector-fortran.h
REM seed 1928381555 -22605679 -1650964309 1842365625 764266607 -1826211416 -1421268608 1674963235 1142841727 1974949262 914268789 -757615339 964598190 381456074 -1034539901 1364356006 225025854 -874014007 983978734 -1375770860 -201474711 -563809495 130903686 -1543001679 2064052775 549708541 -1213402614 2042949554 1867809678 -1949797942 1551120255 840750300 1640795126
REM
CELL 1.54180   50.00000   50.00000   50.00000   90.00000   90.00000   90.00000
LATT -1
SFAC C  
C      1  0.4640720000000  0.5391920000000  0.4791640000000 1.0
C      1  0.5218570000000  0.4764590000000  0.4865530000000 1.0
C      1  0.4804420000000  0.4780320000000  0.5105220000000 1.0
C      1  0.5184210000000  0.5212720000000  0.5065790000000 1.0
C      1  0.4904710000000  0.5909640000000  0.5071590000000 1.0
C      1  0.5096840000000  0.4088380000000  0.5123100000000 1.0
C      1  0.4941340000000  0.4086140000000  0.4869730000000 1.0
C      1  0.5057740000000  0.5925730000000  0.4818120000000 1.0
C      1  0.6242550000000  0.4231880000000  0.5135540000000 1.0
C      1  0.3758990000000  0.5756020000000  0.5176120000000 1.0
C      1  0.6116490000000  0.5650340000000  0.5050020000000 1.0
C      1  0.3819570000000  0.4293410000000  0.4928490000000 1.0
C      1  0.5955950000000  0.4799080000000  0.4710890000000 1.0
C      1  0.4001080000000  0.5197400000000  0.4739830000000 1.0
C      1  0.5955240000000  0.5136340000000  0.5194820000000 1.0
C      1  0.4029900000000  0.4835990000000  0.5245540000000 1.0
C      1  0.3731610000000  0.4099810000000  0.5109390000000 1.0
C      1  0.6053780000000  0.5695380000000  0.5344550000000 1.0
C      1  0.3652540000000  0.5983570000000  0.5052170000000 1.0
C      1  0.6334720000000  0.3999920000000  0.5008630000000 1.0
C      1  0.4101300000000  0.4277210000000  0.4858900000000 1.0
C      1  0.5875500000000  0.5724710000000  0.4892160000000 1.0
C      1  0.4047480000000  0.5769720000000  0.5209830000000 1.0
C      1  0.5957740000000  0.4224900000000  0.5193230000000 1.0
C      1  0.5480450000000  0.5201810000000  0.5151660000000 1.0
C      1  0.4504480000000  0.4795670000000  0.5192360000000 1.0
C      1  0.5463950000000  0.4833110000000  0.4752260000000 1.0
C      1  0.4476740000000  0.5175710000000  0.4759180000000 1.0
C      1  0.4108810000000  0.5655310000000  0.4686110000000 1.0
C      1  0.5881880000000  0.4335660000000  0.4672420000000 1.0
C      1  0.4359940000000  0.4522190000000  0.5302100000000 1.0
C      1  0.5626470000000  0.5456160000000  0.5258270000000 1.0
C      1  0.5346500000000  0.5676170000000  0.4017600000000 1.0
C      1  0.4701470000000  0.4303580000000  0.4048370000000 1.0
C      1  0.5329880000000  0.4311900000000  0.5951590000000 1.0
C      1  0.4747570000000  0.5706580000000  0.5913130000000 1.0
C      1  0.4851440000000  0.5353690000000  0.5479350000000 1.0
C      1  0.5187480000000  0.4664060000000  0.5519040000000 1.0
C      1  0.4858300000000  0.4651640000000  0.4469170000000 1.0
C      1  0.5148850000000  0.5355660000000  0.4434240000000 1.0
C      1  0.5503890000000  0.4266910000000  0.5311760000000 1.0
C      1  0.4505250000000  0.5747280000000  0.5294050000000 1.0
C      1  0.5490940000000  0.5752510000000  0.4651330000000 1.0
C      1  0.4520300000000  0.4260850000000  0.4683930000000 1.0
C      1  0.5783500000000  0.5718020000000  0.5566830000000 1.0
C      1  0.3852630000000  0.3896290000000  0.5238460000000 1.0
C      1  0.6207020000000  0.3779830000000  0.4916250000000 1.0
C      1  0.3768440000000  0.6205830000000  0.4949900000000 1.0
C      1  0.3833760000000  0.4983430000000  0.4643220000000 1.0
C      1  0.6149510000000  0.5006780000000  0.4642600000000 1.0
C      1  0.3849490000000  0.5034980000000  0.5347510000000 1.0
C      1  0.6154100000000  0.4953010000000  0.5281580000000 1.0
C      1  0.5799580000000  0.5308030000000  0.4782640000000 1.0
C      1  0.4190700000000  0.4692380000000  0.4805730000000 1.0
C      1  0.5813310000000  0.4649050000000  0.5123720000000 1.0
C      1  0.4174200000000  0.5344610000000  0.5155600000000 1.0
C      1  0.5946910000000  0.4577130000000  0.4522110000000 1.0
C      1  0.4043670000000  0.5412530000000  0.4541320000000 1.0
C      1  0.5861600000000  0.5312120000000  0.5409840000000 1.0
C      1  0.4135490000000  0.4653680000000  0.5461220000000 1.0
C      1  0.3820240000000  0.4960370000000  0.5623390000000 1.0
C      1  0.6205970000000  0.5030680000000  0.5553410000000 1.0
C      1  0.3780030000000  0.5065200000000  0.4373080000000 1.0
C      1  0.6236210000000  0.4917250000000  0.4383080000000 1.0
C      1  0.4601100000000  0.5284830000000  0.5366660000000 1.0
C      1  0.5429690000000  0.4741070000000  0.5396980000000 1.0
C      1  0.4617500000000  0.4721100000000  0.4595040000000 1.0
C      1  0.5387140000000  0.5289640000000  0.4559960000000 1.0
C      1  0.4458830000000  0.4309930000000  0.4196370000000 1.0
C      1  0.5587310000000  0.5683820000000  0.4177040000000 1.0
C      1  0.4491840000000  0.5698780000000  0.5788950000000 1.0
C      1  0.5569930000000  0.4310900000000  0.5802000000000 1.0
C      1  0.5435510000000  0.4630920000000  0.4270120000000 1.0
C      1  0.4593710000000  0.5364720000000  0.4268270000000 1.0
C      1  0.5568760000000  0.5466430000000  0.5690210000000 1.0
C      1  0.4599210000000  0.4648080000000  0.5715490000000 1.0
C      1  0.5589460000000  0.4543230000000  0.5271950000000 1.0
C      1  0.4416630000000  0.5470730000000  0.5262600000000 1.0
C      1  0.5570240000000  0.5464810000000  0.4680080000000 1.0
C      1  0.4432440000000  0.4544030000000  0.4710920000000 1.0
C      1  0.5042210000000  0.5616330000000  0.4381920000000 1.0
C      1  0.4980720000000  0.4393930000000  0.4429030000000 1.0
C      1  0.5062040000000  0.4408090000000  0.5561440000000 1.0
C      1  0.4988030000000  0.5605480000000  0.5510790000000 1.0
C      1  0.4255750000000  0.5523280000000  0.5769550000000 1.0
C      1  0.5799360000000  0.4486570000000  0.5760930000000 1.0
C      1  0.4228380000000  0.4491390000000  0.4251550000000 1.0
C      1  0.5815050000000  0.5503690000000  0.4251070000000 1.0
C      1  0.5548770000000  0.5863390000000  0.4397920000000 1.0
C      1  0.4484170000000  0.4144210000000  0.4429620000000 1.0
C      1  0.5539390000000  0.4153350000000  0.5566910000000 1.0
C      1  0.4494610000000  0.5858710000000  0.5552080000000 1.0
C      1  0.3989650000000  0.5253330000000  0.4279910000000 1.0
C      1  0.6035810000000  0.4729380000000  0.4269410000000 1.0
C      1  0.4050110000000  0.4802210000000  0.5715080000000 1.0
C      1  0.5981840000000  0.5185600000000  0.5662080000000 1.0
C      1  0.4383110000000  0.4753990000000  0.6091110000000 1.0
C      1  0.5695240000000  0.5266970000000  0.6074020000000 1.0
C      1  0.4342470000000  0.5300370000000  0.3908870000000 1.0
C      1  0.5685900000000  0.4685700000000  0.3908110000000 1.0
C      1  0.4577580000000  0.5084530000000  0.4298060000000 1.0
C      1  0.5434540000000  0.4911770000000  0.4281320000000 1.0
C      1  0.4592940000000  0.4924820000000  0.5668490000000 1.0
C      1  0.5471940000000  0.5179070000000  0.5638410000000 1.0
C      1  0.4984350000000  0.4300920000000  0.5304340000000 1.0
C      1  0.5025160000000  0.5690510000000  0.5237990000000 1.0
C      1  0.4959750000000  0.5725210000000  0.4631040000000 1.0
C      1  0.5053570000000  0.4291520000000  0.4687080000000 1.0
C      1  0.5699810000000  0.3749910000000  0.4881180000000 1.0
C      1  0.4271460000000  0.6251010000000  0.4881000000000 1.0
C      1  0.5496620000000  0.6054050000000  0.5336970000000 1.0
C      1  0.4355900000000  0.3843110000000  0.5226730000000 1.0
C      1  0.6250220000000  0.4440130000000  0.5542420000000 1.0
C      1  0.3787560000000  0.5576180000000  0.5596190000000 1.0
C      1  0.6250590000000  0.5642860000000  0.4581370000000 1.0
C      1  0.3785070000000  0.4380050000000  0.4475700000000 1.0
C      1  0.5015290000000  0.5665640000000  0.5798210000000 1.0
C      1  0.5060150000000  0.4358340000000  0.5853450000000 1.0
C      1  0.4977400000000  0.4332440000000  0.4142230000000 1.0
C      1  0.5061870000000  0.5662810000000  0.4096650000000 1.0
C      1  0.4096360000000  0.3789390000000  0.5279150000000 1.0
C      1  0.5648290000000  0.5965320000000  0.5544610000000 1.0
C      1  0.4007990000000  0.6315520000000  0.4890860000000 1.0
C      1  0.5961110000000  0.3676770000000  0.4873580000000 1.0
C      1  0.3893760000000  0.5297160000000  0.5251890000000 1.0
C      1  0.6104730000000  0.4690740000000  0.5190820000000 1.0
C      1  0.3901670000000  0.4728190000000  0.4738870000000 1.0
C      1  0.6091900000000  0.5259690000000  0.4752830000000 1.0
C      1  0.5050580000000  0.5464780000000  0.5043360000000 1.0
C      1  0.4922240000000  0.4510730000000  0.5108730000000 1.0
C      1  0.5106070000000  0.4506760000000  0.4876280000000 1.0
C      1  0.4885010000000  0.5510480000000  0.4813830000000 1.0
C      1  0.4223950000000  0.5245100000000  0.5886220000000 1.0
C      1  0.5824230000000  0.4763230000000  0.5872860000000 1.0
C      1  0.4187330000000  0.4777580000000  0.4139550000000 1.0
C      1  0.5849290000000  0.5213210000000  0.4140730000000 1.0
C      1  0.5369880000000  0.5032510000000  0.5870120000000 1.0
C      1  0.4678760000000  0.5091550000000  0.5887580000000 1.0
C      1  0.5371190000000  0.5056550000000  0.4042930000000 1.0
C      1  0.4644880000000  0.4927370000000  0.4066070000000 1.0
C      1  0.4530190000000  0.5013660000000  0.5410160000000 1.0
C      1  0.5477150000000  0.5025260000000  0.5398370000000 1.0
C      1  0.4536830000000  0.4987950000000  0.4557440000000 1.0
C      1  0.5454710000000  0.5017440000000  0.4536160000000 1.0
C      1  0.5033980000000  0.4880420000000  0.5588420000000 1.0
C      1  0.5001040000000  0.5138040000000  0.5560110000000 1.0
C      1  0.5009080000000  0.5132830000000  0.4355020000000 1.0
C      1  0.4993880000000  0.4870620000000  0.4371490000000 1.0
C      1  0.5226900000000  0.5165670000000  0.3844520000000 1.0
C      1  0.4791440000000  0.4812390000000  0.3872050000000 1.0
C      1  0.5253240000000  0.4887690000000  0.6064690000000 1.0
C      1  0.4825280000000  0.5208020000000  0.6080520000000 1.0
C      1  0.4294250000000  0.4300830000000  0.5101610000000 1.0
C      1  0.5656230000000  0.5689980000000  0.5084170000000 1.0
C      1  0.4180890000000  0.5791050000000  0.4937730000000 1.0
C      1  0.5808930000000  0.4206410000000  0.4929260000000 1.0
C      1  0.5041620000000  0.5355160000000  0.6149970000000 1.0
C      1  0.5060050000000  0.4723870000000  0.6158090000000 1.0
C      1  0.5002130000000  0.4658960000000  0.3798930000000 1.0
C      1  0.5017820000000  0.5319950000000  0.3769810000000 1.0
C      1  0.5206500000000  0.5533090000000  0.5993640000000 1.0
C      1  0.4895160000000  0.4522230000000  0.6039510000000 1.0
C      1  0.5158800000000  0.4469510000000  0.3947190000000 1.0
C      1  0.4870170000000  0.5515570000000  0.3918390000000 1.0
C      1  0.4612260000000  0.4586450000000  0.5994990000000 1.0
C      1  0.5499520000000  0.5479990000000  0.5973440000000 1.0
C      1  0.4591530000000  0.5446510000000  0.3994250000000 1.0
C      1  0.5442720000000  0.4535880000000  0.4000200000000 1.0
C      1  0.4232090000000  0.5157340000000  0.4924740000000 1.0
C      1  0.5725910000000  0.4829060000000  0.4894170000000 1.0
C      1  0.4247080000000  0.4883770000000  0.5031200000000 1.0
C      1  0.5726560000000  0.5103550000000  0.4995470000000 1.0
C      1  0.4165610000000  0.5121660000000  0.4083040000000 1.0
C      1  0.5863370000000  0.4867270000000  0.4075720000000 1.0
C      1  0.4208210000000  0.4937470000000  0.5924050000000 1.0
C      1  0.5847310000000  0.5066140000000  0.5895810000000 1.0
C      1  0.5476590000000  0.5913650000000  0.5094680000000 1.0
C      1  0.4472990000000  0.4068010000000  0.5105390000000 1.0
C      1  0.5596260000000  0.4006920000000  0.4937930000000 1.0
C      1  0.4387380000000  0.5997770000000  0.4929810000000 1.0
C      1  0.5387260000000  0.4091830000000  0.5113730000000 1.0
C      1  0.4614960000000  0.5917330000000  0.5085490000000 1.0
C      1  0.5343550000000  0.5914110000000  0.4844420000000 1.0
C      1  0.4652380000000  0.4099080000000  0.4885860000000 1.0
C      1  0.6255790000000  0.5489790000000  0.4836160000000 1.0
C      1  0.3728340000000  0.4493460000000  0.4739890000000 1.0
C      1  0.6305090000000  0.4485180000000  0.5256900000000 1.0
C      1  0.3706210000000  0.5511980000000  0.5321290000000 1.0
C      1  0.5970500000000  0.5668270000000  0.4533540000000 1.0
C      1  0.4068710000000  0.4357740000000  0.4481440000000 1.0
C      1  0.5974500000000  0.4369590000000  0.5546670000000 1.0
C      1  0.4063400000000  0.5641510000000  0.5569560000000 1.0
C      1  0.5045780000000  0.4957430000000  0.5011820000000 1.0
END
