TITL C-3201373-1215-732 0.0271232794437085 125000 -628.533780497697 0 0 104 (C3h) n - 1
REM
REM in /home/nfs/bkarasulu/CARBON/AIRSS/Generating-Clusters/LCBOP/Higher-Symm/SD-CG/FIRE-CG
REM
REM
REM
REM
REM
REM ./C.cell (b20cbc046b6831c77cfcea5457e17084)
REM AIRSS Version 0.9.1 bugfix July 2018 build 013d7b7c2542+ Fri, 06 Jul 2018 19:26:36 +0100
REM compiler GCC version 9.2.1 20190827 (Red Hat 9.2.1-1)
REM options -cpp -mtune=generic -march=x86-64 -g -O0 -fpre-include=/usr/include/finclude/math-vector-fortran.h
REM seed 254701719 -835569275 -1786829834 2071137888 -1730427072 -218137894 1942884815 -912845098 1846946326 1358729606 1015838086 1333913017 14383959 -1901315227 242807034 1805221081 -2104018287 -1615201464 -1947439354 -1005024701 -1403728332 1400871268 954629182 -86995161 -1707020105 -1121122531 -1178391058 2094482374 -920017285 -1326165637 10230608 -929229522 176102366
REM
CELL 1.54180   50.00000   50.00000   50.00000   90.00000   90.00000   90.00000
LATT -1
SFAC C  
C      1  0.4772710000000  0.5316320000000  0.6343510000000 1.0
C      1  0.3952750000000  0.5316560000000  0.4136610000000 1.0
C      1  0.6273950000000  0.5316390000000  0.4529950000000 1.0
C      1  0.4772680000000  0.4666600000000  0.6343450000000 1.0
C      1  0.3952710000000  0.4666840000000  0.4136560000000 1.0
C      1  0.6273920000000  0.4666680000000  0.4529890000000 1.0
C      1  0.5593490000000  0.5780020000000  0.5091010000000 1.0
C      1  0.4627130000000  0.5780040000000  0.5473720000000 1.0
C      1  0.4778870000000  0.5780120000000  0.4445470000000 1.0
C      1  0.5593400000000  0.4203030000000  0.5090870000000 1.0
C      1  0.4627040000000  0.4203050000000  0.5473580000000 1.0
C      1  0.4778790000000  0.4203130000000  0.4445330000000 1.0
C      1  0.6335860000000  0.4677490000000  0.4256250000000 1.0
C      1  0.4978690000000  0.4677370000000  0.6533920000000 1.0
C      1  0.3684760000000  0.4677640000000  0.4219730000000 1.0
C      1  0.6335900000000  0.5305620000000  0.4256310000000 1.0
C      1  0.4978720000000  0.5305500000000  0.6533980000000 1.0
C      1  0.3684790000000  0.5305770000000  0.4219780000000 1.0
C      1  0.5496460000000  0.4211390000000  0.4269080000000 1.0
C      1  0.5387200000000  0.4211260000000  0.5800530000000 1.0
C      1  0.4115560000000  0.4211410000000  0.4940180000000 1.0
C      1  0.5496550000000  0.5771810000000  0.4269210000000 1.0
C      1  0.5387290000000  0.5771680000000  0.5800670000000 1.0
C      1  0.4115650000000  0.5771830000000  0.4940320000000 1.0
C      1  0.4725480000000  0.5385710000000  0.4925770000000 1.0
C      1  0.5204170000000  0.5385690000000  0.4804580000000 1.0
C      1  0.5069770000000  0.5385660000000  0.5279740000000 1.0
C      1  0.4725430000000  0.4597470000000  0.4925700000000 1.0
C      1  0.5204130000000  0.4597450000000  0.4804510000000 1.0
C      1  0.5069730000000  0.4597420000000  0.5279670000000 1.0
C      1  0.6074940000000  0.4495160000000  0.4623780000000 1.0
C      1  0.4790830000000  0.4495100000000  0.6124180000000 1.0
C      1  0.4133500000000  0.4495300000000  0.4261910000000 1.0
C      1  0.6074990000000  0.5487910000000  0.4623860000000 1.0
C      1  0.4790890000000  0.5487850000000  0.6124260000000 1.0
C      1  0.4133560000000  0.5488060000000  0.4261990000000 1.0
C      1  0.4554120000000  0.4843840000000  0.6366650000000 1.0
C      1  0.4041940000000  0.4844090000000  0.3935700000000 1.0
C      1  0.6403280000000  0.4843890000000  0.4707610000000 1.0
C      1  0.4554140000000  0.5139100000000  0.6366670000000 1.0
C      1  0.4041950000000  0.5139340000000  0.3935720000000 1.0
C      1  0.6403300000000  0.5139140000000  0.4707630000000 1.0
C      1  0.5305330000000  0.4256470000000  0.4459480000000 1.0
C      1  0.5317880000000  0.4256380000000  0.5539810000000 1.0
C      1  0.4376010000000  0.4256480000000  0.5010510000000 1.0
C      1  0.5305420000000  0.5726720000000  0.4459610000000 1.0
C      1  0.5317970000000  0.5726620000000  0.5539940000000 1.0
C      1  0.4376100000000  0.5726720000000  0.5010640000000 1.0
C      1  0.5609890000000  0.4321260000000  0.4839060000000 1.0
C      1  0.4836880000000  0.4321240000000  0.5613770000000 1.0
C      1  0.4552470000000  0.4321340000000  0.4556980000000 1.0
C      1  0.5609970000000  0.5661830000000  0.4839180000000 1.0
C      1  0.4836960000000  0.5661800000000  0.5613890000000 1.0
C      1  0.4552540000000  0.5661910000000  0.4557090000000 1.0
C      1  0.5125470000000  0.5125560000000  0.6667300000000 1.0
C      1  0.3495930000000  0.5125860000000  0.4280180000000 1.0
C      1  0.6377990000000  0.5125720000000  0.4062530000000 1.0
C      1  0.5125450000000  0.4857260000000  0.6667280000000 1.0
C      1  0.3495910000000  0.4857560000000  0.4280160000000 1.0
C      1  0.6377970000000  0.4857420000000  0.4062500000000 1.0
C      1  0.6571020000000  0.4748350000000  0.4931770000000 1.0
C      1  0.4276110000000  0.4748350000000  0.6399820000000 1.0
C      1  0.4152210000000  0.4748600000000  0.3678340000000 1.0
C      1  0.6571040000000  0.5234610000000  0.4931810000000 1.0
C      1  0.4276130000000  0.5234610000000  0.6399860000000 1.0
C      1  0.4152240000000  0.5234860000000  0.3678380000000 1.0
C      1  0.4114040000000  0.5131100000000  0.6179150000000 1.0
C      1  0.4424400000000  0.5131300000000  0.3648360000000 1.0
C      1  0.6460950000000  0.5131050000000  0.5182520000000 1.0
C      1  0.4114030000000  0.4851930000000  0.6179130000000 1.0
C      1  0.4424390000000  0.4852130000000  0.3648330000000 1.0
C      1  0.6460930000000  0.4851880000000  0.5182500000000 1.0
C      1  0.5489050000000  0.4180060000000  0.5333010000000 1.0
C      1  0.4469510000000  0.4180130000000  0.5262140000000 1.0
C      1  0.5040660000000  0.4180170000000  0.4414630000000 1.0
C      1  0.5489140000000  0.5802950000000  0.5333150000000 1.0
C      1  0.4469610000000  0.5803020000000  0.5262280000000 1.0
C      1  0.5040750000000  0.5803060000000  0.4414770000000 1.0
C      1  0.5074700000000  0.5594970000000  0.5472600000000 1.0
C      1  0.4556030000000  0.5595060000000  0.4833620000000 1.0
C      1  0.5368740000000  0.5595020000000  0.4703930000000 1.0
C      1  0.5074630000000  0.4388070000000  0.5472500000000 1.0
C      1  0.4555960000000  0.4388150000000  0.4833510000000 1.0
C      1  0.5368670000000  0.4388120000000  0.4703820000000 1.0
C      1  0.4332380000000  0.4385640000000  0.4398030000000 1.0
C      1  0.5857600000000  0.4385520000000  0.4727940000000 1.0
C      1  0.4809280000000  0.4385480000000  0.5883860000000 1.0
C      1  0.4332450000000  0.5597670000000  0.4398130000000 1.0
C      1  0.5857670000000  0.5597560000000  0.4728050000000 1.0
C      1  0.4809340000000  0.5597510000000  0.5883970000000 1.0
C      1  0.5251100000000  0.5124190000000  0.4713390000000 1.0
C      1  0.5125240000000  0.5124140000000  0.5365950000000 1.0
C      1  0.4623040000000  0.5124200000000  0.4930680000000 1.0
C      1  0.5251090000000  0.4858960000000  0.4713370000000 1.0
C      1  0.5125230000000  0.4858910000000  0.5365930000000 1.0
C      1  0.4623020000000  0.4858980000000  0.4930660000000 1.0
C      1  0.6842620000000  0.5131050000000  0.4896960000000 1.0
C      1  0.4170510000000  0.5131050000000  0.6652470000000 1.0
C      1  0.3986270000000  0.5131340000000  0.3460590000000 1.0
C      1  0.6842610000000  0.4851890000000  0.4896940000000 1.0
C      1  0.4170490000000  0.4851890000000  0.6652450000000 1.0
C      1  0.3986250000000  0.4852180000000  0.3460570000000 1.0
C      1  0.4999810000000  0.5419000000000  0.5003370000000 1.0
C      1  0.4999760000000  0.4564130000000  0.5003290000000 1.0
END
