TITL C-3201377-4638-54 1.39845960848479e-06 125000 -470.748869338519 0 0 78 (C1) n - 1
REM
REM in /home/nfs/bkarasulu/CARBON/AIRSS/Generating-Clusters/LCBOP/Higher-Symm/SD-CG/FIRE-CG
REM
REM
REM
REM
REM
REM ./C.cell (b20cbc046b6831c77cfcea5457e17084)
REM AIRSS Version 0.9.1 bugfix July 2018 build 013d7b7c2542+ Fri, 06 Jul 2018 19:26:36 +0100
REM compiler GCC version 9.2.1 20190827 (Red Hat 9.2.1-1)
REM options -cpp -mtune=generic -march=x86-64 -g -O0 -fpre-include=/usr/include/finclude/math-vector-fortran.h
REM seed 1422914658 -1024301414 206399100 1539805513 961204153 -1942409541 -1699003341 1977853351 -229875134 1139961085 41739391 1130469275 -805395984 -689147060 801363882 -914031338 1818146362 557158509 -454479771 -1995554899 1481698812 -71572637 1200462408 2042613664 307367160 -1331956435 580410568 -372660344 -1543797669 1873189442 750325657 1118506821 -663392691
REM
CELL 1.54180   50.00000   50.00000   50.00000   90.00000   90.00000   90.00000
LATT -1
SFAC C  
C      1  0.5630860000000  0.5363270000000  0.4848960000000 1.0
C      1  0.5684690000000  0.4783650000000  0.4717010000000 1.0
C      1  0.5641970000000  0.4821900000000  0.5322720000000 1.0
C      1  0.5476180000000  0.4451570000000  0.5000980000000 1.0
C      1  0.5516080000000  0.5284110000000  0.5431860000000 1.0
C      1  0.5594050000000  0.5346440000000  0.4558730000000 1.0
C      1  0.4946420000000  0.4819660000000  0.4341430000000 1.0
C      1  0.4974910000000  0.4160690000000  0.5382410000000 1.0
C      1  0.4996070000000  0.5742020000000  0.5312890000000 1.0
C      1  0.5493470000000  0.4617840000000  0.5463120000000 1.0
C      1  0.5571610000000  0.5603570000000  0.5017010000000 1.0
C      1  0.5614470000000  0.4809320000000  0.4437310000000 1.0
C      1  0.5395450000000  0.4230730000000  0.4824950000000 1.0
C      1  0.5338930000000  0.5248210000000  0.5682410000000 1.0
C      1  0.5385890000000  0.5547360000000  0.4453020000000 1.0
C      1  0.4371970000000  0.4668240000000  0.5213840000000 1.0
C      1  0.4312450000000  0.5282510000000  0.5191240000000 1.0
C      1  0.4321520000000  0.5067900000000  0.4646920000000 1.0
C      1  0.5461940000000  0.4539590000000  0.4398150000000 1.0
C      1  0.5363150000000  0.4731910000000  0.5693500000000 1.0
C      1  0.5438370000000  0.5799920000000  0.4856320000000 1.0
C      1  0.4968200000000  0.5716130000000  0.4752980000000 1.0
C      1  0.4998270000000  0.4345550000000  0.4563080000000 1.0
C      1  0.4904430000000  0.4909660000000  0.5752040000000 1.0
C      1  0.4807910000000  0.4782680000000  0.5329230000000 1.0
C      1  0.4744160000000  0.5340980000000  0.5045280000000 1.0
C      1  0.4701920000000  0.4781910000000  0.4782020000000 1.0
C      1  0.4693710000000  0.5109280000000  0.5676060000000 1.0
C      1  0.4735010000000  0.5544580000000  0.4647810000000 1.0
C      1  0.4831040000000  0.4264070000000  0.4802040000000 1.0
C      1  0.5140400000000  0.4926120000000  0.4522030000000 1.0
C      1  0.5030920000000  0.4788040000000  0.5173940000000 1.0
C      1  0.5014080000000  0.5325310000000  0.5077010000000 1.0
C      1  0.4267350000000  0.5347490000000  0.4630590000000 1.0
C      1  0.4420260000000  0.4483300000000  0.4985240000000 1.0
C      1  0.4250000000000  0.5169680000000  0.5448890000000 1.0
C      1  0.5411470000000  0.4405830000000  0.5287210000000 1.0
C      1  0.5484240000000  0.5556620000000  0.5297030000000 1.0
C      1  0.5597360000000  0.5096840000000  0.4366240000000 1.0
C      1  0.5078040000000  0.5188730000000  0.4613480000000 1.0
C      1  0.4971590000000  0.4742350000000  0.4902940000000 1.0
C      1  0.5037670000000  0.5223020000000  0.5343020000000 1.0
C      1  0.5343180000000  0.5454590000000  0.4181940000000 1.0
C      1  0.5286390000000  0.4043650000000  0.5016670000000 1.0
C      1  0.5234000000000  0.5523810000000  0.5701830000000 1.0
C      1  0.4815670000000  0.5325670000000  0.5515040000000 1.0
C      1  0.4829280000000  0.5293270000000  0.4501570000000 1.0
C      1  0.4646230000000  0.4300810000000  0.5041550000000 1.0
C      1  0.5485390000000  0.5056680000000  0.5237160000000 1.0
C      1  0.5453960000000  0.5171060000000  0.4961610000000 1.0
C      1  0.5461870000000  0.4695500000000  0.4864460000000 1.0
C      1  0.5183960000000  0.5238760000000  0.4874500000000 1.0
C      1  0.5205400000000  0.4764510000000  0.4746430000000 1.0
C      1  0.5193600000000  0.4986100000000  0.5289660000000 1.0
C      1  0.5235650000000  0.4168910000000  0.5277230000000 1.0
C      1  0.5247860000000  0.5674460000000  0.5443180000000 1.0
C      1  0.5461350000000  0.5208460000000  0.4131580000000 1.0
C      1  0.4513070000000  0.5687660000000  0.5291560000000 1.0
C      1  0.4476600000000  0.4877150000000  0.4272210000000 1.0
C      1  0.4614420000000  0.4462750000000  0.5557210000000 1.0
C      1  0.4368610000000  0.5554780000000  0.5077060000000 1.0
C      1  0.4322440000000  0.4803430000000  0.4508690000000 1.0
C      1  0.4369010000000  0.4633770000000  0.5507400000000 1.0
C      1  0.4458980000000  0.4611740000000  0.4718130000000 1.0
C      1  0.4416630000000  0.4986920000000  0.5605770000000 1.0
C      1  0.4444400000000  0.5538960000000  0.4774220000000 1.0
C      1  0.4962870000000  0.5810880000000  0.5032040000000 1.0
C      1  0.4905750000000  0.4536260000000  0.4366720000000 1.0
C      1  0.4816550000000  0.4673580000000  0.5596200000000 1.0
C      1  0.4756300000000  0.5607930000000  0.5427100000000 1.0
C      1  0.4729730000000  0.5009330000000  0.4303710000000 1.0
C      1  0.4715680000000  0.4275170000000  0.5335080000000 1.0
C      1  0.4543270000000  0.5129500000000  0.5070410000000 1.0
C      1  0.4559540000000  0.5032230000000  0.4801550000000 1.0
C      1  0.4573590000000  0.4875230000000  0.5208660000000 1.0
C      1  0.5250450000000  0.5714530000000  0.4649730000000 1.0
C      1  0.5296880000000  0.4329950000000  0.4567810000000 1.0
C      1  0.5202920000000  0.4973410000000  0.5751380000000 1.0
END
