TITL C-3201372-1405-888 -2.65917368889869e-07 125000 -306.504578906078 0 0 52 (C3) n - 1
REM
REM in /home/nfs/bkarasulu/CARBON/AIRSS/Generating-Clusters/LCBOP/Higher-Symm/SD-CG/FIRE-CG
REM
REM
REM
REM
REM
REM ./C.cell (b20cbc046b6831c77cfcea5457e17084)
REM AIRSS Version 0.9.1 bugfix July 2018 build 013d7b7c2542+ Fri, 06 Jul 2018 19:26:36 +0100
REM compiler GCC version 9.2.1 20190827 (Red Hat 9.2.1-1)
REM options -cpp -mtune=generic -march=x86-64 -g -O0 -fpre-include=/usr/include/finclude/math-vector-fortran.h
REM seed -1508685710 1822644222 711861727 1912360539 -991149758 -1199396664 915634144 -1470556505 -980435784 -81851200 -1956406534 355435512 -624213865 -99873329 547092171 205726360 1634847538 2025119686 -1953199990 -1805978550 1018182877 -1380556987 -1832229738 -41867509 -906547493 1824857992 425732527 1208969440 -97271848 1012676573 1535960912 685060170 49999252
REM
CELL 1.54180   50.00000   50.00000   50.00000   90.00000   90.00000   90.00000
LATT -1
SFAC C  
C      1  0.4310380000000  0.4675430000000  0.5940950000000 1.0
C      1  0.6168580000000  0.4674880000000  0.5118660000000 1.0
C      1  0.4524050000000  0.4673740000000  0.3921510000000 1.0
C      1  0.5762450000000  0.4945230000000  0.5188490000000 1.0
C      1  0.4787740000000  0.4946080000000  0.4236450000000 1.0
C      1  0.4452890000000  0.4945880000000  0.5554350000000 1.0
C      1  0.5241650000000  0.4350270000000  0.5141770000000 1.0
C      1  0.5010600000000  0.4350920000000  0.4712000000000 1.0
C      1  0.4754140000000  0.4349840000000  0.5126940000000 1.0
C      1  0.5016600000000  0.4975320000000  0.5200080000000 1.0
C      1  0.5165560000000  0.4979610000000  0.4880600000000 1.0
C      1  0.4813170000000  0.4972430000000  0.4896260000000 1.0
C      1  0.4603780000000  0.5124920000000  0.4351870000000 1.0
C      1  0.4645470000000  0.5124350000000  0.5655150000000 1.0
C      1  0.5750950000000  0.5122360000000  0.4970390000000 1.0
C      1  0.4827010000000  0.5743840000000  0.4655730000000 1.0
C      1  0.4797450000000  0.5741570000000  0.5313280000000 1.0
C      1  0.5381780000000  0.5741270000000  0.5010560000000 1.0
C      1  0.4906610000000  0.5171670000000  0.5618250000000 1.0
C      1  0.5585850000000  0.5169570000000  0.4764850000000 1.0
C      1  0.4504990000000  0.5172540000000  0.4596480000000 1.0
C      1  0.5440560000000  0.4689870000000  0.5438930000000 1.0
C      1  0.5166000000000  0.4691360000000  0.4390900000000 1.0
C      1  0.4398000000000  0.4689810000000  0.5150560000000 1.0
C      1  0.4685010000000  0.4693820000000  0.4140630000000 1.0
C      1  0.4420400000000  0.4694280000000  0.5692240000000 1.0
C      1  0.5898230000000  0.4693710000000  0.5148030000000 1.0
C      1  0.5099470000000  0.5105870000000  0.5426600000000 1.0
C      1  0.5322430000000  0.5106780000000  0.4694840000000 1.0
C      1  0.4576170000000  0.5105040000000  0.4858620000000 1.0
C      1  0.4651040000000  0.5748340000000  0.4856990000000 1.0
C      1  0.5059670000000  0.5746870000000  0.5365300000000 1.0
C      1  0.5295340000000  0.5747430000000  0.4757580000000 1.0
C      1  0.5312280000000  0.5663270000000  0.5271740000000 1.0
C      1  0.5087690000000  0.5665010000000  0.4585380000000 1.0
C      1  0.4606280000000  0.5663620000000  0.5122250000000 1.0
C      1  0.5064190000000  0.4950890000000  0.4322650000000 1.0
C      1  0.4389470000000  0.4949760000000  0.5271840000000 1.0
C      1  0.5550420000000  0.4949630000000  0.5385650000000 1.0
C      1  0.5190980000000  0.5172530000000  0.4449490000000 1.0
C      1  0.4434250000000  0.5171220000000  0.5097830000000 1.0
C      1  0.5377700000000  0.5171560000000  0.5433210000000 1.0
C      1  0.4437040000000  0.5443090000000  0.5168190000000 1.0
C      1  0.5437610000000  0.5443450000000  0.5395880000000 1.0
C      1  0.5131160000000  0.5444770000000  0.4414950000000 1.0
C      1  0.4509830000000  0.4467450000000  0.5544710000000 1.0
C      1  0.5725690000000  0.4466920000000  0.5144990000000 1.0
C      1  0.4769080000000  0.4467710000000  0.4292370000000 1.0
C      1  0.4542450000000  0.4471970000000  0.5262770000000 1.0
C      1  0.5465150000000  0.4472000000000  0.5257610000000 1.0
C      1  0.4997500000000  0.4473110000000  0.4460810000000 1.0
C      1  0.5002190000000  0.4338440000000  0.4993500000000 1.0
END
