TITL C-3201372-1405-648 238638.533773289 125000 -974.473864454794 0 0 153 (C1) n - 1
REM
REM in /home/nfs/bkarasulu/CARBON/AIRSS/Generating-Clusters/LCBOP/Higher-Symm/SD-CG/FIRE-CG
REM
REM
REM
REM
REM
REM ./C.cell (b20cbc046b6831c77cfcea5457e17084)
REM AIRSS Version 0.9.1 bugfix July 2018 build 013d7b7c2542+ Fri, 06 Jul 2018 19:26:36 +0100
REM compiler GCC version 9.2.1 20190827 (Red Hat 9.2.1-1)
REM options -cpp -mtune=generic -march=x86-64 -g -O0 -fpre-include=/usr/include/finclude/math-vector-fortran.h
REM seed 1942150867 -1892385168 684088572 938566146 -1076886371 -1339253302 624508913 -338179733 1568832793 318231148 -1282185628 1740372004 -1037905173 1976819003 182457672 -1784352584 1051566452 1633121240 1408227622 -235352383 -609797428 596127831 -1761303513 -1676316243 1649779131 -1370173462 2091016968 1946157404 1131635360 1627196052 395378569 472082796 -1262908439
REM
CELL 1.54180   50.00000   50.00000   50.00000   90.00000   90.00000   90.00000
LATT -1
SFAC C  
C      1  0.4177580000000  0.5261110000000  0.4863630000000 1.0
C      1  0.5760100000000  0.4745010000000  0.4858270000000 1.0
C      1  0.4164530000000  0.5265560000000  0.5140230000000 1.0
C      1  0.5758700000000  0.4756380000000  0.5134000000000 1.0
C      1  0.4193790000000  0.4737230000000  0.4883920000000 1.0
C      1  0.5758730000000  0.5253560000000  0.4854480000000 1.0
C      1  0.4165850000000  0.4723420000000  0.5158010000000 1.0
C      1  0.5757540000000  0.5239170000000  0.5129910000000 1.0
C      1  0.4120360000000  0.5492340000000  0.4716520000000 1.0
C      1  0.5889590000000  0.4520450000000  0.4753430000000 1.0
C      1  0.4127500000000  0.5506600000000  0.5265660000000 1.0
C      1  0.5903000000000  0.4568010000000  0.5280460000000 1.0
C      1  0.4130880000000  0.4517230000000  0.4725820000000 1.0
C      1  0.5891030000000  0.5476940000000  0.4751440000000 1.0
C      1  0.4123680000000  0.4481670000000  0.5278180000000 1.0
C      1  0.5902540000000  0.5425910000000  0.5278090000000 1.0
C      1  0.4756360000000  0.5719330000000  0.4690650000000 1.0
C      1  0.5026190000000  0.4306870000000  0.4605100000000 1.0
C      1  0.4908190000000  0.5676700000000  0.5367970000000 1.0
C      1  0.5157200000000  0.4301600000000  0.5254630000000 1.0
C      1  0.4753970000000  0.4301300000000  0.4700340000000 1.0
C      1  0.5029860000000  0.5699070000000  0.4598740000000 1.0
C      1  0.4909810000000  0.4311440000000  0.5384010000000 1.0
C      1  0.5156760000000  0.5689190000000  0.5243140000000 1.0
C      1  0.4460470000000  0.4457220000000  0.4109100000000 1.0
C      1  0.5508470000000  0.5556610000000  0.4211050000000 1.0
C      1  0.4476450000000  0.4424250000000  0.5840910000000 1.0
C      1  0.5548590000000  0.5545160000000  0.5858980000000 1.0
C      1  0.4462310000000  0.5554320000000  0.4104440000000 1.0
C      1  0.5504490000000  0.4443020000000  0.4213750000000 1.0
C      1  0.4477010000000  0.5560660000000  0.5831500000000 1.0
C      1  0.5550990000000  0.4447770000000  0.5862160000000 1.0
C      1  0.4719730000000  0.5492570000000  0.4869090000000 1.0
C      1  0.5202580000000  0.4483650000000  0.4777530000000 1.0
C      1  0.4654070000000  0.5525830000000  0.5158230000000 1.0
C      1  0.5208520000000  0.4512820000000  0.5067700000000 1.0
C      1  0.4731040000000  0.4499100000000  0.4904610000000 1.0
C      1  0.5199040000000  0.5512660000000  0.4768290000000 1.0
C      1  0.4652730000000  0.4460150000000  0.5186410000000 1.0
C      1  0.5206030000000  0.5480120000000  0.5055680000000 1.0
C      1  0.5302230000000  0.4716570000000  0.4643170000000 1.0
C      1  0.4650670000000  0.5270730000000  0.4708510000000 1.0
C      1  0.5278000000000  0.4729150000000  0.5241080000000 1.0
C      1  0.4616420000000  0.5272600000000  0.5307180000000 1.0
C      1  0.5299450000000  0.5279850000000  0.4634850000000 1.0
C      1  0.4707910000000  0.4769600000000  0.4795870000000 1.0
C      1  0.5275130000000  0.5262570000000  0.5226180000000 1.0
C      1  0.4611060000000  0.4713560000000  0.5338810000000 1.0
C      1  0.4824820000000  0.5142370000000  0.5438420000000 1.0
C      1  0.5094390000000  0.4795280000000  0.5435900000000 1.0
C      1  0.4829820000000  0.5198200000000  0.4510820000000 1.0
C      1  0.5103070000000  0.4852140000000  0.4499270000000 1.0
C      1  0.4825520000000  0.4851050000000  0.5453010000000 1.0
C      1  0.5092710000000  0.5198030000000  0.5421470000000 1.0
C      1  0.4834100000000  0.4793510000000  0.4530350000000 1.0
C      1  0.5100510000000  0.5141020000000  0.4494370000000 1.0
C      1  0.4412510000000  0.5268090000000  0.4069810000000 1.0
C      1  0.5583770000000  0.4718760000000  0.4132230000000 1.0
C      1  0.4407280000000  0.5276080000000  0.5890210000000 1.0
C      1  0.5597440000000  0.4733310000000  0.5912790000000 1.0
C      1  0.4412450000000  0.4743160000000  0.4073660000000 1.0
C      1  0.5585670000000  0.5280210000000  0.4130730000000 1.0
C      1  0.4406750000000  0.4709980000000  0.5896850000000 1.0
C      1  0.5596710000000  0.5260170000000  0.5911540000000 1.0
C      1  0.4868700000000  0.5329690000000  0.5967940000000 1.0
C      1  0.5149180000000  0.4646090000000  0.6015450000000 1.0
C      1  0.4858530000000  0.5355740000000  0.3946620000000 1.0
C      1  0.5133140000000  0.4659420000000  0.4013520000000 1.0
C      1  0.4868790000000  0.4657460000000  0.5976670000000 1.0
C      1  0.5147850000000  0.5344840000000  0.6010080000000 1.0
C      1  0.4856680000000  0.4650900000000  0.3949190000000 1.0
C      1  0.5135240000000  0.5343800000000  0.4010490000000 1.0
C      1  0.4227330000000  0.4852040000000  0.4283570000000 1.0
C      1  0.5796410000000  0.5175000000000  0.4293800000000 1.0
C      1  0.4203820000000  0.4809980000000  0.5724090000000 1.0
C      1  0.5792980000000  0.5145330000000  0.5723560000000 1.0
C      1  0.4224300000000  0.5161890000000  0.4278180000000 1.0
C      1  0.5795230000000  0.4823100000000  0.4294860000000 1.0
C      1  0.4205590000000  0.5174140000000  0.5717490000000 1.0
C      1  0.5793560000000  0.4847940000000  0.5724640000000 1.0
C      1  0.4384380000000  0.5697700000000  0.5133030000000 1.0
C      1  0.5832740000000  0.4298090000000  0.5182150000000 1.0
C      1  0.4286870000000  0.5721920000000  0.4822850000000 1.0
C      1  0.5801630000000  0.4277170000000  0.4897640000000 1.0
C      1  0.4385680000000  0.4290460000000  0.5145790000000 1.0
C      1  0.5833240000000  0.5696750000000  0.5180710000000 1.0
C      1  0.4291170000000  0.4281020000000  0.4827150000000 1.0
C      1  0.5803870000000  0.5719850000000  0.4896160000000 1.0
C      1  0.5142020000000  0.5798320000000  0.5786260000000 1.0
C      1  0.4910640000000  0.4269260000000  0.5664140000000 1.0
C      1  0.5066480000000  0.5742500000000  0.4315760000000 1.0
C      1  0.4850290000000  0.4183630000000  0.4148730000000 1.0
C      1  0.5146070000000  0.4189270000000  0.5799070000000 1.0
C      1  0.4908320000000  0.5715150000000  0.5649050000000 1.0
C      1  0.5060480000000  0.4262600000000  0.4322030000000 1.0
C      1  0.4856090000000  0.5823420000000  0.4144120000000 1.0
C      1  0.5351730000000  0.5142600000000  0.4012120000000 1.0
C      1  0.4656780000000  0.4864240000000  0.3966660000000 1.0
C      1  0.5350120000000  0.5136340000000  0.6007350000000 1.0
C      1  0.4649320000000  0.4852170000000  0.5988080000000 1.0
C      1  0.5350990000000  0.4858170000000  0.4013200000000 1.0
C      1  0.4656690000000  0.5144610000000  0.3964680000000 1.0
C      1  0.5350510000000  0.4856130000000  0.6008630000000 1.0
C      1  0.4649670000000  0.5135010000000  0.5984170000000 1.0
C      1  0.5284710000000  0.4390840000000  0.5938900000000 1.0
C      1  0.4756810000000  0.5564320000000  0.5831680000000 1.0
C      1  0.5230130000000  0.4426650000000  0.4167090000000 1.0
C      1  0.4721960000000  0.5614820000000  0.4008150000000 1.0
C      1  0.5280790000000  0.5600500000000  0.5931500000000 1.0
C      1  0.4756620000000  0.4419600000000  0.5844920000000 1.0
C      1  0.5234800000000  0.5576190000000  0.4162820000000 1.0
C      1  0.4718560000000  0.4393030000000  0.4011320000000 1.0
C      1  0.4363730000000  0.5644650000000  0.4355770000000 1.0
C      1  0.5641910000000  0.4322720000000  0.4434060000000 1.0
C      1  0.4335140000000  0.5701710000000  0.5628060000000 1.0
C      1  0.5685120000000  0.4363620000000  0.5624700000000 1.0
C      1  0.4368560000000  0.4371220000000  0.4363510000000 1.0
C      1  0.5645660000000  0.5676040000000  0.4431800000000 1.0
C      1  0.4332500000000  0.4281350000000  0.5639190000000 1.0
C      1  0.5682840000000  0.5628830000000  0.5621620000000 1.0
C      1  0.5336000000000  0.4004910000000  0.4980420000000 1.0
C      1  0.4991180000000  0.6083430000000  0.5040470000000 1.0
C      1  0.5384650000000  0.4124630000000  0.5244940000000 1.0
C      1  0.4739930000000  0.6056920000000  0.5202570000000 1.0
C      1  0.5337440000000  0.5991190000000  0.4977650000000 1.0
C      1  0.4990030000000  0.3911240000000  0.5044220000000 1.0
C      1  0.5383510000000  0.5866560000000  0.5239820000000 1.0
C      1  0.4738530000000  0.3931560000000  0.5208230000000 1.0
C      1  0.4429630000000  0.4865950000000  0.4794700000000 1.0
C      1  0.5535440000000  0.5140710000000  0.4716480000000 1.0
C      1  0.4374620000000  0.4859020000000  0.5289020000000 1.0
C      1  0.5520650000000  0.5135730000000  0.5234860000000 1.0
C      1  0.4410500000000  0.5137300000000  0.4760570000000 1.0
C      1  0.5536350000000  0.4857380000000  0.4720210000000 1.0
C      1  0.4378050000000  0.5130630000000  0.5266550000000 1.0
C      1  0.5522150000000  0.4859660000000  0.5240410000000 1.0
C      1  0.4138970000000  0.4489220000000  0.5553840000000 1.0
C      1  0.5862550000000  0.5390420000000  0.5559570000000 1.0
C      1  0.4173840000000  0.4587050000000  0.4446470000000 1.0
C      1  0.5865860000000  0.5474670000000  0.4471240000000 1.0
C      1  0.4142870000000  0.5492730000000  0.5542030000000 1.0
C      1  0.5864260000000  0.4602380000000  0.5562150000000 1.0
C      1  0.4165540000000  0.5429670000000  0.4434930000000 1.0
C      1  0.5862960000000  0.4523470000000  0.4473210000000 1.0
C      1  0.4487890000000  0.4242830000000  0.4602150000000 1.0
C      1  0.5581030000000  0.5843550000000  0.4748950000000 1.0
C      1  0.4454160000000  0.4086050000000  0.5363000000000 1.0
C      1  0.5627300000000  0.5787370000000  0.5372180000000 1.0
C      1  0.4482830000000  0.5772120000000  0.4597040000000 1.0
C      1  0.5578300000000  0.4154070000000  0.4751030000000 1.0
C      1  0.4459210000000  0.5897190000000  0.5356240000000 1.0
C      1  0.5629270000000  0.4205150000000  0.5375060000000 1.0
C      1  0.4884310000000  0.4949870000000  0.4967930000000 1.0
END
