TITL C-3201375-1262-945 0.24903296326957 125000 -967.73681627356 0 0 160 (C2) n - 1
REM
REM in /home/nfs/bkarasulu/CARBON/AIRSS/Generating-Clusters/LCBOP/Higher-Symm/SD-CG/FIRE-CG
REM
REM
REM
REM
REM
REM ./C.cell (b20cbc046b6831c77cfcea5457e17084)
REM AIRSS Version 0.9.1 bugfix July 2018 build 013d7b7c2542+ Fri, 06 Jul 2018 19:26:36 +0100
REM compiler GCC version 9.2.1 20190827 (Red Hat 9.2.1-1)
REM options -cpp -mtune=generic -march=x86-64 -g -O0 -fpre-include=/usr/include/finclude/math-vector-fortran.h
REM seed 751664182 -373121810 -1948902181 1250397337 -2096566363 485280649 847416516 -1809515721 266367666 352001567 -336040889 -583689736 301064149 725197564 1246240691 1340272568 472319653 106294452 2098123669 -341581206 -2021876782 1354232703 -295179661 -756268965 -433252024 2127241458 1633782681 1426184453 219136320 744375196 1874212769 -16554826 -1482447222
REM
CELL 1.54180   50.00000   50.00000   50.00000   90.00000   90.00000   90.00000
LATT -1
SFAC C  
C      1  0.4780020000000  0.5986150000000  0.5688850000000 1.0
C      1  0.4782810000000  0.3928800000000  0.5443340000000 1.0
C      1  0.4768400000000  0.5166650000000  0.3802390000000 1.0
C      1  0.5214920000000  0.4080560000000  0.5706200000000 1.0
C      1  0.5229340000000  0.6120590000000  0.5454740000000 1.0
C      1  0.5217710000000  0.4896680000000  0.3801760000000 1.0
C      1  0.3693390000000  0.5345150000000  0.5667960000000 1.0
C      1  0.3708770000000  0.4283930000000  0.4914350000000 1.0
C      1  0.3664280000000  0.5374690000000  0.4442230000000 1.0
C      1  0.6288970000000  0.4716240000000  0.5663170000000 1.0
C      1  0.6333450000000  0.5670510000000  0.4954640000000 1.0
C      1  0.6304350000000  0.4594250000000  0.4367320000000 1.0
C      1  0.4258630000000  0.5208920000000  0.5494800000000 1.0
C      1  0.4278490000000  0.4476920000000  0.4890470000000 1.0
C      1  0.4255010000000  0.5337750000000  0.4591430000000 1.0
C      1  0.5719240000000  0.4833420000000  0.5507970000000 1.0
C      1  0.5742720000000  0.5522840000000  0.4912020000000 1.0
C      1  0.5739100000000  0.4676090000000  0.4571880000000 1.0
C      1  0.5349330000000  0.4343040000000  0.4438620000000 1.0
C      1  0.5335510000000  0.5757630000000  0.4704700000000 1.0
C      1  0.5349220000000  0.4904820000000  0.5863570000000 1.0
C      1  0.4662230000000  0.5634690000000  0.4491760000000 1.0
C      1  0.4648510000000  0.4204680000000  0.4650830000000 1.0
C      1  0.4648400000000  0.5157790000000  0.5849850000000 1.0
C      1  0.5906400000000  0.4886510000000  0.4465910000000 1.0
C      1  0.5901350000000  0.5502260000000  0.5150050000000 1.0
C      1  0.5887830000000  0.4645870000000  0.5366540000000 1.0
C      1  0.4096390000000  0.5121320000000  0.4490230000000 1.0
C      1  0.4109900000000  0.4505620000000  0.5123610000000 1.0
C      1  0.4091330000000  0.5405910000000  0.5365560000000 1.0
C      1  0.6751270000000  0.4952170000000  0.5656180000000 1.0
C      1  0.6776480000000  0.4505820000000  0.4560920000000 1.0
C      1  0.6794170000000  0.5486020000000  0.4803090000000 1.0
C      1  0.3221250000000  0.5133270000000  0.5647730000000 1.0
C      1  0.3203570000000  0.5413680000000  0.4677780000000 1.0
C      1  0.3246460000000  0.4407950000000  0.4713520000000 1.0
C      1  0.4693250000000  0.5172570000000  0.6125700000000 1.0
C      1  0.4660020000000  0.4026200000000  0.4436580000000 1.0
C      1  0.4685870000000  0.5899460000000  0.4406630000000 1.0
C      1  0.5337710000000  0.5001120000000  0.6125260000000 1.0
C      1  0.5311860000000  0.5963750000000  0.4517980000000 1.0
C      1  0.5304480000000  0.4111540000000  0.4287890000000 1.0
C      1  0.4841910000000  0.3921490000000  0.4270330000000 1.0
C      1  0.4866770000000  0.6086960000000  0.4347460000000 1.0
C      1  0.4895360000000  0.5155170000000  0.6300390000000 1.0
C      1  0.5130970000000  0.6108750000000  0.4385190000000 1.0
C      1  0.5102370000000  0.3951570000000  0.4215610000000 1.0
C      1  0.5155820000000  0.5092730000000  0.6299070000000 1.0
C      1  0.4092580000000  0.4696830000000  0.4251940000000 1.0
C      1  0.4056000000000  0.5807590000000  0.5091000000000 1.0
C      1  0.4069420000000  0.4537400000000  0.5609440000000 1.0
C      1  0.5941740000000  0.5325140000000  0.4255330000000 1.0
C      1  0.5928310000000  0.4241030000000  0.5096090000000 1.0
C      1  0.5905150000000  0.5496350000000  0.5636820000000 1.0
C      1  0.6975240000000  0.5299370000000  0.4857030000000 1.0
C      1  0.6953160000000  0.5016700000000  0.5496130000000 1.0
C      1  0.6974640000000  0.4628610000000  0.4688280000000 1.0
C      1  0.3044570000000  0.4578840000000  0.4737670000000 1.0
C      1  0.3023090000000  0.5084380000000  0.5477710000000 1.0
C      1  0.3022500000000  0.5273640000000  0.4812450000000 1.0
C      1  0.4438160000000  0.5302250000000  0.5708200000000 1.0
C      1  0.4433300000000  0.4232870000000  0.4846200000000 1.0
C      1  0.4438870000000  0.5469830000000  0.4411910000000 1.0
C      1  0.5564440000000  0.4749720000000  0.5741460000000 1.0
C      1  0.5558860000000  0.5744350000000  0.4887400000000 1.0
C      1  0.5559570000000  0.4537950000000  0.4384340000000 1.0
C      1  0.5307300000000  0.4565460000000  0.5050630000000 1.0
C      1  0.5328920000000  0.5148540000000  0.4791620000000 1.0
C      1  0.5179730000000  0.5025440000000  0.5242220000000 1.0
C      1  0.4668810000000  0.5254860000000  0.4975770000000 1.0
C      1  0.4818000000000  0.4803080000000  0.4857070000000 1.0
C      1  0.4690440000000  0.4739000000000  0.5351210000000 1.0
C      1  0.4228050000000  0.4942790000000  0.5399990000000 1.0
C      1  0.4273680000000  0.4687580000000  0.4703320000000 1.0
C      1  0.4217010000000  0.5411830000000  0.4860870000000 1.0
C      1  0.5724050000000  0.5100830000000  0.5419120000000 1.0
C      1  0.5780720000000  0.5326540000000  0.4713140000000 1.0
C      1  0.5769680000000  0.4625120000000  0.4849750000000 1.0
C      1  0.5967830000000  0.4081100000000  0.5530600000000 1.0
C      1  0.5980070000000  0.5035960000000  0.3893570000000 1.0
C      1  0.6001870000000  0.5940440000000  0.5539350000000 1.0
C      1  0.4017660000000  0.5976280000000  0.5522320000000 1.0
C      1  0.3995860000000  0.5003300000000  0.3916090000000 1.0
C      1  0.4029900000000  0.4081150000000  0.5530680000000 1.0
C      1  0.3799890000000  0.5784130000000  0.5469820000000 1.0
C      1  0.3812230000000  0.4226290000000  0.5393900000000 1.0
C      1  0.3788950000000  0.5016240000000  0.4126260000000 1.0
C      1  0.6185500000000  0.4272120000000  0.5473300000000 1.0
C      1  0.6208790000000  0.5764900000000  0.5423050000000 1.0
C      1  0.6197850000000  0.4985340000000  0.4086230000000 1.0
C      1  0.6120140000000  0.4548340000000  0.5518910000000 1.0
C      1  0.6133400000000  0.4803240000000  0.4299430000000 1.0
C      1  0.6148010000000  0.5660270000000  0.5161940000000 1.0
C      1  0.3864330000000  0.5508440000000  0.5520920000000 1.0
C      1  0.3849720000000  0.5190050000000  0.4347440000000 1.0
C      1  0.3877590000000  0.4324900000000  0.5131880000000 1.0
C      1  0.5411870000000  0.4764510000000  0.3925600000000 1.0
C      1  0.5424870000000  0.6070570000000  0.5282110000000 1.0
C      1  0.5410060000000  0.4245730000000  0.5780190000000 1.0
C      1  0.4572870000000  0.5291130000000  0.3932030000000 1.0
C      1  0.4587670000000  0.3947320000000  0.5263300000000 1.0
C      1  0.4585860000000  0.5812810000000  0.5741390000000 1.0
C      1  0.4805990000000  0.4529340000000  0.4936120000000 1.0
C      1  0.4789940000000  0.5237000000000  0.4711910000000 1.0
C      1  0.4741590000000  0.5018380000000  0.5414320000000 1.0
C      1  0.5207790000000  0.5368120000000  0.4939030000000 1.0
C      1  0.5256140000000  0.4650510000000  0.4777120000000 1.0
C      1  0.5191740000000  0.4820100000000  0.5439760000000 1.0
C      1  0.4882460000000  0.4354420000000  0.4722580000000 1.0
C      1  0.4874930000000  0.5498230000000  0.4624750000000 1.0
C      1  0.4848430000000  0.5039810000000  0.5684450000000 1.0
C      1  0.5122810000000  0.5574220000000  0.4756390000000 1.0
C      1  0.5149300000000  0.4427300000000  0.4623490000000 1.0
C      1  0.5115270000000  0.4917560000000  0.5698020000000 1.0
C      1  0.5553910000000  0.5940010000000  0.5089870000000 1.0
C      1  0.5549360000000  0.4472470000000  0.5795620000000 1.0
C      1  0.5544050000000  0.4646360000000  0.4123530000000 1.0
C      1  0.4448370000000  0.4047330000000  0.5059220000000 1.0
C      1  0.4453690000000  0.5582330000000  0.5744730000000 1.0
C      1  0.4443820000000  0.5392340000000  0.4141220000000 1.0
C      1  0.4902070000000  0.4975160000000  0.4638580000000 1.0
C      1  0.4798360000000  0.5251910000000  0.5230820000000 1.0
C      1  0.4853460000000  0.4532980000000  0.5226990000000 1.0
C      1  0.5199370000000  0.4926190000000  0.4666640000000 1.0
C      1  0.5144270000000  0.4570030000000  0.5291160000000 1.0
C      1  0.5095660000000  0.5300700000000  0.5202450000000 1.0
C      1  0.3781590000000  0.4460030000000  0.5578370000000 1.0
C      1  0.3795980000000  0.4732740000000  0.4223350000000 1.0
C      1  0.3768290000000  0.5820990000000  0.5174190000000 1.0
C      1  0.6201750000000  0.5539070000000  0.5620020000000 1.0
C      1  0.6229450000000  0.5259800000000  0.4202140000000 1.0
C      1  0.6216140000000  0.4229250000000  0.5178630000000 1.0
C      1  0.4189180000000  0.4272930000000  0.5661030000000 1.0
C      1  0.4182680000000  0.4807930000000  0.3994130000000 1.0
C      1  0.4175770000000  0.5989350000000  0.5289970000000 1.0
C      1  0.5815050000000  0.5775170000000  0.5669520000000 1.0
C      1  0.5821970000000  0.5243710000000  0.3998440000000 1.0
C      1  0.5808550000000  0.4064100000000  0.5299330000000 1.0
C      1  0.4143190000000  0.5532020000000  0.5103170000000 1.0
C      1  0.4156790000000  0.4671480000000  0.5367400000000 1.0
C      1  0.4179370000000  0.4839270000000  0.4488180000000 1.0
C      1  0.5840940000000  0.4517680000000  0.5101000000000 1.0
C      1  0.5818360000000  0.5362990000000  0.5395340000000 1.0
C      1  0.5854550000000  0.5176800000000  0.4487900000000 1.0
C      1  0.2917670000000  0.5062430000000  0.5234900000000 1.0
C      1  0.2929280000000  0.4800550000000  0.4827650000000 1.0
C      1  0.2938070000000  0.5048860000000  0.4956330000000 1.0
C      1  0.7068450000000  0.5049650000000  0.5259120000000 1.0
C      1  0.7059670000000  0.5062370000000  0.4979740000000 1.0
C      1  0.7080060000000  0.4827910000000  0.4828700000000 1.0
C      1  0.6512160000000  0.4851190000000  0.5712220000000 1.0
C      1  0.6533970000000  0.4492500000000  0.4453400000000 1.0
C      1  0.6562720000000  0.5612510000000  0.4834070000000 1.0
C      1  0.3463770000000  0.5219720000000  0.5713030000000 1.0
C      1  0.3435010000000  0.5450100000000  0.4552750000000 1.0
C      1  0.3485580000000  0.4308930000000  0.4772950000000 1.0
C      1  0.4993590000000  0.5032640000000  0.3759580000000 1.0
C      1  0.4998860000000  0.3976280000000  0.5591160000000 1.0
C      1  0.5004140000000  0.6090660000000  0.5592200000000 1.0
C      1  0.4998870000000  0.4903760000000  0.5055710000000 1.0
END
