TITL C-3201372-1405-1191 -7.44652237237461e-07 125000 -720.975509688791 0 0 117 (C1) n - 1
REM
REM in /home/nfs/bkarasulu/CARBON/AIRSS/Generating-Clusters/LCBOP/Higher-Symm/SD-CG/FIRE-CG
REM
REM
REM
REM
REM
REM ./C.cell (b20cbc046b6831c77cfcea5457e17084)
REM AIRSS Version 0.9.1 bugfix July 2018 build 013d7b7c2542+ Fri, 06 Jul 2018 19:26:36 +0100
REM compiler GCC version 9.2.1 20190827 (Red Hat 9.2.1-1)
REM options -cpp -mtune=generic -march=x86-64 -g -O0 -fpre-include=/usr/include/finclude/math-vector-fortran.h
REM seed -2072893357 1984178719 -1316984989 -1045561203 1839941087 217717741 -209970932 1559321586 1088234648 194239344 1707838848 2057695020 856740833 -1881798300 805816636 1267717453 1755717157 1818345646 1766013387 -763630872 -1163560989 -2022590945 1348374564 -429486047 31550635 1166743175 374562038 663371152 1784164527 635629581 59059766 -642253176 234915026
REM
CELL 1.54180   50.00000   50.00000   50.00000   90.00000   90.00000   90.00000
LATT -1
SFAC C  
C      1  0.4685960000000  0.5820840000000  0.4542660000000 1.0
C      1  0.5328920000000  0.4117110000000  0.4549980000000 1.0
C      1  0.4657960000000  0.4136530000000  0.4566440000000 1.0
C      1  0.5319350000000  0.5839910000000  0.4550020000000 1.0
C      1  0.4885770000000  0.5410040000000  0.4108540000000 1.0
C      1  0.5125770000000  0.4576640000000  0.4057160000000 1.0
C      1  0.4858340000000  0.4576940000000  0.4067560000000 1.0
C      1  0.5152680000000  0.5420050000000  0.4123480000000 1.0
C      1  0.5298080000000  0.4736740000000  0.5471740000000 1.0
C      1  0.4742430000000  0.5347240000000  0.5583530000000 1.0
C      1  0.5247320000000  0.5326110000000  0.5606000000000 1.0
C      1  0.4754820000000  0.4794840000000  0.5500480000000 1.0
C      1  0.4663760000000  0.5628330000000  0.5631330000000 1.0
C      1  0.5411790000000  0.4268580000000  0.5710550000000 1.0
C      1  0.4622150000000  0.4313020000000  0.5716040000000 1.0
C      1  0.5333790000000  0.5607490000000  0.5657010000000 1.0
C      1  0.5752770000000  0.4403490000000  0.4495920000000 1.0
C      1  0.4272390000000  0.5541050000000  0.4541070000000 1.0
C      1  0.5746540000000  0.5565770000000  0.4541070000000 1.0
C      1  0.4249040000000  0.4406720000000  0.4505860000000 1.0
C      1  0.4247820000000  0.5125240000000  0.5130680000000 1.0
C      1  0.5692150000000  0.4892890000000  0.5282340000000 1.0
C      1  0.4325300000000  0.4894130000000  0.5290540000000 1.0
C      1  0.5746960000000  0.5126490000000  0.5124050000000 1.0
C      1  0.5603840000000  0.5804230000000  0.4617970000000 1.0
C      1  0.4375440000000  0.4185810000000  0.4636720000000 1.0
C      1  0.5612900000000  0.4180190000000  0.4619710000000 1.0
C      1  0.4403650000000  0.5785320000000  0.4611460000000 1.0
C      1  0.4131350000000  0.5335270000000  0.5301280000000 1.0
C      1  0.5897830000000  0.4702410000000  0.5351480000000 1.0
C      1  0.4121880000000  0.4704970000000  0.5371260000000 1.0
C      1  0.5865520000000  0.5336400000000  0.5293350000000 1.0
C      1  0.4481080000000  0.5729400000000  0.5435630000000 1.0
C      1  0.5574050000000  0.4275520000000  0.5471510000000 1.0
C      1  0.4446680000000  0.4294950000000  0.5488890000000 1.0
C      1  0.5501370000000  0.5718270000000  0.5451540000000 1.0
C      1  0.5133080000000  0.5765350000000  0.5785210000000 1.0
C      1  0.4879230000000  0.4250390000000  0.5787470000000 1.0
C      1  0.5151000000000  0.4224650000000  0.5785380000000 1.0
C      1  0.4862390000000  0.5778640000000  0.5768720000000 1.0
C      1  0.5466090000000  0.5136270000000  0.5654230000000 1.0
C      1  0.4513070000000  0.4931280000000  0.5494160000000 1.0
C      1  0.5505870000000  0.4916390000000  0.5487770000000 1.0
C      1  0.4513370000000  0.5171240000000  0.5634970000000 1.0
C      1  0.4493610000000  0.5137140000000  0.4183710000000 1.0
C      1  0.5506340000000  0.4861890000000  0.4157710000000 1.0
C      1  0.4485150000000  0.4871080000000  0.4159200000000 1.0
C      1  0.5519750000000  0.5124320000000  0.4204120000000 1.0
C      1  0.5158180000000  0.4359410000000  0.4579070000000 1.0
C      1  0.4850350000000  0.5593250000000  0.4654670000000 1.0
C      1  0.5158170000000  0.5610190000000  0.4663630000000 1.0
C      1  0.4820950000000  0.4386330000000  0.4620870000000 1.0
C      1  0.4875940000000  0.4753410000000  0.5247110000000 1.0
C      1  0.5152130000000  0.5297750000000  0.5310840000000 1.0
C      1  0.4860330000000  0.5290790000000  0.5300820000000 1.0
C      1  0.5159670000000  0.4736910000000  0.5229310000000 1.0
C      1  0.5335090000000  0.5912800000000  0.5308110000000 1.0
C      1  0.4574070000000  0.4117340000000  0.5302850000000 1.0
C      1  0.5431960000000  0.4109500000000  0.5282720000000 1.0
C      1  0.4635720000000  0.5914320000000  0.5274430000000 1.0
C      1  0.4912840000000  0.4797840000000  0.5742020000000 1.0
C      1  0.4896920000000  0.5027720000000  0.6177530000000 1.0
C      1  0.4928640000000  0.5029050000000  0.5907550000000 1.0
C      1  0.5160230000000  0.4674130000000  0.5705100000000 1.0
C      1  0.5741690000000  0.4142920000000  0.4875450000000 1.0
C      1  0.4282300000000  0.5890370000000  0.4847390000000 1.0
C      1  0.5712540000000  0.5903610000000  0.4862240000000 1.0
C      1  0.4250070000000  0.4148240000000  0.4893000000000 1.0
C      1  0.6071420000000  0.5175220000000  0.5439920000000 1.0
C      1  0.3916430000000  0.4892580000000  0.5470620000000 1.0
C      1  0.6104600000000  0.4892760000000  0.5446320000000 1.0
C      1  0.3937680000000  0.5174250000000  0.5459510000000 1.0
C      1  0.5319560000000  0.4670500000000  0.4237170000000 1.0
C      1  0.4698300000000  0.5297340000000  0.4284890000000 1.0
C      1  0.5335130000000  0.5307440000000  0.4305640000000 1.0
C      1  0.4673760000000  0.4685230000000  0.4248980000000 1.0
C      1  0.5738650000000  0.5609100000000  0.5304760000000 1.0
C      1  0.4213000000000  0.4425670000000  0.5355200000000 1.0
C      1  0.5801820000000  0.4419100000000  0.5334850000000 1.0
C      1  0.4246880000000  0.5609990000000  0.5296640000000 1.0
C      1  0.4232160000000  0.5103830000000  0.4847300000000 1.0
C      1  0.5648930000000  0.4840300000000  0.4724350000000 1.0
C      1  0.4341500000000  0.4862270000000  0.4740000000000 1.0
C      1  0.5674690000000  0.5121640000000  0.4831510000000 1.0
C      1  0.5136540000000  0.6030790000000  0.4440020000000 1.0
C      1  0.4850500000000  0.3926080000000  0.4511160000000 1.0
C      1  0.5128010000000  0.3910430000000  0.4508050000000 1.0
C      1  0.4861490000000  0.6021240000000  0.4438020000000 1.0
C      1  0.5131020000000  0.5834240000000  0.5129030000000 1.0
C      1  0.4718290000000  0.4171090000000  0.5085610000000 1.0
C      1  0.5254410000000  0.4148190000000  0.5087310000000 1.0
C      1  0.4844000000000  0.5817770000000  0.5112450000000 1.0
C      1  0.4750890000000  0.5313450000000  0.5040000000000 1.0
C      1  0.5263190000000  0.4635120000000  0.4988090000000 1.0
C      1  0.4745340000000  0.4668240000000  0.5009530000000 1.0
C      1  0.5282330000000  0.5358550000000  0.5066170000000 1.0
C      1  0.5280330000000  0.4613110000000  0.4512040000000 1.0
C      1  0.4759380000000  0.5314760000000  0.4562910000000 1.0
C      1  0.5287320000000  0.5345360000000  0.4583890000000 1.0
C      1  0.4723690000000  0.4654480000000  0.4528090000000 1.0
C      1  0.4188930000000  0.5319230000000  0.4670050000000 1.0
C      1  0.5813780000000  0.4657110000000  0.4581590000000 1.0
C      1  0.4211030000000  0.4659630000000  0.4593420000000 1.0
C      1  0.5810820000000  0.5325690000000  0.4654000000000 1.0
C      1  0.5384370000000  0.5224630000000  0.4830270000000 1.0
C      1  0.4645590000000  0.4840860000000  0.4771860000000 1.0
C      1  0.5383310000000  0.4736310000000  0.4750020000000 1.0
C      1  0.4737160000000  0.5137350000000  0.4797050000000 1.0
C      1  0.4177980000000  0.5774770000000  0.5070070000000 1.0
C      1  0.5852990000000  0.4277540000000  0.5084880000000 1.0
C      1  0.4151150000000  0.4280730000000  0.5110100000000 1.0
C      1  0.5806530000000  0.5786190000000  0.5087550000000 1.0
C      1  0.4766330000000  0.5589490000000  0.4950060000000 1.0
C      1  0.5140170000000  0.4369530000000  0.4942960000000 1.0
C      1  0.4838150000000  0.4390070000000  0.4936430000000 1.0
C      1  0.5224350000000  0.5621950000000  0.4962610000000 1.0
C      1  0.4982580000000  0.5262560000000  0.5753470000000 1.0
END
