TITL C-3201373-1215-2237 125958.83070312 125000 -988.941175251256 0 0 163 (C1) n - 1
REM
REM in /home/nfs/bkarasulu/CARBON/AIRSS/Generating-Clusters/LCBOP/Higher-Symm/SD-CG/FIRE-CG
REM
REM
REM
REM
REM
REM ./C.cell (b20cbc046b6831c77cfcea5457e17084)
REM AIRSS Version 0.9.1 bugfix July 2018 build 013d7b7c2542+ Fri, 06 Jul 2018 19:26:36 +0100
REM compiler GCC version 9.2.1 20190827 (Red Hat 9.2.1-1)
REM options -cpp -mtune=generic -march=x86-64 -g -O0 -fpre-include=/usr/include/finclude/math-vector-fortran.h
REM seed 229044782 -878801488 -855042831 -1046402310 -198625244 -2070138299 40277951 1644821729 1668529071 384208674 -1341319000 1546872963 -1739767377 -835500874 1044976477 -814651921 -2089544832 2113810989 -774099533 -361959709 -125032058 -790162025 -1249002751 -1312929676 674275228 1590200564 1711391908 -235492387 1048749087 -1348171616 -1818876408 -958561054 1148204676
REM
CELL 1.54180   50.00000   50.00000   50.00000   90.00000   90.00000   90.00000
LATT -1
SFAC C  
C      1  0.3981640000000  0.4823010000000  0.5184620000000 1.0
C      1  0.5085260000000  0.4303960000000  0.5944830000000 1.0
C      1  0.5564810000000  0.5260180000000  0.5151980000000 1.0
C      1  0.5963190000000  0.4512010000000  0.4737450000000 1.0
C      1  0.5147890000000  0.4616410000000  0.4600790000000 1.0
C      1  0.5507380000000  0.5380320000000  0.4055880000000 1.0
C      1  0.4815760000000  0.5951430000000  0.4317980000000 1.0
C      1  0.5042450000000  0.5503800000000  0.4735040000000 1.0
C      1  0.5316340000000  0.5000750000000  0.3811330000000 1.0
C      1  0.5731070000000  0.5676770000000  0.4693960000000 1.0
C      1  0.4550910000000  0.3986040000000  0.4975370000000 1.0
C      1  0.4222920000000  0.5546850000000  0.4509900000000 1.0
C      1  0.4399620000000  0.4376710000000  0.5753970000000 1.0
C      1  0.4216300000000  0.5362260000000  0.5672460000000 1.0
C      1  0.5312350000000  0.5884630000000  0.5552410000000 1.0
C      1  0.4512750000000  0.4207910000000  0.4520910000000 1.0
C      1  0.5742720000000  0.4937460000000  0.4505700000000 1.0
C      1  0.4814770000000  0.5516090000000  0.5519390000000 1.0
C      1  0.4177230000000  0.5637840000000  0.5711200000000 1.0
C      1  0.4445360000000  0.4656310000000  0.5748350000000 1.0
C      1  0.5642580000000  0.4536700000000  0.5131940000000 1.0
C      1  0.5064750000000  0.4683340000000  0.6306700000000 1.0
C      1  0.4937000000000  0.4323720000000  0.4961560000000 1.0
C      1  0.4892490000000  0.3747830000000  0.5488830000000 1.0
C      1  0.4741680000000  0.6145200000000  0.4751170000000 1.0
C      1  0.5090990000000  0.5051120000000  0.4281080000000 1.0
C      1  0.3766460000000  0.5628290000000  0.4958870000000 1.0
C      1  0.5196170000000  0.4811460000000  0.4380650000000 1.0
C      1  0.5909810000000  0.5943310000000  0.5029270000000 1.0
C      1  0.4526670000000  0.5930290000000  0.5512000000000 1.0
C      1  0.5397640000000  0.4178140000000  0.4360040000000 1.0
C      1  0.5245040000000  0.4852190000000  0.5001050000000 1.0
C      1  0.5468660000000  0.4729340000000  0.5612670000000 1.0
C      1  0.5818700000000  0.4472750000000  0.4482070000000 1.0
C      1  0.4941670000000  0.5221330000000  0.4137090000000 1.0
C      1  0.5287890000000  0.3981810000000  0.4547160000000 1.0
C      1  0.4405810000000  0.5237800000000  0.5068100000000 1.0
C      1  0.4908120000000  0.5356730000000  0.5329580000000 1.0
C      1  0.4900920000000  0.5560740000000  0.5780660000000 1.0
C      1  0.4329020000000  0.4274230000000  0.4313320000000 1.0
C      1  0.5797470000000  0.4361900000000  0.4946810000000 1.0
C      1  0.4224220000000  0.4492210000000  0.4167930000000 1.0
C      1  0.5862640000000  0.5131740000000  0.5729210000000 1.0
C      1  0.4836560000000  0.5815890000000  0.5878340000000 1.0
C      1  0.4478250000000  0.4651420000000  0.4913070000000 1.0
C      1  0.5066230000000  0.5361920000000  0.5888260000000 1.0
C      1  0.4961670000000  0.4425200000000  0.5487200000000 1.0
C      1  0.5439680000000  0.5543620000000  0.4307090000000 1.0
C      1  0.5219910000000  0.5424880000000  0.6125730000000 1.0
C      1  0.5581470000000  0.5182530000000  0.5737440000000 1.0
C      1  0.4694720000000  0.5989060000000  0.5727880000000 1.0
C      1  0.5407470000000  0.4667440000000  0.4203720000000 1.0
C      1  0.3891650000000  0.4909630000000  0.4909880000000 1.0
C      1  0.4116180000000  0.5962800000000  0.5329620000000 1.0
C      1  0.6533790000000  0.3923750000000  0.5222100000000 1.0
C      1  0.5731980000000  0.5162930000000  0.4953170000000 1.0
C      1  0.5113000000000  0.5170610000000  0.5360160000000 1.0
C      1  0.4460760000000  0.5229030000000  0.5739220000000 1.0
C      1  0.4904070000000  0.6241390000000  0.4952680000000 1.0
C      1  0.4602970000000  0.4747020000000  0.3979800000000 1.0
C      1  0.4338270000000  0.4662670000000  0.4687300000000 1.0
C      1  0.4454350000000  0.5221620000000  0.4787370000000 1.0
C      1  0.4984780000000  0.4950930000000  0.6251600000000 1.0
C      1  0.6123160000000  0.4995180000000  0.4736690000000 1.0
C      1  0.3703320000000  0.4715250000000  0.4800760000000 1.0
C      1  0.5392860000000  0.5635590000000  0.6016480000000 1.0
C      1  0.5610810000000  0.5082890000000  0.4707960000000 1.0
C      1  0.4754890000000  0.4702920000000  0.4222490000000 1.0
C      1  0.6464820000000  0.4414990000000  0.5053610000000 1.0
C      1  0.4682890000000  0.3687890000000  0.5331520000000 1.0
C      1  0.4723600000000  0.4748380000000  0.5795520000000 1.0
C      1  0.4121600000000  0.4193200000000  0.4844130000000 1.0
C      1  0.4568680000000  0.5109410000000  0.5503080000000 1.0
C      1  0.4996820000000  0.4463480000000  0.5198930000000 1.0
C      1  0.4325410000000  0.3985700000000  0.5417150000000 1.0
C      1  0.4421290000000  0.5762870000000  0.4547230000000 1.0
C      1  0.5012570000000  0.3953630000000  0.5609510000000 1.0
C      1  0.4328390000000  0.4154860000000  0.5623950000000 1.0
C      1  0.5661780000000  0.4146580000000  0.4785640000000 1.0
C      1  0.4090960000000  0.4307900000000  0.5101230000000 1.0
C      1  0.5164170000000  0.5055050000000  0.4826890000000 1.0
C      1  0.4150130000000  0.4804760000000  0.4533270000000 1.0
C      1  0.4930080000000  0.5202330000000  0.4780430000000 1.0
C      1  0.4304680000000  0.6001530000000  0.5113750000000 1.0
C      1  0.4235830000000  0.6141320000000  0.4891470000000 1.0
C      1  0.3982170000000  0.5517070000000  0.5054480000000 1.0
C      1  0.4553630000000  0.4788010000000  0.5127930000000 1.0
C      1  0.5062950000000  0.4741510000000  0.5171590000000 1.0
C      1  0.5095550000000  0.5077390000000  0.5822500000000 1.0
C      1  0.6002400000000  0.5105780000000  0.5963280000000 1.0
C      1  0.4638660000000  0.5966450000000  0.4540190000000 1.0
C      1  0.4047060000000  0.5038540000000  0.4679450000000 1.0
C      1  0.6337580000000  0.4660510000000  0.5019300000000 1.0
C      1  0.4698160000000  0.4895560000000  0.4452210000000 1.0
C      1  0.4007340000000  0.4538930000000  0.5205120000000 1.0
C      1  0.5064880000000  0.5915830000000  0.4228370000000 1.0
C      1  0.4783660000000  0.4316360000000  0.4489050000000 1.0
C      1  0.5253750000000  0.4383090000000  0.4208900000000 1.0
C      1  0.4784020000000  0.5646920000000  0.4818640000000 1.0
C      1  0.5463700000000  0.4678720000000  0.4960110000000 1.0
C      1  0.5968700000000  0.5810410000000  0.4794660000000 1.0
C      1  0.6165450000000  0.4708800000000  0.4794220000000 1.0
C      1  0.5359450000000  0.5175200000000  0.4659070000000 1.0
C      1  0.5418360000000  0.5666940000000  0.5720500000000 1.0
C      1  0.4387430000000  0.4104540000000  0.4768870000000 1.0
C      1  0.5506920000000  0.5732270000000  0.4894200000000 1.0
C      1  0.5994910000000  0.5087940000000  0.4489100000000 1.0
C      1  0.4911210000000  0.4441020000000  0.4248480000000 1.0
C      1  0.5664000000000  0.4232690000000  0.4490920000000 1.0
C      1  0.4780270000000  0.5777510000000  0.5078030000000 1.0
C      1  0.5096690000000  0.4455220000000  0.6166280000000 1.0
C      1  0.4841820000000  0.4965990000000  0.5979010000000 1.0
C      1  0.4482210000000  0.3856660000000  0.5221980000000 1.0
C      1  0.5597780000000  0.4593710000000  0.5411050000000 1.0
C      1  0.5900380000000  0.5320880000000  0.4334290000000 1.0
C      1  0.4245110000000  0.5868140000000  0.5567920000000 1.0
C      1  0.6008760000000  0.5112300000000  0.4980530000000 1.0
C      1  0.4568610000000  0.5911470000000  0.5217900000000 1.0
C      1  0.3723330000000  0.4464170000000  0.4699450000000 1.0
C      1  0.4069050000000  0.4953050000000  0.5430970000000 1.0
C      1  0.5026500000000  0.4225150000000  0.5678330000000 1.0
C      1  0.5233220000000  0.5658340000000  0.4936020000000 1.0
C      1  0.5265290000000  0.5420030000000  0.4530420000000 1.0
C      1  0.5643100000000  0.5904020000000  0.5092000000000 1.0
C      1  0.5062380000000  0.6220230000000  0.5180960000000 1.0
C      1  0.4939510000000  0.4439320000000  0.4699650000000 1.0
C      1  0.5374730000000  0.5294210000000  0.5352370000000 1.0
C      1  0.6121230000000  0.5043040000000  0.5234770000000 1.0
C      1  0.4217820000000  0.5281820000000  0.4637140000000 1.0
C      1  0.3824600000000  0.4770990000000  0.4171460000000 1.0
C      1  0.5305060000000  0.5798150000000  0.4234420000000 1.0
C      1  0.3896800000000  0.4255720000000  0.4681320000000 1.0
C      1  0.4095810000000  0.5238840000000  0.5438380000000 1.0
C      1  0.5143140000000  0.5200680000000  0.6306560000000 1.0
C      1  0.4056910000000  0.4690200000000  0.4290670000000 1.0
C      1  0.5750290000000  0.4969270000000  0.3985430000000 1.0
C      1  0.5432310000000  0.3968970000000  0.4786020000000 1.0
C      1  0.4819160000000  0.4071620000000  0.4973290000000 1.0
C      1  0.6519350000000  0.4166380000000  0.5127790000000 1.0
C      1  0.5677810000000  0.4694880000000  0.4380060000000 1.0
C      1  0.4378100000000  0.4582500000000  0.3949380000000 1.0
C      1  0.4631340000000  0.4993930000000  0.3849600000000 1.0
C      1  0.4688680000000  0.5104050000000  0.4665570000000 1.0
C      1  0.5762430000000  0.5238290000000  0.4086930000000 1.0
C      1  0.5376860000000  0.4969630000000  0.5752580000000 1.0
C      1  0.5163870000000  0.5982040000000  0.5320940000000 1.0
C      1  0.4019120000000  0.5600030000000  0.4330510000000 1.0
C      1  0.4166470000000  0.5352890000000  0.5183180000000 1.0
C      1  0.6553310000000  0.4883920000000  0.5397610000000 1.0
C      1  0.5068590000000  0.5776330000000  0.5146350000000 1.0
C      1  0.4607620000000  0.5165600000000  0.5975200000000 1.0
C      1  0.4224850000000  0.4803080000000  0.5627680000000 1.0
C      1  0.4907780000000  0.4696030000000  0.5585280000000 1.0
C      1  0.4535010000000  0.5045390000000  0.5233590000000 1.0
C      1  0.5392470000000  0.4550880000000  0.4723580000000 1.0
C      1  0.5337800000000  0.5271270000000  0.3854720000000 1.0
C      1  0.6342840000000  0.4861210000000  0.5224510000000 1.0
C      1  0.5493690000000  0.4830020000000  0.3957000000000 1.0
C      1  0.5998100000000  0.5108980000000  0.5480590000000 1.0
C      1  0.5021740000000  0.4897390000000  0.5403250000000 1.0
C      1  0.4762130000000  0.5211710000000  0.3937920000000 1.0
C      1  0.5477980000000  0.5412530000000  0.5594510000000 1.0
C      1  0.5724580000000  0.5537920000000  0.4449280000000 1.0
END
