TITL C-3201374-830-65 -1.65180735833119e-08 125000 -569.362776591021 0 0 95 (C2) n - 1
REM
REM in /home/nfs/bkarasulu/CARBON/AIRSS/Generating-Clusters/LCBOP/Higher-Symm/SD-CG/FIRE-CG
REM
REM
REM
REM
REM
REM ./C.cell (b20cbc046b6831c77cfcea5457e17084)
REM AIRSS Version 0.9.1 bugfix July 2018 build 013d7b7c2542+ Fri, 06 Jul 2018 19:26:36 +0100
REM compiler GCC version 9.2.1 20190827 (Red Hat 9.2.1-1)
REM options -cpp -mtune=generic -march=x86-64 -g -O0 -fpre-include=/usr/include/finclude/math-vector-fortran.h
REM seed -913386815 -1615648677 -721491134 -403452945 1142691504 378575219 1090372995 -199393655 641800600 -1435447538 74312051 1195620266 -1737063201 1701463963 -965490032 -1448280935 981966203 -1225540684 2042682153 -328651886 1332905374 -1008776033 531097165 513993384 351510440 1475353 -1018417613 185964980 -1189611551 1219311886 -677521513 1854577438 151878861
REM
CELL 1.54180   50.00000   50.00000   50.00000   90.00000   90.00000   90.00000
LATT -1
SFAC C  
C      1  0.4618640000000  0.5418940000000  0.6057830000000 1.0
C      1  0.5464360000000  0.4713500000000  0.6078630000000 1.0
C      1  0.5381810000000  0.5418960000000  0.3927490000000 1.0
C      1  0.4536080000000  0.4713520000000  0.3906680000000 1.0
C      1  0.5275890000000  0.4520440000000  0.6083800000000 1.0
C      1  0.4777290000000  0.5636210000000  0.6069300000000 1.0
C      1  0.5223150000000  0.5636230000000  0.3916020000000 1.0
C      1  0.4724550000000  0.4520460000000  0.3901510000000 1.0
C      1  0.4067830000000  0.4605530000000  0.5006440000000 1.0
C      1  0.6071250000000  0.5251240000000  0.5134150000000 1.0
C      1  0.5932610000000  0.4605530000000  0.4978870000000 1.0
C      1  0.3929190000000  0.5251240000000  0.4851170000000 1.0
C      1  0.4601590000000  0.4031360000000  0.5097030000000 1.0
C      1  0.5316920000000  0.6053920000000  0.4990420000000 1.0
C      1  0.4683520000000  0.6053920000000  0.4994910000000 1.0
C      1  0.5398840000000  0.4031360000000  0.4888270000000 1.0
C      1  0.5284970000000  0.4281920000000  0.4470110000000 1.0
C      1  0.4608430000000  0.5703170000000  0.4636920000000 1.0
C      1  0.4715470000000  0.4281910000000  0.5515190000000 1.0
C      1  0.5392010000000  0.5703170000000  0.5348400000000 1.0
C      1  0.4343480000000  0.5152990000000  0.4598200000000 1.0
C      1  0.5681690000000  0.4627970000000  0.4560260000000 1.0
C      1  0.4318740000000  0.4627960000000  0.5425040000000 1.0
C      1  0.5656960000000  0.5152980000000  0.5387120000000 1.0
C      1  0.4239320000000  0.4690060000000  0.4797400000000 1.0
C      1  0.5977810000000  0.5144430000000  0.4893490000000 1.0
C      1  0.5761110000000  0.4690050000000  0.5187910000000 1.0
C      1  0.4022630000000  0.5144440000000  0.5091830000000 1.0
C      1  0.4675280000000  0.4170730000000  0.4863370000000 1.0
C      1  0.5154540000000  0.5925470000000  0.4807460000000 1.0
C      1  0.4845900000000  0.5925470000000  0.5177870000000 1.0
C      1  0.5325150000000  0.4170730000000  0.5121930000000 1.0
C      1  0.5192290000000  0.5128210000000  0.4303890000000 1.0
C      1  0.4698020000000  0.5040060000000  0.4262240000000 1.0
C      1  0.4808150000000  0.5128200000000  0.5681420000000 1.0
C      1  0.5302420000000  0.5040050000000  0.5723070000000 1.0
C      1  0.4878880000000  0.5580320000000  0.4275800000000 1.0
C      1  0.5044770000000  0.4671980000000  0.4259490000000 1.0
C      1  0.4955670000000  0.4671970000000  0.5725810000000 1.0
C      1  0.5121570000000  0.5580310000000  0.5709520000000 1.0
C      1  0.4989140000000  0.5367520000000  0.5258450000000 1.0
C      1  0.5045650000000  0.4550550000000  0.5269890000000 1.0
C      1  0.5011310000000  0.5367520000000  0.4726870000000 1.0
C      1  0.4954790000000  0.4550560000000  0.4715410000000 1.0
C      1  0.5226570000000  0.4982420000000  0.5001700000000 1.0
C      1  0.4596290000000  0.4995400000000  0.5233630000000 1.0
C      1  0.5404150000000  0.4995400000000  0.4751690000000 1.0
C      1  0.4773870000000  0.4982420000000  0.4983620000000 1.0
C      1  0.4822870000000  0.4562490000000  0.5477240000000 1.0
C      1  0.5233090000000  0.5458330000000  0.5452250000000 1.0
C      1  0.5177560000000  0.4562500000000  0.4508060000000 1.0
C      1  0.4767350000000  0.5458340000000  0.4533070000000 1.0
C      1  0.4579310000000  0.4733110000000  0.5385740000000 1.0
C      1  0.5411290000000  0.5217500000000  0.5521920000000 1.0
C      1  0.4589150000000  0.5217510000000  0.4463390000000 1.0
C      1  0.5421130000000  0.4733110000000  0.4599570000000 1.0
C      1  0.4946540000000  0.4506450000000  0.4053700000000 1.0
C      1  0.5011370000000  0.5689240000000  0.4072120000000 1.0
C      1  0.5053890000000  0.4506440000000  0.5931610000000 1.0
C      1  0.4989070000000  0.5689230000000  0.5913210000000 1.0
C      1  0.4529790000000  0.4933380000000  0.4061990000000 1.0
C      1  0.5360030000000  0.5211080000000  0.4095840000000 1.0
C      1  0.4640410000000  0.5211070000000  0.5889480000000 1.0
C      1  0.5470650000000  0.4933360000000  0.5923320000000 1.0
C      1  0.4084500000000  0.5280510000000  0.4623550000000 1.0
C      1  0.5892800000000  0.4571370000000  0.4715520000000 1.0
C      1  0.5915940000000  0.5280500000000  0.5361770000000 1.0
C      1  0.4107640000000  0.4571370000000  0.5269780000000 1.0
C      1  0.5376920000000  0.4082960000000  0.4625370000000 1.0
C      1  0.4588840000000  0.5939980000000  0.4766160000000 1.0
C      1  0.5411610000000  0.5939970000000  0.5219170000000 1.0
C      1  0.4623520000000  0.4082950000000  0.5359930000000 1.0
C      1  0.5654900000000  0.4956270000000  0.5170040000000 1.0
C      1  0.4327930000000  0.5103730000000  0.5095950000000 1.0
C      1  0.4345540000000  0.4956270000000  0.4815280000000 1.0
C      1  0.5672510000000  0.5103720000000  0.4889360000000 1.0
C      1  0.4896220000000  0.5632650000000  0.5118290000000 1.0
C      1  0.5081220000000  0.4316700000000  0.5109470000000 1.0
C      1  0.4919220000000  0.4316710000000  0.4875830000000 1.0
C      1  0.5104230000000  0.5632650000000  0.4867030000000 1.0
C      1  0.5597030000000  0.5395000000000  0.4901840000000 1.0
C      1  0.4343450000000  0.4484530000000  0.4637140000000 1.0
C      1  0.4403420000000  0.5395000000000  0.5083480000000 1.0
C      1  0.5656980000000  0.4484520000000  0.5348160000000 1.0
C      1  0.5390320000000  0.5553420000000  0.4918160000000 1.0
C      1  0.4485130000000  0.4260010000000  0.4676490000000 1.0
C      1  0.5515310000000  0.4260000000000  0.5308810000000 1.0
C      1  0.4610120000000  0.5553420000000  0.5067170000000 1.0
C      1  0.4765240000000  0.5202270000000  0.5411060000000 1.0
C      1  0.5235200000000  0.5202270000000  0.4574260000000 1.0
C      1  0.5194480000000  0.4774980000000  0.5189230000000 1.0
C      1  0.4805960000000  0.4774990000000  0.4796080000000 1.0
C      1  0.4973820000000  0.4950790000000  0.4262760000000 1.0
C      1  0.5026620000000  0.4950770000000  0.5722550000000 1.0
C      1  0.5000220000000  0.5180950000000  0.4992660000000 1.0
END
