TITL C-3201374-830-689 0.255797051179828 125000 -606.315830239497 0 0 101 (C1) n - 1
REM
REM in /home/nfs/bkarasulu/CARBON/AIRSS/Generating-Clusters/LCBOP/Higher-Symm/SD-CG/FIRE-CG
REM
REM
REM
REM
REM
REM ./C.cell (b20cbc046b6831c77cfcea5457e17084)
REM AIRSS Version 0.9.1 bugfix July 2018 build 013d7b7c2542+ Fri, 06 Jul 2018 19:26:36 +0100
REM compiler GCC version 9.2.1 20190827 (Red Hat 9.2.1-1)
REM options -cpp -mtune=generic -march=x86-64 -g -O0 -fpre-include=/usr/include/finclude/math-vector-fortran.h
REM seed 38885681 -636865142 411126158 -534889408 1721684060 659672479 478511369 -2052250274 -3765914 -321491275 -902260927 1363666631 -125439057 1035002423 -1028790250 530635643 1695505640 -1308177741 -262423188 -989500322 -860424948 -713015390 1807013669 -1733006388 -858367677 1000578579 2096038413 -1360990923 719385869 1596994054 -434359322 -376596041 -1616530915
REM
CELL 1.54180   50.00000   50.00000   50.00000   90.00000   90.00000   90.00000
LATT -1
SFAC C  
C      1  0.5199130000000  0.5246460000000  0.5122770000000 1.0
C      1  0.5249220000000  0.4694770000000  0.5154310000000 1.0
C      1  0.5293620000000  0.4745050000000  0.5661680000000 1.0
C      1  0.5385230000000  0.4709800000000  0.5903510000000 1.0
C      1  0.4370420000000  0.5155160000000  0.4936340000000 1.0
C      1  0.4363860000000  0.4873950000000  0.4943350000000 1.0
C      1  0.5206850000000  0.5768950000000  0.4377610000000 1.0
C      1  0.5176270000000  0.4201240000000  0.4470290000000 1.0
C      1  0.4600220000000  0.4767570000000  0.5069510000000 1.0
C      1  0.4609800000000  0.5253560000000  0.5058130000000 1.0
C      1  0.4137990000000  0.4710290000000  0.4916210000000 1.0
C      1  0.4159420000000  0.5335440000000  0.4897980000000 1.0
C      1  0.4524140000000  0.5734740000000  0.4542000000000 1.0
C      1  0.4483080000000  0.4292420000000  0.4585910000000 1.0
C      1  0.5302800000000  0.5966740000000  0.5008980000000 1.0
C      1  0.5121900000000  0.3827530000000  0.5076950000000 1.0
C      1  0.4899990000000  0.5348140000000  0.6019600000000 1.0
C      1  0.4815900000000  0.4733320000000  0.6063630000000 1.0
C      1  0.4729000000000  0.4872730000000  0.5305750000000 1.0
C      1  0.4733500000000  0.5153990000000  0.5297940000000 1.0
C      1  0.4159390000000  0.5597570000000  0.4962800000000 1.0
C      1  0.4117930000000  0.4454150000000  0.4999020000000 1.0
C      1  0.4977500000000  0.3942140000000  0.4860760000000 1.0
C      1  0.5094590000000  0.5987040000000  0.4811660000000 1.0
C      1  0.4280050000000  0.4861970000000  0.3793540000000 1.0
C      1  0.4275520000000  0.5130340000000  0.3786470000000 1.0
C      1  0.4781860000000  0.5754430000000  0.5357570000000 1.0
C      1  0.4740280000000  0.4291180000000  0.5389990000000 1.0
C      1  0.4516410000000  0.4209800000000  0.4858660000000 1.0
C      1  0.4571170000000  0.5820580000000  0.4812690000000 1.0
C      1  0.5562020000000  0.4768150000000  0.4734960000000 1.0
C      1  0.5499850000000  0.5228500000000  0.4724070000000 1.0
C      1  0.5805970000000  0.4708590000000  0.5313950000000 1.0
C      1  0.5744470000000  0.5240500000000  0.5395410000000 1.0
C      1  0.4345190000000  0.4305660000000  0.5082800000000 1.0
C      1  0.4392640000000  0.5740730000000  0.5042310000000 1.0
C      1  0.5481040000000  0.4838780000000  0.4460130000000 1.0
C      1  0.5461380000000  0.5133170000000  0.4448990000000 1.0
C      1  0.4233840000000  0.5180620000000  0.5489540000000 1.0
C      1  0.4222920000000  0.4898190000000  0.5494020000000 1.0
C      1  0.4657430000000  0.4745530000000  0.5551600000000 1.0
C      1  0.4680410000000  0.5305690000000  0.5533230000000 1.0
C      1  0.5227680000000  0.3908690000000  0.5311450000000 1.0
C      1  0.5431890000000  0.5795200000000  0.5198840000000 1.0
C      1  0.6383150000000  0.4452480000000  0.4933450000000 1.0
C      1  0.5882860000000  0.5813090000000  0.5012090000000 1.0
C      1  0.5083950000000  0.4474100000000  0.4398390000000 1.0
C      1  0.5091130000000  0.5499320000000  0.4333170000000 1.0
C      1  0.5218210000000  0.5116160000000  0.5368860000000 1.0
C      1  0.5251050000000  0.4838960000000  0.5403120000000 1.0
C      1  0.5020500000000  0.5808360000000  0.5515450000000 1.0
C      1  0.4959750000000  0.4217830000000  0.5569930000000 1.0
C      1  0.4321990000000  0.4660130000000  0.3966280000000 1.0
C      1  0.4312580000000  0.5341960000000  0.3948360000000 1.0
C      1  0.6162640000000  0.4587200000000  0.4991830000000 1.0
C      1  0.5677270000000  0.5650130000000  0.5116590000000 1.0
C      1  0.5638940000000  0.5400100000000  0.5604070000000 1.0
C      1  0.5666450000000  0.4473790000000  0.5407830000000 1.0
C      1  0.4455250000000  0.4377890000000  0.5353260000000 1.0
C      1  0.4492700000000  0.5679010000000  0.5322650000000 1.0
C      1  0.4830180000000  0.5560300000000  0.4187630000000 1.0
C      1  0.4823070000000  0.4427040000000  0.4246870000000 1.0
C      1  0.4845510000000  0.5866880000000  0.4889570000000 1.0
C      1  0.4780260000000  0.4134760000000  0.4936810000000 1.0
C      1  0.5347360000000  0.4826270000000  0.4926240000000 1.0
C      1  0.5303970000000  0.5110640000000  0.4904700000000 1.0
C      1  0.5747420000000  0.5193560000000  0.4888730000000 1.0
C      1  0.5798080000000  0.4895910000000  0.4865060000000 1.0
C      1  0.5311350000000  0.5298600000000  0.4270570000000 1.0
C      1  0.5316900000000  0.4653230000000  0.4316710000000 1.0
C      1  0.5106930000000  0.3988040000000  0.4616200000000 1.0
C      1  0.5173020000000  0.5975840000000  0.4543520000000 1.0
C      1  0.4820400000000  0.5359090000000  0.5765980000000 1.0
C      1  0.4762490000000  0.4704280000000  0.5804520000000 1.0
C      1  0.4387920000000  0.4641830000000  0.4240530000000 1.0
C      1  0.4385420000000  0.5374470000000  0.4219720000000 1.0
C      1  0.5742830000000  0.5361370000000  0.5130390000000 1.0
C      1  0.5929760000000  0.4725650000000  0.5053980000000 1.0
C      1  0.5303390000000  0.5755510000000  0.5461390000000 1.0
C      1  0.5229870000000  0.4135600000000  0.5485480000000 1.0
C      1  0.4337720000000  0.5146370000000  0.4378910000000 1.0
C      1  0.4339900000000  0.4878890000000  0.4385950000000 1.0
C      1  0.4553460000000  0.4435800000000  0.4348040000000 1.0
C      1  0.4567760000000  0.5576340000000  0.4306430000000 1.0
C      1  0.4385800000000  0.4643430000000  0.5491850000000 1.0
C      1  0.4414090000000  0.5423080000000  0.5475790000000 1.0
C      1  0.4885180000000  0.4915920000000  0.6246610000000 1.0
C      1  0.4926000000000  0.5180390000000  0.6226420000000 1.0
C      1  0.4972190000000  0.4633090000000  0.4629890000000 1.0
C      1  0.4972540000000  0.5368580000000  0.4579180000000 1.0
C      1  0.5470120000000  0.4297630000000  0.5480820000000 1.0
C      1  0.5457710000000  0.5596130000000  0.5637390000000 1.0
C      1  0.5067980000000  0.5480130000000  0.5078050000000 1.0
C      1  0.5099950000000  0.4466870000000  0.5113040000000 1.0
C      1  0.6069390000000  0.5962730000000  0.4908560000000 1.0
C      1  0.6599980000000  0.4319620000000  0.4876040000000 1.0
C      1  0.4867010000000  0.4873230000000  0.4667660000000 1.0
C      1  0.4863260000000  0.5136080000000  0.4644060000000 1.0
C      1  0.4897420000000  0.5691430000000  0.5102810000000 1.0
C      1  0.4876550000000  0.4307590000000  0.5136490000000 1.0
C      1  0.5790800000000  0.4964330000000  0.5436970000000 1.0
END
