TITL C-3201373-1215-1243 9.64779094414136e-06 125000 -749.175271858337 0 0 121 (C1) n - 1
REM
REM in /home/nfs/bkarasulu/CARBON/AIRSS/Generating-Clusters/LCBOP/Higher-Symm/SD-CG/FIRE-CG
REM
REM
REM
REM
REM
REM ./C.cell (b20cbc046b6831c77cfcea5457e17084)
REM AIRSS Version 0.9.1 bugfix July 2018 build 013d7b7c2542+ Fri, 06 Jul 2018 19:26:36 +0100
REM compiler GCC version 9.2.1 20190827 (Red Hat 9.2.1-1)
REM options -cpp -mtune=generic -march=x86-64 -g -O0 -fpre-include=/usr/include/finclude/math-vector-fortran.h
REM seed -205490483 -1581867361 -2009407263 589861989 1164667817 1813854202 321649425 485836063 -585824474 1019004466 1981501757 -372000206 419432646 897185584 -89997719 1666476660 -810563735 433996561 775244755 1216713829 1033405322 -1336344035 1727883062 1762993417 -1164891995 507018092 292002420 1802664419 385492045 -1641713763 -744601407 900549602 383207089
REM
CELL 1.54180   50.00000   50.00000   50.00000   90.00000   90.00000   90.00000
LATT -1
SFAC C  
C      1  0.5465970000000  0.5169050000000  0.5903650000000 1.0
C      1  0.5464130000000  0.4844690000000  0.4081640000000 1.0
C      1  0.5447250000000  0.5130740000000  0.4091980000000 1.0
C      1  0.5439560000000  0.4883890000000  0.5896360000000 1.0
C      1  0.4252150000000  0.4404560000000  0.4775330000000 1.0
C      1  0.4239550000000  0.5547780000000  0.5224680000000 1.0
C      1  0.4210020000000  0.4392950000000  0.5071940000000 1.0
C      1  0.4229700000000  0.5559880000000  0.4921760000000 1.0
C      1  0.4906520000000  0.5845260000000  0.5590810000000 1.0
C      1  0.4920270000000  0.4141780000000  0.4401610000000 1.0
C      1  0.4838210000000  0.5765100000000  0.4460800000000 1.0
C      1  0.4828040000000  0.4240050000000  0.5533440000000 1.0
C      1  0.5822300000000  0.4720380000000  0.4418720000000 1.0
C      1  0.5830010000000  0.5264760000000  0.5562540000000 1.0
C      1  0.5787560000000  0.4720890000000  0.5562470000000 1.0
C      1  0.5812280000000  0.5265090000000  0.4422260000000 1.0
C      1  0.4432760000000  0.5012400000000  0.4416690000000 1.0
C      1  0.4452950000000  0.4976600000000  0.5567360000000 1.0
C      1  0.4410160000000  0.4734420000000  0.5439750000000 1.0
C      1  0.4424440000000  0.5217320000000  0.4590080000000 1.0
C      1  0.5238530000000  0.5336500000000  0.5936100000000 1.0
C      1  0.5231160000000  0.4684000000000  0.4054980000000 1.0
C      1  0.5195780000000  0.5262400000000  0.4072210000000 1.0
C      1  0.5183930000000  0.4760920000000  0.5913960000000 1.0
C      1  0.4464250000000  0.5978580000000  0.4933540000000 1.0
C      1  0.4453960000000  0.3977050000000  0.5080570000000 1.0
C      1  0.4460510000000  0.5978790000000  0.5206400000000 1.0
C      1  0.4475850000000  0.3972310000000  0.4808550000000 1.0
C      1  0.4995700000000  0.5210520000000  0.6020480000000 1.0
C      1  0.4990960000000  0.4816760000000  0.3974720000000 1.0
C      1  0.4977760000000  0.5106800000000  0.3971630000000 1.0
C      1  0.4972590000000  0.4921130000000  0.6020110000000 1.0
C      1  0.4326820000000  0.5250310000000  0.6272740000000 1.0
C      1  0.4318180000000  0.4794900000000  0.3730990000000 1.0
C      1  0.4311930000000  0.5063530000000  0.3712780000000 1.0
C      1  0.4312320000000  0.4981860000000  0.6288460000000 1.0
C      1  0.4818350000000  0.4561310000000  0.5171000000000 1.0
C      1  0.4855390000000  0.5419000000000  0.4789230000000 1.0
C      1  0.4851050000000  0.4556400000000  0.4619730000000 1.0
C      1  0.4875810000000  0.5429660000000  0.5376730000000 1.0
C      1  0.5185580000000  0.4251200000000  0.4380130000000 1.0
C      1  0.5183140000000  0.5763030000000  0.5608590000000 1.0
C      1  0.5094370000000  0.4333670000000  0.5578820000000 1.0
C      1  0.5110340000000  0.5689990000000  0.4405290000000 1.0
C      1  0.5536830000000  0.4032090000000  0.5283300000000 1.0
C      1  0.5552440000000  0.5993960000000  0.4711300000000 1.0
C      1  0.5640840000000  0.4075130000000  0.4764670000000 1.0
C      1  0.5652680000000  0.5941100000000  0.5229320000000 1.0
C      1  0.4517640000000  0.4634710000000  0.3813020000000 1.0
C      1  0.4530420000000  0.5405100000000  0.6190520000000 1.0
C      1  0.4497060000000  0.4797650000000  0.6224280000000 1.0
C      1  0.4502930000000  0.5242510000000  0.3773350000000 1.0
C      1  0.5251480000000  0.5623050000000  0.4654810000000 1.0
C      1  0.5223130000000  0.4395530000000  0.5324320000000 1.0
C      1  0.5284870000000  0.5657260000000  0.5351200000000 1.0
C      1  0.5275520000000  0.4361340000000  0.4638150000000 1.0
C      1  0.3942300000000  0.5095880000000  0.5329600000000 1.0
C      1  0.3993080000000  0.4859620000000  0.4687300000000 1.0
C      1  0.3954680000000  0.5127640000000  0.4731130000000 1.0
C      1  0.3928310000000  0.4825660000000  0.5274180000000 1.0
C      1  0.6053190000000  0.5245040000000  0.5125390000000 1.0
C      1  0.6036290000000  0.4719360000000  0.4861520000000 1.0
C      1  0.6051240000000  0.5248850000000  0.4854220000000 1.0
C      1  0.6028260000000  0.4716310000000  0.5132380000000 1.0
C      1  0.4052390000000  0.5349890000000  0.5335090000000 1.0
C      1  0.4193210000000  0.4656170000000  0.4644020000000 1.0
C      1  0.4038350000000  0.5381010000000  0.4795210000000 1.0
C      1  0.4014850000000  0.4575870000000  0.5192540000000 1.0
C      1  0.5129560000000  0.4613670000000  0.4661400000000 1.0
C      1  0.5154890000000  0.5399700000000  0.5330950000000 1.0
C      1  0.5092230000000  0.4640480000000  0.5230530000000 1.0
C      1  0.5128510000000  0.5372390000000  0.4732320000000 1.0
C      1  0.5145900000000  0.4504410000000  0.5799000000000 1.0
C      1  0.5163240000000  0.5522630000000  0.4181630000000 1.0
C      1  0.5236950000000  0.4416960000000  0.4153650000000 1.0
C      1  0.5247580000000  0.5603300000000  0.5836760000000 1.0
C      1  0.4680700000000  0.4339850000000  0.5311480000000 1.0
C      1  0.4697800000000  0.5637170000000  0.4674260000000 1.0
C      1  0.4732330000000  0.4299220000000  0.4546200000000 1.0
C      1  0.4727750000000  0.5663750000000  0.5460590000000 1.0
C      1  0.4478560000000  0.5164050000000  0.5351610000000 1.0
C      1  0.4438120000000  0.4766440000000  0.4547850000000 1.0
C      1  0.4466240000000  0.5172730000000  0.4866560000000 1.0
C      1  0.4413050000000  0.4777690000000  0.5149440000000 1.0
C      1  0.4719330000000  0.5257760000000  0.4963130000000 1.0
C      1  0.4638980000000  0.4698340000000  0.5005950000000 1.0
C      1  0.4722500000000  0.5252680000000  0.5242850000000 1.0
C      1  0.4657080000000  0.4720150000000  0.4726150000000 1.0
C      1  0.4752310000000  0.5239440000000  0.3869120000000 1.0
C      1  0.4745220000000  0.4794200000000  0.6125380000000 1.0
C      1  0.4779180000000  0.5371240000000  0.6099270000000 1.0
C      1  0.4768100000000  0.4662070000000  0.3901780000000 1.0
C      1  0.5394980000000  0.5788970000000  0.4838670000000 1.0
C      1  0.5376700000000  0.4230030000000  0.5149140000000 1.0
C      1  0.5429720000000  0.5782350000000  0.5138700000000 1.0
C      1  0.5417180000000  0.4234610000000  0.4851190000000 1.0
C      1  0.5303440000000  0.5163990000000  0.5262580000000 1.0
C      1  0.5292180000000  0.4846080000000  0.4714110000000 1.0
C      1  0.5299580000000  0.5143560000000  0.4736870000000 1.0
C      1  0.5274680000000  0.4866410000000  0.5233830000000 1.0
C      1  0.5551320000000  0.4768000000000  0.4839690000000 1.0
C      1  0.5564390000000  0.5229220000000  0.5139460000000 1.0
C      1  0.5542310000000  0.4778850000000  0.5129500000000 1.0
C      1  0.5562500000000  0.5218340000000  0.4850330000000 1.0
C      1  0.4472930000000  0.4223290000000  0.4667810000000 1.0
C      1  0.4461000000000  0.5723460000000  0.5342690000000 1.0
C      1  0.4428150000000  0.4234710000000  0.5204970000000 1.0
C      1  0.4447800000000  0.5724730000000  0.4800400000000 1.0
C      1  0.5819930000000  0.5148630000000  0.4694010000000 1.0
C      1  0.5802410000000  0.4833730000000  0.5289800000000 1.0
C      1  0.5822160000000  0.5150640000000  0.5290320000000 1.0
C      1  0.5816370000000  0.4831290000000  0.4692220000000 1.0
C      1  0.5802070000000  0.6116600000000  0.5085960000000 1.0
C      1  0.5791240000000  0.3904840000000  0.4913220000000 1.0
C      1  0.5748720000000  0.6145890000000  0.4821170000000 1.0
C      1  0.5736340000000  0.3880890000000  0.5178270000000 1.0
C      1  0.5668550000000  0.5267290000000  0.4197520000000 1.0
C      1  0.5654380000000  0.4736490000000  0.5792700000000 1.0
C      1  0.5700910000000  0.5277290000000  0.5795260000000 1.0
C      1  0.5696940000000  0.4725900000000  0.4183640000000 1.0
C      1  0.4353270000000  0.5052070000000  0.5102300000000 1.0
END
