TITL C-3201375-1262-822 -18.420800089068 125000 -1175.73020492639 0 0 196 (C1) n - 1
REM
REM in /home/nfs/bkarasulu/CARBON/AIRSS/Generating-Clusters/LCBOP/Higher-Symm/SD-CG/FIRE-CG
REM
REM
REM
REM
REM
REM ./C.cell (b20cbc046b6831c77cfcea5457e17084)
REM AIRSS Version 0.9.1 bugfix July 2018 build 013d7b7c2542+ Fri, 06 Jul 2018 19:26:36 +0100
REM compiler GCC version 9.2.1 20190827 (Red Hat 9.2.1-1)
REM options -cpp -mtune=generic -march=x86-64 -g -O0 -fpre-include=/usr/include/finclude/math-vector-fortran.h
REM seed -1445014326 -833222982 786336210 1416247721 -321166498 -691210463 -568787498 -1120816020 -1613481431 -771988613 -2057349650 367516506 -58523980 -297036766 -698559862 -531729580 912864562 -564981453 512288793 848895470 -1600259161 2102297257 1020919259 1665362616 -1573519171 -2004293043 -1269240213 883559383 -1818497252 -1199261982 -1532909314 1834978478 -406269638
REM
CELL 1.54180   50.00000   50.00000   50.00000   90.00000   90.00000   90.00000
LATT -1
SFAC C  
C      1  0.5092370000000  0.4912370000000  0.3626350000000 1.0
C      1  0.4073180000000  0.5071370000000  0.6242700000000 1.0
C      1  0.5623940000000  0.5004240000000  0.4970490000000 1.0
C      1  0.4417310000000  0.5190700000000  0.4834930000000 1.0
C      1  0.4579090000000  0.3993510000000  0.4215770000000 1.0
C      1  0.5366700000000  0.4073480000000  0.5811630000000 1.0
C      1  0.4103190000000  0.5630130000000  0.4655430000000 1.0
C      1  0.5888930000000  0.5627750000000  0.5426140000000 1.0
C      1  0.3985110000000  0.4276740000000  0.4501080000000 1.0
C      1  0.6021920000000  0.4321720000000  0.5584180000000 1.0
C      1  0.5239060000000  0.5476260000000  0.5178100000000 1.0
C      1  0.4757520000000  0.5470430000000  0.4688180000000 1.0
C      1  0.5178870000000  0.6182310000000  0.4280910000000 1.0
C      1  0.4823210000000  0.6148060000000  0.5798020000000 1.0
C      1  0.4492190000000  0.6025290000000  0.5208410000000 1.0
C      1  0.5524090000000  0.5978520000000  0.4847980000000 1.0
C      1  0.5929080000000  0.5089090000000  0.5493470000000 1.0
C      1  0.4055690000000  0.5042250000000  0.4533050000000 1.0
C      1  0.4884100000000  0.5332130000000  0.3555800000000 1.0
C      1  0.5010810000000  0.5048700000000  0.6285950000000 1.0
C      1  0.4213550000000  0.5329400000000  0.5465350000000 1.0
C      1  0.5940040000000  0.5324940000000  0.4621510000000 1.0
C      1  0.5824840000000  0.4790990000000  0.4538240000000 1.0
C      1  0.4303530000000  0.4803640000000  0.5449640000000 1.0
C      1  0.4632670000000  0.4637600000000  0.3734010000000 1.0
C      1  0.5038680000000  0.4795410000000  0.6116830000000 1.0
C      1  0.4397080000000  0.5283570000000  0.4040150000000 1.0
C      1  0.5622300000000  0.5394070000000  0.5886930000000 1.0
C      1  0.5312750000000  0.5050840000000  0.3750260000000 1.0
C      1  0.4339330000000  0.5043500000000  0.6183750000000 1.0
C      1  0.5750720000000  0.5234590000000  0.5039170000000 1.0
C      1  0.4444470000000  0.5381020000000  0.5045210000000 1.0
C      1  0.5529560000000  0.5152020000000  0.4411370000000 1.0
C      1  0.4648310000000  0.5149220000000  0.5418490000000 1.0
C      1  0.5406490000000  0.6024620000000  0.5368260000000 1.0
C      1  0.4570250000000  0.6044640000000  0.4685290000000 1.0
C      1  0.5793450000000  0.5085950000000  0.4505150000000 1.0
C      1  0.4369730000000  0.5086770000000  0.5457480000000 1.0
C      1  0.6059930000000  0.3972170000000  0.4758330000000 1.0
C      1  0.3936000000000  0.3975990000000  0.5501320000000 1.0
C      1  0.5369980000000  0.5068770000000  0.4866690000000 1.0
C      1  0.4819600000000  0.5090960000000  0.4946050000000 1.0
C      1  0.4900640000000  0.5225530000000  0.4717320000000 1.0
C      1  0.5230540000000  0.5213990000000  0.5066950000000 1.0
C      1  0.4299200000000  0.5028840000000  0.4388830000000 1.0
C      1  0.5649670000000  0.5077680000000  0.5545630000000 1.0
C      1  0.5988070000000  0.3721770000000  0.4748680000000 1.0
C      1  0.3964560000000  0.3731860000000  0.5588160000000 1.0
C      1  0.4503170000000  0.5364100000000  0.4590370000000 1.0
C      1  0.5372600000000  0.5459020000000  0.5431030000000 1.0
C      1  0.4825140000000  0.5006870000000  0.5228340000000 1.0
C      1  0.5313070000000  0.5009910000000  0.4577650000000 1.0
C      1  0.5544300000000  0.4560860000000  0.4588980000000 1.0
C      1  0.4517810000000  0.4613660000000  0.5338490000000 1.0
C      1  0.3885890000000  0.4543860000000  0.5045520000000 1.0
C      1  0.6219690000000  0.4611940000000  0.5050430000000 1.0
C      1  0.5046400000000  0.4076520000000  0.4363820000000 1.0
C      1  0.4929670000000  0.4087670000000  0.5581450000000 1.0
C      1  0.5789040000000  0.5002330000000  0.6154960000000 1.0
C      1  0.4399760000000  0.4795260000000  0.3811620000000 1.0
C      1  0.4711830000000  0.5717590000000  0.6171420000000 1.0
C      1  0.5274340000000  0.5809300000000  0.3882940000000 1.0
C      1  0.4099830000000  0.4043520000000  0.4431540000000 1.0
C      1  0.5880460000000  0.4106000000000  0.5664820000000 1.0
C      1  0.5390130000000  0.4361930000000  0.5034720000000 1.0
C      1  0.4699880000000  0.4471220000000  0.4907010000000 1.0
C      1  0.5223490000000  0.4894410000000  0.5448480000000 1.0
C      1  0.4631810000000  0.4840960000000  0.4662240000000 1.0
C      1  0.3666300000000  0.4893710000000  0.5812980000000 1.0
C      1  0.6469910000000  0.4784820000000  0.4220190000000 1.0
C      1  0.3961530000000  0.4774660000000  0.4601730000000 1.0
C      1  0.6057950000000  0.4824230000000  0.5475870000000 1.0
C      1  0.4867660000000  0.4764410000000  0.3638990000000 1.0
C      1  0.4957000000000  0.4879680000000  0.5842550000000 1.0
C      1  0.4781570000000  0.5282900000000  0.5624630000000 1.0
C      1  0.5373150000000  0.5293480000000  0.4216260000000 1.0
C      1  0.4436650000000  0.4791630000000  0.6100650000000 1.0
C      1  0.5423620000000  0.4889570000000  0.3959570000000 1.0
C      1  0.6199230000000  0.5288670000000  0.5130050000000 1.0
C      1  0.3907820000000  0.5264940000000  0.4993340000000 1.0
C      1  0.5219590000000  0.5253940000000  0.6214080000000 1.0
C      1  0.4772470000000  0.5426950000000  0.3809930000000 1.0
C      1  0.5484130000000  0.4268280000000  0.4504210000000 1.0
C      1  0.4528700000000  0.4319480000000  0.5415150000000 1.0
C      1  0.3993710000000  0.5337000000000  0.4707300000000 1.0
C      1  0.6031060000000  0.5353330000000  0.5376720000000 1.0
C      1  0.5816330000000  0.5589280000000  0.4579710000000 1.0
C      1  0.4437760000000  0.5600560000000  0.5542020000000 1.0
C      1  0.4675200000000  0.3830760000000  0.4934710000000 1.0
C      1  0.5306610000000  0.3841310000000  0.5052920000000 1.0
C      1  0.5472560000000  0.4606660000000  0.5692880000000 1.0
C      1  0.4540630000000  0.4590440000000  0.4282720000000 1.0
C      1  0.5078780000000  0.5749380000000  0.3671920000000 1.0
C      1  0.4880780000000  0.5538680000000  0.6344330000000 1.0
C      1  0.4808570000000  0.5893080000000  0.5949110000000 1.0
C      1  0.5165700000000  0.5944030000000  0.4115350000000 1.0
C      1  0.6240270000000  0.4805060000000  0.5252820000000 1.0
C      1  0.3854180000000  0.4759500000000  0.4870050000000 1.0
C      1  0.5558120000000  0.4530560000000  0.4889720000000 1.0
C      1  0.4487750000000  0.4641340000000  0.5032300000000 1.0
C      1  0.4406550000000  0.5286190000000  0.4326190000000 1.0
C      1  0.5534630000000  0.5325030000000  0.5625220000000 1.0
C      1  0.5053060000000  0.5656250000000  0.5064210000000 1.0
C      1  0.4858470000000  0.5659830000000  0.4874820000000 1.0
C      1  0.5735480000000  0.4615280000000  0.5816410000000 1.0
C      1  0.4256380000000  0.4545450000000  0.4213630000000 1.0
C      1  0.5738900000000  0.5256930000000  0.6087270000000 1.0
C      1  0.4395980000000  0.5077470000000  0.3859340000000 1.0
C      1  0.4712790000000  0.5818370000000  0.4282260000000 1.0
C      1  0.5207870000000  0.5757310000000  0.5717990000000 1.0
C      1  0.4899070000000  0.6199960000000  0.5512990000000 1.0
C      1  0.5102930000000  0.6195720000000  0.4564240000000 1.0
C      1  0.5456260000000  0.5573330000000  0.3859720000000 1.0
C      1  0.4473370000000  0.5544300000000  0.6139370000000 1.0
C      1  0.5569470000000  0.5940830000000  0.5134530000000 1.0
C      1  0.4414480000000  0.5977940000000  0.4927210000000 1.0
C      1  0.5756590000000  0.5722650000000  0.5181970000000 1.0
C      1  0.4211050000000  0.5764830000000  0.4897880000000 1.0
C      1  0.6079240000000  0.4676040000000  0.4577390000000 1.0
C      1  0.4041300000000  0.4696160000000  0.5483390000000 1.0
C      1  0.4805250000000  0.5715180000000  0.3772930000000 1.0
C      1  0.5166980000000  0.5499650000000  0.6352800000000 1.0
C      1  0.5056630000000  0.5145840000000  0.4500120000000 1.0
C      1  0.5112880000000  0.5056120000000  0.5265550000000 1.0
C      1  0.5958980000000  0.4594420000000  0.5628670000000 1.0
C      1  0.4055830000000  0.4543690000000  0.4434020000000 1.0
C      1  0.5281410000000  0.4275040000000  0.6037130000000 1.0
C      1  0.4610080000000  0.4139040000000  0.3968030000000 1.0
C      1  0.5177970000000  0.5281680000000  0.5932290000000 1.0
C      1  0.4883750000000  0.5309140000000  0.4044810000000 1.0
C      1  0.5020050000000  0.4302630000000  0.4181020000000 1.0
C      1  0.4949480000000  0.4318120000000  0.5748140000000 1.0
C      1  0.5295120000000  0.3905390000000  0.4786350000000 1.0
C      1  0.4663200000000  0.3898220000000  0.5195790000000 1.0
C      1  0.4511220000000  0.4840140000000  0.4416520000000 1.0
C      1  0.5479290000000  0.4855130000000  0.5538170000000 1.0
C      1  0.4692400000000  0.6195330000000  0.5314250000000 1.0
C      1  0.5314690000000  0.6139050000000  0.4746310000000 1.0
C      1  0.5082910000000  0.5255910000000  0.4234770000000 1.0
C      1  0.4962080000000  0.5161550000000  0.5799080000000 1.0
C      1  0.4922720000000  0.5715880000000  0.5748840000000 1.0
C      1  0.4992830000000  0.5776300000000  0.4276880000000 1.0
C      1  0.5016560000000  0.4735910000000  0.5587420000000 1.0
C      1  0.4998730000000  0.4626650000000  0.4483400000000 1.0
C      1  0.4798940000000  0.4729300000000  0.5373950000000 1.0
C      1  0.5304100000000  0.4723010000000  0.4455360000000 1.0
C      1  0.4695420000000  0.4081370000000  0.5411540000000 1.0
C      1  0.5279820000000  0.4065230000000  0.4543910000000 1.0
C      1  0.3950350000000  0.4484510000000  0.5312620000000 1.0
C      1  0.6140660000000  0.4507450000000  0.4801270000000 1.0
C      1  0.4791970000000  0.3948190000000  0.4412330000000 1.0
C      1  0.5197140000000  0.3974220000000  0.5578490000000 1.0
C      1  0.4201370000000  0.4642520000000  0.3952330000000 1.0
C      1  0.5775950000000  0.4752760000000  0.6058350000000 1.0
C      1  0.5677910000000  0.5809230000000  0.4665990000000 1.0
C      1  0.4391390000000  0.5843960000000  0.5407380000000 1.0
C      1  0.6281730000000  0.4726850000000  0.4390880000000 1.0
C      1  0.3866290000000  0.4801560000000  0.5673570000000 1.0
C      1  0.5353350000000  0.5341420000000  0.3699890000000 1.0
C      1  0.4511560000000  0.5265250000000  0.6217660000000 1.0
C      1  0.3788930000000  0.5007060000000  0.4997550000000 1.0
C      1  0.6357900000000  0.5054100000000  0.5179590000000 1.0
C      1  0.4045570000000  0.5394920000000  0.5226720000000 1.0
C      1  0.6130960000000  0.5321090000000  0.4845460000000 1.0
C      1  0.4731800000000  0.4397630000000  0.5911590000000 1.0
C      1  0.5240530000000  0.4432840000000  0.4054560000000 1.0
C      1  0.4777600000000  0.5241250000000  0.6335190000000 1.0
C      1  0.5139260000000  0.5475160000000  0.3543780000000 1.0
C      1  0.4492990000000  0.5893210000000  0.4445000000000 1.0
C      1  0.5456560000000  0.5861770000000  0.5607640000000 1.0
C      1  0.4236470000000  0.5762800000000  0.4436520000000 1.0
C      1  0.5732230000000  0.5765110000000  0.5633780000000 1.0
C      1  0.4727620000000  0.3847920000000  0.4671020000000 1.0
C      1  0.5287090000000  0.3864480000000  0.5325580000000 1.0
C      1  0.6118580000000  0.4230200000000  0.4771280000000 1.0
C      1  0.3924880000000  0.4224800000000  0.5410990000000 1.0
C      1  0.5167930000000  0.6181200000000  0.5404780000000 1.0
C      1  0.4827580000000  0.6178290000000  0.4658440000000 1.0
C      1  0.5685440000000  0.4740950000000  0.5021210000000 1.0
C      1  0.4449690000000  0.4896480000000  0.4875790000000 1.0
C      1  0.4629910000000  0.4356440000000  0.3804680000000 1.0
C      1  0.5177990000000  0.4524290000000  0.6139190000000 1.0
C      1  0.4713780000000  0.5552630000000  0.5635210000000 1.0
C      1  0.5131570000000  0.5656020000000  0.4480560000000 1.0
C      1  0.5138990000000  0.4289890000000  0.5085830000000 1.0
C      1  0.4879890000000  0.4290080000000  0.5021400000000 1.0
C      1  0.4551700000000  0.4564310000000  0.6019230000000 1.0
C      1  0.5349080000000  0.4686490000000  0.4144790000000 1.0
C      1  0.5175680000000  0.4497770000000  0.5678970000000 1.0
C      1  0.4827790000000  0.4498750000000  0.4282620000000 1.0
C      1  0.4315340000000  0.3945460000000  0.4306600000000 1.0
C      1  0.5647620000000  0.4031310000000  0.5775670000000 1.0
C      1  0.4235370000000  0.5564450000000  0.5090780000000 1.0
C      1  0.5721850000000  0.5497130000000  0.5021990000000 1.0
C      1  0.4854750000000  0.4666500000000  0.4734330000000 1.0
C      1  0.5080280000000  0.4729860000000  0.4922670000000 1.0
END
