TITL C-3201378-2706-1766 0.00113725317202293 125000 -439.291334873036 0 0 74 (C1) n - 1
REM
REM in /home/nfs/bkarasulu/CARBON/AIRSS/Generating-Clusters/LCBOP/Higher-Symm/SD-CG/FIRE-CG
REM
REM
REM
REM
REM
REM ./C.cell (b20cbc046b6831c77cfcea5457e17084)
REM AIRSS Version 0.9.1 bugfix July 2018 build 013d7b7c2542+ Fri, 06 Jul 2018 19:26:36 +0100
REM compiler GCC version 9.2.1 20190827 (Red Hat 9.2.1-1)
REM options -cpp -mtune=generic -march=x86-64 -g -O0 -fpre-include=/usr/include/finclude/math-vector-fortran.h
REM seed 1804756077 1831269331 -1197125733 1108271990 -762710711 -69923003 1991805953 904414528 1465384451 931048579 1616085044 -1615782846 716531211 2144284087 1670623285 1560583966 -973408949 88438233 -829684048 1537799224 541604041 -1991293291 -914453722 2115006057 12234386 -108153901 -1707097542 -1638495571 1946584079 790455861 105654213 -1206869583 -870883576
REM
CELL 1.54180   50.00000   50.00000   50.00000   90.00000   90.00000   90.00000
LATT -1
SFAC C  
C      1  0.5606760000000  0.5809460000000  0.5598450000000 1.0
C      1  0.5461640000000  0.6340910000000  0.5121880000000 1.0
C      1  0.5189250000000  0.4563700000000  0.5539660000000 1.0
C      1  0.4029640000000  0.4565000000000  0.5790530000000 1.0
C      1  0.4882380000000  0.5742060000000  0.5670450000000 1.0
C      1  0.5426070000000  0.5946340000000  0.4621980000000 1.0
C      1  0.6105800000000  0.4875050000000  0.5080220000000 1.0
C      1  0.5599030000000  0.4248610000000  0.4966090000000 1.0
C      1  0.5865900000000  0.4223740000000  0.5052010000000 1.0
C      1  0.4400030000000  0.5044930000000  0.4870500000000 1.0
C      1  0.4986900000000  0.5083920000000  0.4889290000000 1.0
C      1  0.4317010000000  0.4226300000000  0.5552610000000 1.0
C      1  0.5911490000000  0.5132620000000  0.5441500000000 1.0
C      1  0.4128310000000  0.4997870000000  0.4751040000000 1.0
C      1  0.4923040000000  0.4266220000000  0.4722070000000 1.0
C      1  0.5702670000000  0.5711570000000  0.4928940000000 1.0
C      1  0.5244880000000  0.5095090000000  0.5023150000000 1.0
C      1  0.4344100000000  0.5188740000000  0.3996180000000 1.0
C      1  0.4370210000000  0.5299940000000  0.3747930000000 1.0
C      1  0.5754260000000  0.5451580000000  0.4921020000000 1.0
C      1  0.4181510000000  0.4480590000000  0.5575090000000 1.0
C      1  0.4795360000000  0.5728990000000  0.5400270000000 1.0
C      1  0.5806980000000  0.5635740000000  0.5584460000000 1.0
C      1  0.6089380000000  0.4367530000000  0.5076110000000 1.0
C      1  0.5026440000000  0.4406900000000  0.4926090000000 1.0
C      1  0.4484720000000  0.4696030000000  0.4439850000000 1.0
C      1  0.4614830000000  0.5316850000000  0.3627110000000 1.0
C      1  0.3887190000000  0.4958520000000  0.4660760000000 1.0
C      1  0.4573250000000  0.5141090000000  0.4637350000000 1.0
C      1  0.4412420000000  0.5383010000000  0.5250380000000 1.0
C      1  0.4835300000000  0.5220850000000  0.3757110000000 1.0
C      1  0.3887390000000  0.4645630000000  0.5993450000000 1.0
C      1  0.5000100000000  0.4633300000000  0.5087930000000 1.0
C      1  0.5142770000000  0.4717110000000  0.5320370000000 1.0
C      1  0.4330910000000  0.5134640000000  0.5153710000000 1.0
C      1  0.4494290000000  0.4477480000000  0.4625160000000 1.0
C      1  0.5267370000000  0.5798640000000  0.4466460000000 1.0
C      1  0.4813590000000  0.5108740000000  0.4005350000000 1.0
C      1  0.4541370000000  0.4974360000000  0.4401660000000 1.0
C      1  0.5341060000000  0.5875570000000  0.5548630000000 1.0
C      1  0.5206040000000  0.4006550000000  0.5162960000000 1.0
C      1  0.4950240000000  0.4005110000000  0.5242740000000 1.0
C      1  0.5135000000000  0.5817390000000  0.5735230000000 1.0
C      1  0.4572300000000  0.5583200000000  0.5320860000000 1.0
C      1  0.4845650000000  0.4843500000000  0.4971910000000 1.0
C      1  0.4454350000000  0.4553370000000  0.4900280000000 1.0
C      1  0.4678270000000  0.5707720000000  0.4725430000000 1.0
C      1  0.5249200000000  0.5936670000000  0.5281980000000 1.0
C      1  0.5529820000000  0.5926140000000  0.4881770000000 1.0
C      1  0.4829210000000  0.5252670000000  0.4716190000000 1.0
C      1  0.4229260000000  0.4633060000000  0.5333890000000 1.0
C      1  0.5894600000000  0.4932860000000  0.5628190000000 1.0
C      1  0.5530230000000  0.4763800000000  0.4813800000000 1.0
C      1  0.6177680000000  0.4618970000000  0.5070000000000 1.0
C      1  0.4984720000000  0.5848040000000  0.5223900000000 1.0
C      1  0.5499560000000  0.5030620000000  0.4905140000000 1.0
C      1  0.4313670000000  0.4026930000000  0.5737290000000 1.0
C      1  0.5414280000000  0.6072700000000  0.5095720000000 1.0
C      1  0.4565080000000  0.5084640000000  0.4145080000000 1.0
C      1  0.5078320000000  0.5612370000000  0.4487860000000 1.0
C      1  0.5911960000000  0.5400120000000  0.5522600000000 1.0
C      1  0.5229220000000  0.4987790000000  0.5291890000000 1.0
C      1  0.4689430000000  0.4277070000000  0.4588090000000 1.0
C      1  0.5920680000000  0.5067480000000  0.5164090000000 1.0
C      1  0.4232100000000  0.4914850000000  0.5309540000000 1.0
C      1  0.4362320000000  0.4446330000000  0.5143230000000 1.0
C      1  0.4569840000000  0.4807420000000  0.4941080000000 1.0
C      1  0.4691730000000  0.4072580000000  0.5258840000000 1.0
C      1  0.5424140000000  0.4023080000000  0.4983950000000 1.0
C      1  0.4455890000000  0.4217950000000  0.5297440000000 1.0
C      1  0.5469520000000  0.3810960000000  0.4815170000000 1.0
C      1  0.5729930000000  0.5180840000000  0.4984250000000 1.0
C      1  0.5533490000000  0.4498210000000  0.4849750000000 1.0
C      1  0.4866680000000  0.5523840000000  0.4647040000000 1.0
END
