TITL C-3201372-1405-526 -4987.89600773823 125000 -826.451054445514 0 0 142 (C1) n - 1
REM
REM in /home/nfs/bkarasulu/CARBON/AIRSS/Generating-Clusters/LCBOP/Higher-Symm/SD-CG/FIRE-CG
REM
REM
REM
REM
REM
REM ./C.cell (b20cbc046b6831c77cfcea5457e17084)
REM AIRSS Version 0.9.1 bugfix July 2018 build 013d7b7c2542+ Fri, 06 Jul 2018 19:26:36 +0100
REM compiler GCC version 9.2.1 20190827 (Red Hat 9.2.1-1)
REM options -cpp -mtune=generic -march=x86-64 -g -O0 -fpre-include=/usr/include/finclude/math-vector-fortran.h
REM seed 1053843921 -1179899349 630286155 -421066018 -621018262 -762782497 1214823135 -1471594010 -491867785 1096989299 -570142934 -911386056 -452397122 983167582 898535449 243208734 482233181 1975032944 111773198 790972754 476341702 -1608740034 -912818412 -1775830365 301272026 1541014962 465527250 1570771764 716162109 1985830430 -844662704 -87519634 846624468
REM
CELL 1.54180   50.00000   50.00000   50.00000   90.00000   90.00000   90.00000
LATT -1
SFAC C  
C      1  0.5749940000000  0.5615190000000  0.4710800000000 1.0
C      1  0.5675820000000  0.4739460000000  0.5841820000000 1.0
C      1  0.4755630000000  0.5794280000000  0.5631670000000 1.0
C      1  0.5770590000000  0.4348130000000  0.5250790000000 1.0
C      1  0.4256020000000  0.5612590000000  0.5279320000000 1.0
C      1  0.4176190000000  0.4280710000000  0.4762100000000 1.0
C      1  0.5662990000000  0.5220570000000  0.4260350000000 1.0
C      1  0.4279410000000  0.4792340000000  0.4155430000000 1.0
C      1  0.4332860000000  0.5231470000000  0.5731610000000 1.0
C      1  0.4681620000000  0.4247880000000  0.4335840000000 1.0
C      1  0.5247100000000  0.5805840000000  0.4330840000000 1.0
C      1  0.5299210000000  0.4236580000000  0.5646520000000 1.0
C      1  0.5706020000000  0.4105300000000  0.5095850000000 1.0
C      1  0.4100920000000  0.5057550000000  0.5674270000000 1.0
C      1  0.5085780000000  0.5694750000000  0.4095050000000 1.0
C      1  0.5674490000000  0.5843220000000  0.4884490000000 1.0
C      1  0.4283730000000  0.4045330000000  0.4926310000000 1.0
C      1  0.4348200000000  0.5853540000000  0.5121630000000 1.0
C      1  0.4054540000000  0.4921200000000  0.4311350000000 1.0
C      1  0.5903790000000  0.5067480000000  0.4340970000000 1.0
C      1  0.5909800000000  0.4881680000000  0.5728990000000 1.0
C      1  0.5120830000000  0.4339000000000  0.5871790000000 1.0
C      1  0.4909420000000  0.5691430000000  0.5872600000000 1.0
C      1  0.4877460000000  0.4362720000000  0.4138820000000 1.0
C      1  0.5335490000000  0.4502790000000  0.5492140000000 1.0
C      1  0.4528630000000  0.5455600000000  0.5298420000000 1.0
C      1  0.5537160000000  0.5208400000000  0.4528600000000 1.0
C      1  0.5260160000000  0.5555550000000  0.4479440000000 1.0
C      1  0.4508710000000  0.4452630000000  0.4452190000000 1.0
C      1  0.4751830000000  0.5546550000000  0.5474580000000 1.0
C      1  0.4441950000000  0.4397120000000  0.4716280000000 1.0
C      1  0.5482490000000  0.5471230000000  0.4643440000000 1.0
C      1  0.5497710000000  0.4460960000000  0.5248470000000 1.0
C      1  0.5510980000000  0.4707070000000  0.5620620000000 1.0
C      1  0.4449450000000  0.5218270000000  0.5457610000000 1.0
C      1  0.4429770000000  0.4704970000000  0.4374170000000 1.0
C      1  0.3938570000000  0.4717590000000  0.4506070000000 1.0
C      1  0.4761870000000  0.4568460000000  0.3970440000000 1.0
C      1  0.4483940000000  0.3925860000000  0.4728630000000 1.0
C      1  0.3951330000000  0.5214160000000  0.5472320000000 1.0
C      1  0.6036800000000  0.4720160000000  0.5522920000000 1.0
C      1  0.6015420000000  0.5208440000000  0.4583960000000 1.0
C      1  0.4720990000000  0.5505980000000  0.6005840000000 1.0
C      1  0.5237150000000  0.4539350000000  0.6044410000000 1.0
C      1  0.5268450000000  0.5490650000000  0.3975730000000 1.0
C      1  0.4532850000000  0.6028090000000  0.5259430000000 1.0
C      1  0.5517010000000  0.3947990000000  0.5255960000000 1.0
C      1  0.5497500000000  0.6025410000000  0.4734590000000 1.0
C      1  0.5257080000000  0.4828040000000  0.5045550000000 1.0
C      1  0.4842180000000  0.5011560000000  0.5230750000000 1.0
C      1  0.4972070000000  0.5238410000000  0.4743250000000 1.0
C      1  0.5153580000000  0.5392090000000  0.5001640000000 1.0
C      1  0.4780470000000  0.4583870000000  0.4995770000000 1.0
C      1  0.4729240000000  0.5152600000000  0.4920700000000 1.0
C      1  0.4604990000000  0.4956060000000  0.4735050000000 1.0
C      1  0.5143020000000  0.4925230000000  0.4752300000000 1.0
C      1  0.5359860000000  0.5037440000000  0.5287390000000 1.0
C      1  0.4978070000000  0.4721810000000  0.5185520000000 1.0
C      1  0.5093570000000  0.5222930000000  0.5318510000000 1.0
C      1  0.4878510000000  0.4702300000000  0.4733160000000 1.0
C      1  0.4640070000000  0.4087000000000  0.5386000000000 1.0
C      1  0.4099010000000  0.5383360000000  0.4647820000000 1.0
C      1  0.5352300000000  0.4614280000000  0.4118930000000 1.0
C      1  0.4587330000000  0.5887110000000  0.4622240000000 1.0
C      1  0.5401010000000  0.4096420000000  0.4629970000000 1.0
C      1  0.5434370000000  0.5889580000000  0.5360090000000 1.0
C      1  0.4121760000000  0.4580960000000  0.5392310000000 1.0
C      1  0.5978630000000  0.5386730000000  0.5489270000000 1.0
C      1  0.5878870000000  0.4625710000000  0.4635050000000 1.0
C      1  0.5405190000000  0.5403620000000  0.5921560000000 1.0
C      1  0.4659160000000  0.4628120000000  0.5864010000000 1.0
C      1  0.4580590000000  0.5390830000000  0.4094380000000 1.0
C      1  0.5169250000000  0.4388220000000  0.4190360000000 1.0
C      1  0.4396530000000  0.4133330000000  0.5200860000000 1.0
C      1  0.4132180000000  0.5198520000000  0.4408040000000 1.0
C      1  0.5209160000000  0.5620720000000  0.5828040000000 1.0
C      1  0.4843250000000  0.4399920000000  0.5801320000000 1.0
C      1  0.4793910000000  0.5611520000000  0.4163710000000 1.0
C      1  0.4399440000000  0.5799920000000  0.4838470000000 1.0
C      1  0.5616520000000  0.4185470000000  0.4822630000000 1.0
C      1  0.5671240000000  0.5800360000000  0.5186930000000 1.0
C      1  0.4197350000000  0.4785230000000  0.5599810000000 1.0
C      1  0.5871370000000  0.5172750000000  0.5674930000000 1.0
C      1  0.5810180000000  0.4791260000000  0.4397360000000 1.0
C      1  0.4586970000000  0.5277720000000  0.5890310000000 1.0
C      1  0.5252590000000  0.5985260000000  0.4577960000000 1.0
C      1  0.5926550000000  0.4607020000000  0.5283000000000 1.0
C      1  0.4658230000000  0.4821460000000  0.4026880000000 1.0
C      1  0.5400870000000  0.5262180000000  0.4097060000000 1.0
C      1  0.5322380000000  0.4800890000000  0.5999970000000 1.0
C      1  0.5281820000000  0.4055030000000  0.5391580000000 1.0
C      1  0.4780660000000  0.5977880000000  0.5397240000000 1.0
C      1  0.4700510000000  0.4051090000000  0.4570020000000 1.0
C      1  0.5897820000000  0.5371170000000  0.4799140000000 1.0
C      1  0.4022370000000  0.4549860000000  0.4738490000000 1.0
C      1  0.4073280000000  0.5358810000000  0.5249710000000 1.0
C      1  0.4462410000000  0.4552870000000  0.4977000000000 1.0
C      1  0.4552650000000  0.4969880000000  0.4452100000000 1.0
C      1  0.5000680000000  0.4427390000000  0.4617850000000 1.0
C      1  0.4501760000000  0.5340460000000  0.5009060000000 1.0
C      1  0.5519630000000  0.4650650000000  0.5016420000000 1.0
C      1  0.5428780000000  0.5382320000000  0.4926730000000 1.0
C      1  0.4645980000000  0.5000240000000  0.5488820000000 1.0
C      1  0.5425190000000  0.4988830000000  0.5585480000000 1.0
C      1  0.5354250000000  0.4979660000000  0.4492140000000 1.0
C      1  0.5039150000000  0.5559220000000  0.5388700000000 1.0
C      1  0.5045260000000  0.4483210000000  0.5365770000000 1.0
C      1  0.4987530000000  0.5569530000000  0.4603350000000 1.0
C      1  0.5691850000000  0.5267550000000  0.4993800000000 1.0
C      1  0.5217710000000  0.4983130000000  0.5802150000000 1.0
C      1  0.4991110000000  0.5832810000000  0.5232200000000 1.0
C      1  0.5770990000000  0.4805200000000  0.5123080000000 1.0
C      1  0.4231280000000  0.5175510000000  0.5063900000000 1.0
C      1  0.4200730000000  0.4719540000000  0.4912320000000 1.0
C      1  0.5207370000000  0.5103200000000  0.4260280000000 1.0
C      1  0.4772960000000  0.4965500000000  0.4252230000000 1.0
C      1  0.4777970000000  0.5116030000000  0.5737560000000 1.0
C      1  0.4893040000000  0.4184000000000  0.4737470000000 1.0
C      1  0.5049820000000  0.5842180000000  0.4750270000000 1.0
C      1  0.5099090000000  0.4208570000000  0.5199550000000 1.0
C      1  0.4511950000000  0.4754460000000  0.5618070000000 1.0
C      1  0.4731930000000  0.5653460000000  0.4469470000000 1.0
C      1  0.5635530000000  0.4498840000000  0.4775780000000 1.0
C      1  0.4434720000000  0.5247850000000  0.4346230000000 1.0
C      1  0.5499160000000  0.4746030000000  0.4357900000000 1.0
C      1  0.5568810000000  0.5250470000000  0.5692550000000 1.0
C      1  0.4782670000000  0.4353710000000  0.5505990000000 1.0
C      1  0.5301810000000  0.5651700000000  0.5522810000000 1.0
C      1  0.5251720000000  0.4327080000000  0.4483940000000 1.0
C      1  0.5779790000000  0.5565200000000  0.5357260000000 1.0
C      1  0.4358720000000  0.4441860000000  0.5245620000000 1.0
C      1  0.4369520000000  0.5503440000000  0.4775020000000 1.0
C      1  0.5074770000000  0.5753480000000  0.4997120000000 1.0
C      1  0.5663750000000  0.5062150000000  0.5173920000000 1.0
C      1  0.5034760000000  0.5149610000000  0.5685710000000 1.0
C      1  0.4913580000000  0.4235080000000  0.5003090000000 1.0
C      1  0.4265960000000  0.4970530000000  0.4891810000000 1.0
C      1  0.4959250000000  0.5133640000000  0.4372120000000 1.0
C      1  0.4572240000000  0.4539990000000  0.5424930000000 1.0
C      1  0.5441710000000  0.4537470000000  0.4557210000000 1.0
C      1  0.4543310000000  0.5438700000000  0.4548020000000 1.0
C      1  0.5534110000000  0.5462630000000  0.5484000000000 1.0
END
