TITL C-3201374-830-670 -80.1302275566297 125000 -1094.11584454041 0 0 176 (C1) n - 1
REM
REM in /home/nfs/bkarasulu/CARBON/AIRSS/Generating-Clusters/LCBOP/Higher-Symm/SD-CG/FIRE-CG
REM
REM
REM
REM
REM
REM ./C.cell (b20cbc046b6831c77cfcea5457e17084)
REM AIRSS Version 0.9.1 bugfix July 2018 build 013d7b7c2542+ Fri, 06 Jul 2018 19:26:36 +0100
REM compiler GCC version 9.2.1 20190827 (Red Hat 9.2.1-1)
REM options -cpp -mtune=generic -march=x86-64 -g -O0 -fpre-include=/usr/include/finclude/math-vector-fortran.h
REM seed -142665221 -1259032115 -1208924904 237942109 508626521 -1674970197 -1324044021 1047542743 -350512748 -756933755 317444411 -1002459036 190643799 2064664795 883179854 1328791757 -431955009 -2010414092 -481837508 1669230382 1899874193 -900814392 -1350869848 1575229197 1342504742 1816069406 -991764328 -1470780986 202787542 -933996233 -1035834240 288307165 -63866287
REM
CELL 1.54180   50.00000   50.00000   50.00000   90.00000   90.00000   90.00000
LATT -1
SFAC C  
C      1  0.4960620000000  0.4733390000000  0.6011840000000 1.0
C      1  0.5855250000000  0.5272230000000  0.5536070000000 1.0
C      1  0.5900190000000  0.4733740000000  0.4524480000000 1.0
C      1  0.5036340000000  0.5270410000000  0.3973490000000 1.0
C      1  0.4144150000000  0.4742480000000  0.4457280000000 1.0
C      1  0.4101830000000  0.5274860000000  0.5472660000000 1.0
C      1  0.4809920000000  0.4567040000000  0.5327160000000 1.0
C      1  0.5194910000000  0.5465530000000  0.5361100000000 1.0
C      1  0.5381080000000  0.4564270000000  0.4995210000000 1.0
C      1  0.5135380000000  0.5304860000000  0.4535700000000 1.0
C      1  0.4815420000000  0.4571570000000  0.4665740000000 1.0
C      1  0.4648700000000  0.5400170000000  0.5012990000000 1.0
C      1  0.4691630000000  0.5713720000000  0.5800260000000 1.0
C      1  0.5540920000000  0.4296910000000  0.5660920000000 1.0
C      1  0.5854320000000  0.5707010000000  0.4865240000000 1.0
C      1  0.5309940000000  0.4286320000000  0.4189840000000 1.0
C      1  0.4485040000000  0.5692590000000  0.4361810000000 1.0
C      1  0.4156170000000  0.4299270000000  0.5133500000000 1.0
C      1  0.4194110000000  0.4383670000000  0.5439770000000 1.0
C      1  0.4977310000000  0.5630610000000  0.5922250000000 1.0
C      1  0.5783820000000  0.4384150000000  0.5472750000000 1.0
C      1  0.5807700000000  0.5621070000000  0.4560510000000 1.0
C      1  0.5023680000000  0.4373970000000  0.4068830000000 1.0
C      1  0.4227980000000  0.5620900000000  0.4527040000000 1.0
C      1  0.4246470000000  0.4816820000000  0.5698580000000 1.0
C      1  0.5228470000000  0.5193060000000  0.6010220000000 1.0
C      1  0.5980930000000  0.4818260000000  0.5295860000000 1.0
C      1  0.5795780000000  0.5187710000000  0.4285270000000 1.0
C      1  0.4768500000000  0.4810700000000  0.3981100000000 1.0
C      1  0.4012740000000  0.5199040000000  0.4697250000000 1.0
C      1  0.5731280000000  0.4942800000000  0.4103480000000 1.0
C      1  0.4590530000000  0.5060150000000  0.3962890000000 1.0
C      1  0.3886260000000  0.4957450000000  0.4829130000000 1.0
C      1  0.4296280000000  0.5055910000000  0.5877130000000 1.0
C      1  0.5408940000000  0.4952170000000  0.6050250000000 1.0
C      1  0.6118480000000  0.5055090000000  0.5168230000000 1.0
C      1  0.4130420000000  0.5241170000000  0.4201950000000 1.0
C      1  0.3876090000000  0.4774450000000  0.5350540000000 1.0
C      1  0.4740610000000  0.5237130000000  0.6148970000000 1.0
C      1  0.5862490000000  0.4775770000000  0.5790120000000 1.0
C      1  0.6140110000000  0.5240850000000  0.4652720000000 1.0
C      1  0.5273040000000  0.4759260000000  0.3829300000000 1.0
C      1  0.4285940000000  0.5202650000000  0.4786560000000 1.0
C      1  0.4457770000000  0.4814330000000  0.5503160000000 1.0
C      1  0.5169480000000  0.5190230000000  0.5728170000000 1.0
C      1  0.5706670000000  0.4820090000000  0.5208230000000 1.0
C      1  0.5569280000000  0.5186820000000  0.4462780000000 1.0
C      1  0.4834340000000  0.4804740000000  0.4264720000000 1.0
C      1  0.5529400000000  0.4892340000000  0.5418070000000 1.0
C      1  0.5629910000000  0.5127810000000  0.4733030000000 1.0
C      1  0.5115590000000  0.4847320000000  0.4284510000000 1.0
C      1  0.4461180000000  0.5132830000000  0.4576090000000 1.0
C      1  0.4360170000000  0.4883610000000  0.5245760000000 1.0
C      1  0.4897250000000  0.5123530000000  0.5678810000000 1.0
C      1  0.5489300000000  0.5731480000000  0.5676380000000 1.0
C      1  0.5830000000000  0.4291010000000  0.4908740000000 1.0
C      1  0.5325720000000  0.5706340000000  0.4261850000000 1.0
C      1  0.4510710000000  0.4296890000000  0.4322890000000 1.0
C      1  0.4175670000000  0.5710870000000  0.5087640000000 1.0
C      1  0.4664350000000  0.4295030000000  0.5760760000000 1.0
C      1  0.5788870000000  0.4689270000000  0.4242820000000 1.0
C      1  0.4745230000000  0.5308960000000  0.3997900000000 1.0
C      1  0.3961750000000  0.4704980000000  0.4700360000000 1.0
C      1  0.4221620000000  0.5309760000000  0.5750580000000 1.0
C      1  0.5262060000000  0.4698310000000  0.6048940000000 1.0
C      1  0.6045390000000  0.5306820000000  0.5295740000000 1.0
C      1  0.4649800000000  0.5882350000000  0.4540130000000 1.0
C      1  0.4412730000000  0.4124340000000  0.5074120000000 1.0
C      1  0.4767310000000  0.5887830000000  0.5548410000000 1.0
C      1  0.5362410000000  0.4119740000000  0.5470240000000 1.0
C      1  0.5577200000000  0.5893700000000  0.4923550000000 1.0
C      1  0.5230810000000  0.4114210000000  0.4444710000000 1.0
C      1  0.3920280000000  0.5624060000000  0.5176100000000 1.0
C      1  0.4612990000000  0.4384800000000  0.6025670000000 1.0
C      1  0.5693070000000  0.5626880000000  0.5845250000000 1.0
C      1  0.6083790000000  0.4387440000000  0.4824860000000 1.0
C      1  0.5355290000000  0.5645580000000  0.3987340000000 1.0
C      1  0.4307930000000  0.4392810000000  0.4147940000000 1.0
C      1  0.5323550000000  0.5223420000000  0.4360490000000 1.0
C      1  0.4672750000000  0.4728500000000  0.4476670000000 1.0
C      1  0.4385000000000  0.5287290000000  0.5031140000000 1.0
C      1  0.4715290000000  0.4721590000000  0.5545250000000 1.0
C      1  0.5334980000000  0.5295950000000  0.5533010000000 1.0
C      1  0.5613330000000  0.4724160000000  0.4965420000000 1.0
C      1  0.4360010000000  0.4558700000000  0.4782730000000 1.0
C      1  0.4495890000000  0.5450250000000  0.5447520000000 1.0
C      1  0.5139140000000  0.4560440000000  0.5658370000000 1.0
C      1  0.5667170000000  0.5505670000000  0.5219030000000 1.0
C      1  0.5512990000000  0.4544200000000  0.4542530000000 1.0
C      1  0.4914540000000  0.5440080000000  0.4420380000000 1.0
C      1  0.5041890000000  0.5694050000000  0.4353000000000 1.0
C      1  0.4420110000000  0.4311030000000  0.4608510000000 1.0
C      1  0.4376640000000  0.5693930000000  0.5306400000000 1.0
C      1  0.4957560000000  0.4310330000000  0.5697050000000 1.0
C      1  0.5575160000000  0.5727080000000  0.5390260000000 1.0
C      1  0.5631180000000  0.4299990000000  0.4684930000000 1.0
C      1  0.5683490000000  0.4909700000000  0.5953830000000 1.0
C      1  0.6182610000000  0.5100680000000  0.4886570000000 1.0
C      1  0.5512530000000  0.4889390000000  0.3902620000000 1.0
C      1  0.4311310000000  0.5105780000000  0.4041360000000 1.0
C      1  0.3826790000000  0.4910660000000  0.5113850000000 1.0
C      1  0.4512110000000  0.5100630000000  0.6071730000000 1.0
C      1  0.4830740000000  0.3717060000000  0.4781150000000 1.0
C      1  0.4723220000000  0.6293410000000  0.5040930000000 1.0
C      1  0.4895140000000  0.3715760000000  0.5254390000000 1.0
C      1  0.5161040000000  0.6307660000000  0.5227770000000 1.0
C      1  0.5272450000000  0.3712310000000  0.4962200000000 1.0
C      1  0.5105530000000  0.6302480000000  0.4755280000000 1.0
C      1  0.4597420000000  0.5538830000000  0.4130540000000 1.0
C      1  0.3971320000000  0.4439790000000  0.4927830000000 1.0
C      1  0.4421880000000  0.5573300000000  0.5854690000000 1.0
C      1  0.5454860000000  0.4435120000000  0.5924600000000 1.0
C      1  0.5931460000000  0.5527680000000  0.5122470000000 1.0
C      1  0.5583990000000  0.4426480000000  0.4133360000000 1.0
C      1  0.4845810000000  0.4857420000000  0.5759820000000 1.0
C      1  0.5579870000000  0.5157560000000  0.5502730000000 1.0
C      1  0.5729200000000  0.4858980000000  0.4742990000000 1.0
C      1  0.5186660000000  0.5093270000000  0.4153860000000 1.0
C      1  0.4420470000000  0.4866250000000  0.4487760000000 1.0
C      1  0.4261990000000  0.5149500000000  0.5248850000000 1.0
C      1  0.4940290000000  0.5909060000000  0.4507480000000 1.0
C      1  0.4589850000000  0.4160620000000  0.4811090000000 1.0
C      1  0.4634870000000  0.5845490000000  0.5260210000000 1.0
C      1  0.5047520000000  0.4157320000000  0.5449920000000 1.0
C      1  0.5399120000000  0.5863550000000  0.5184680000000 1.0
C      1  0.5369890000000  0.4150940000000  0.4730570000000 1.0
C      1  0.4811910000000  0.5276250000000  0.4826860000000 1.0
C      1  0.4660570000000  0.4563820000000  0.5099940000000 1.0
C      1  0.4923350000000  0.5464470000000  0.5368260000000 1.0
C      1  0.5262420000000  0.4558630000000  0.5239490000000 1.0
C      1  0.5290530000000  0.5398680000000  0.4941960000000 1.0
C      1  0.5086160000000  0.4554480000000  0.4641410000000 1.0
C      1  0.5263060000000  0.4680370000000  0.4463840000000 1.0
C      1  0.4696070000000  0.5292490000000  0.4557030000000 1.0
C      1  0.4425490000000  0.4701880000000  0.5032890000000 1.0
C      1  0.4745830000000  0.5313610000000  0.5524300000000 1.0
C      1  0.5318930000000  0.4704020000000  0.5473160000000 1.0
C      1  0.5544440000000  0.5295490000000  0.4955440000000 1.0
C      1  0.4998560000000  0.5373970000000  0.6094640000000 1.0
C      1  0.5941980000000  0.4639570000000  0.5538940000000 1.0
C      1  0.5968150000000  0.5374160000000  0.4451940000000 1.0
C      1  0.5003690000000  0.4630300000000  0.3888440000000 1.0
C      1  0.4053910000000  0.5376640000000  0.4454160000000 1.0
C      1  0.4053800000000  0.4637940000000  0.5545750000000 1.0
C      1  0.5534620000000  0.5751120000000  0.4463520000000 1.0
C      1  0.4797490000000  0.4244510000000  0.4247600000000 1.0
C      1  0.4261340000000  0.5756960000000  0.4806240000000 1.0
C      1  0.4456950000000  0.4248160000000  0.5548380000000 1.0
C      1  0.5201270000000  0.5774740000000  0.5752430000000 1.0
C      1  0.5747900000000  0.4245790000000  0.5193260000000 1.0
C      1  0.4772510000000  0.4567620000000  0.6148950000000 1.0
C      1  0.5875900000000  0.5441220000000  0.5766140000000 1.0
C      1  0.6112140000000  0.4571950000000  0.4627160000000 1.0
C      1  0.5198440000000  0.5470040000000  0.3852580000000 1.0
C      1  0.4122460000000  0.4576220000000  0.4225680000000 1.0
C      1  0.3891320000000  0.5442760000000  0.5377150000000 1.0
C      1  0.5216980000000  0.6053600000000  0.5332780000000 1.0
C      1  0.5400520000000  0.3962270000000  0.4965410000000 1.0
C      1  0.5159180000000  0.6051920000000  0.4639340000000 1.0
C      1  0.4773280000000  0.3967450000000  0.4667510000000 1.0
C      1  0.4605320000000  0.6039230000000  0.5034250000000 1.0
C      1  0.4829220000000  0.3966780000000  0.5361750000000 1.0
C      1  0.5221940000000  0.4398550000000  0.4827560000000 1.0
C      1  0.5092740000000  0.5274370000000  0.4806660000000 1.0
C      1  0.4750770000000  0.4406660000000  0.4889190000000 1.0
C      1  0.4787290000000  0.5600530000000  0.5161710000000 1.0
C      1  0.5034990000000  0.4401260000000  0.5269770000000 1.0
C      1  0.5248240000000  0.5609320000000  0.5117660000000 1.0
C      1  0.4934250000000  0.4071610000000  0.4449130000000 1.0
C      1  0.4505340000000  0.5926960000000  0.4789470000000 1.0
C      1  0.4561970000000  0.4075770000000  0.5328610000000 1.0
C      1  0.5059960000000  0.5944970000000  0.5550990000000 1.0
C      1  0.5506580000000  0.4071790000000  0.5212920000000 1.0
C      1  0.5425430000000  0.5929150000000  0.4675610000000 1.0
C      1  0.4994760000000  0.6359970000000  0.5007190000000 1.0
C      1  0.4998750000000  0.3658430000000  0.4999140000000 1.0
END
