TITL C-3201374-830-654 30420.0699755003 125000 -551.857814471277 0 0 96 (C1) n - 1
REM
REM in /home/nfs/bkarasulu/CARBON/AIRSS/Generating-Clusters/LCBOP/Higher-Symm/SD-CG/FIRE-CG
REM
REM
REM
REM
REM
REM ./C.cell (b20cbc046b6831c77cfcea5457e17084)
REM AIRSS Version 0.9.1 bugfix July 2018 build 013d7b7c2542+ Fri, 06 Jul 2018 19:26:36 +0100
REM compiler GCC version 9.2.1 20190827 (Red Hat 9.2.1-1)
REM options -cpp -mtune=generic -march=x86-64 -g -O0 -fpre-include=/usr/include/finclude/math-vector-fortran.h
REM seed -1200821090 -117042604 1185495734 1011167182 -338989973 -1989690215 -1961034255 785700460 -158019562 214417937 -400941568 -1982747286 1931212860 -377990437 2143459629 1234419655 1677370236 647176801 -462632850 811733892 -1266241249 550362275 703101143 -1755272382 1293723580 1408743637 282572056 -118558775 -1801683238 -74108143 1100572022 1135504007 -1659019210
REM
CELL 1.54180   50.00000   50.00000   50.00000   90.00000   90.00000   90.00000
LATT -1
SFAC C  
C      1  0.5209040000000  0.5131310000000  0.5281620000000 1.0
C      1  0.4940040000000  0.5054710000000  0.5348860000000 1.0
C      1  0.4695180000000  0.5173620000000  0.5221760000000 1.0
C      1  0.4627440000000  0.5090770000000  0.4936540000000 1.0
C      1  0.4828900000000  0.5175260000000  0.4738800000000 1.0
C      1  0.5389460000000  0.5071440000000  0.4478890000000 1.0
C      1  0.5334650000000  0.5128640000000  0.4766990000000 1.0
C      1  0.5342640000000  0.4367020000000  0.5226460000000 1.0
C      1  0.5038890000000  0.4371350000000  0.5413790000000 1.0
C      1  0.4703990000000  0.4375270000000  0.5293710000000 1.0
C      1  0.4588390000000  0.4373310000000  0.4958080000000 1.0
C      1  0.4779030000000  0.4367710000000  0.4657060000000 1.0
C      1  0.5135780000000  0.4364280000000  0.4618790000000 1.0
C      1  0.5387970000000  0.4372950000000  0.4871990000000 1.0
C      1  0.5399760000000  0.4996350000000  0.5436550000000 1.0
C      1  0.4883600000000  0.4935680000000  0.5598310000000 1.0
C      1  0.4449350000000  0.5064660000000  0.5356980000000 1.0
C      1  0.4406070000000  0.4968950000000  0.4816580000000 1.0
C      1  0.4790620000000  0.5057020000000  0.4468380000000 1.0
C      1  0.5551970000000  0.4975840000000  0.4288820000000 1.0
C      1  0.5555260000000  0.5005860000000  0.4928130000000 1.0
C      1  0.4379140000000  0.4774480000000  0.4162980000000 1.0
C      1  0.5217320000000  0.4769570000000  0.3989500000000 1.0
C      1  0.6000900000000  0.4817920000000  0.4660050000000 1.0
C      1  0.5919150000000  0.4766960000000  0.5484580000000 1.0
C      1  0.5177510000000  0.4774400000000  0.6034150000000 1.0
C      1  0.4282480000000  0.4776080000000  0.5794120000000 1.0
C      1  0.3948710000000  0.4788650000000  0.4984230000000 1.0
C      1  0.4591890000000  0.5578570000000  0.5492540000000 1.0
C      1  0.4363520000000  0.5614330000000  0.5001630000000 1.0
C      1  0.4609420000000  0.5573280000000  0.4521310000000 1.0
C      1  0.5142250000000  0.5594640000000  0.4405500000000 1.0
C      1  0.5554130000000  0.5556830000000  0.4741290000000 1.0
C      1  0.5533130000000  0.5530550000000  0.5262450000000 1.0
C      1  0.5119490000000  0.5591950000000  0.5600420000000 1.0
C      1  0.4713620000000  0.4953670000000  0.5804970000000 1.0
C      1  0.4191050000000  0.5002970000000  0.5324960000000 1.0
C      1  0.4274060000000  0.4957260000000  0.4583510000000 1.0
C      1  0.4874490000000  0.4982460000000  0.4227880000000 1.0
C      1  0.5819530000000  0.4985040000000  0.4262310000000 1.0
C      1  0.5762130000000  0.4977880000000  0.5093490000000 1.0
C      1  0.5446740000000  0.4959850000000  0.5697940000000 1.0
C      1  0.4203370000000  0.5510710000000  0.5229990000000 1.0
C      1  0.4334320000000  0.5474400000000  0.4536070000000 1.0
C      1  0.4950860000000  0.5492050000000  0.4197300000000 1.0
C      1  0.5615000000000  0.5476750000000  0.4469140000000 1.0
C      1  0.5785910000000  0.5465470000000  0.5144680000000 1.0
C      1  0.5374250000000  0.5483520000000  0.5706430000000 1.0
C      1  0.4668990000000  0.5472130000000  0.5752040000000 1.0
C      1  0.4084010000000  0.4559110000000  0.4938720000000 1.0
C      1  0.4501030000000  0.4545590000000  0.4236160000000 1.0
C      1  0.5249640000000  0.4540240000000  0.4127660000000 1.0
C      1  0.5862290000000  0.4596780000000  0.4732110000000 1.0
C      1  0.5784520000000  0.4533840000000  0.5474020000000 1.0
C      1  0.5109710000000  0.4540740000000  0.5916810000000 1.0
C      1  0.4342910000000  0.4552080000000  0.5654300000000 1.0
C      1  0.5093710000000  0.5015020000000  0.4053190000000 1.0
C      1  0.5967360000000  0.5048500000000  0.4496420000000 1.0
C      1  0.5889170000000  0.5010430000000  0.5345590000000 1.0
C      1  0.5289270000000  0.5011320000000  0.5928240000000 1.0
C      1  0.4436170000000  0.5011200000000  0.5833670000000 1.0
C      1  0.4009490000000  0.5034870000000  0.5110110000000 1.0
C      1  0.4312180000000  0.5008110000000  0.4306270000000 1.0
C      1  0.4314340000000  0.4421180000000  0.4930150000000 1.0
C      1  0.4635670000000  0.4408640000000  0.4422590000000 1.0
C      1  0.5222060000000  0.4406010000000  0.4357770000000 1.0
C      1  0.5644640000000  0.4448750000000  0.4788240000000 1.0
C      1  0.5575600000000  0.4399080000000  0.5374700000000 1.0
C      1  0.5068750000000  0.4405480000000  0.5688860000000 1.0
C      1  0.4505740000000  0.4421310000000  0.5485500000000 1.0
C      1  0.4757830000000  0.5489600000000  0.5255880000000 1.0
C      1  0.4650300000000  0.5591720000000  0.4995240000000 1.0
C      1  0.4797410000000  0.5491120000000  0.4743810000000 1.0
C      1  0.5080350000000  0.5569730000000  0.4684300000000 1.0
C      1  0.5296430000000  0.5434870000000  0.4850570000000 1.0
C      1  0.5264820000000  0.5425050000000  0.5161010000000 1.0
C      1  0.5046690000000  0.5568000000000  0.5320060000000 1.0
C      1  0.5927810000000  0.5311860000000  0.4580960000000 1.0
C      1  0.5890020000000  0.5271980000000  0.5441070000000 1.0
C      1  0.5203890000000  0.5275950000000  0.5947500000000 1.0
C      1  0.4370850000000  0.5281100000000  0.5791700000000 1.0
C      1  0.4006610000000  0.5296020000000  0.5012080000000 1.0
C      1  0.4364890000000  0.5274820000000  0.4243730000000 1.0
C      1  0.5187450000000  0.5278150000000  0.4048650000000 1.0
C      1  0.4319210000000  0.5488600000000  0.5487540000000 1.0
C      1  0.4208090000000  0.5476780000000  0.4786760000000 1.0
C      1  0.4675500000000  0.5473520000000  0.4259310000000 1.0
C      1  0.5384360000000  0.5457510000000  0.4302460000000 1.0
C      1  0.5804150000000  0.5470680000000  0.4867730000000 1.0
C      1  0.5593630000000  0.5450580000000  0.5536060000000 1.0
C      1  0.4943310000000  0.5461110000000  0.5806110000000 1.0
C      1  0.5037240000000  0.4762720000000  0.4939910000000 1.0
C      1  0.5069100000000  0.5016330000000  0.4830820000000 1.0
C      1  0.4995350000000  0.4227720000000  0.5006420000000 1.0
C      1  0.4998040000000  0.4509270000000  0.5004100000000 1.0
C      1  0.4994630000000  0.3965520000000  0.5007740000000 1.0
END
