TITL C-3201379-3821-1072 3289.74059349398 125000 -1132.70266667222 0 0 192 (C1) n - 1
REM
REM in /home/nfs/bkarasulu/CARBON/AIRSS/Generating-Clusters/LCBOP/Higher-Symm/SD-CG/FIRE-CG
REM
REM
REM
REM
REM
REM ./C.cell (b20cbc046b6831c77cfcea5457e17084)
REM AIRSS Version 0.9.1 bugfix July 2018 build 013d7b7c2542+ Fri, 06 Jul 2018 19:26:36 +0100
REM compiler GCC version 9.2.1 20190827 (Red Hat 9.2.1-1)
REM options -cpp -mtune=generic -march=x86-64 -g -O0 -fpre-include=/usr/include/finclude/math-vector-fortran.h
REM seed 249065990 851309207 -988809749 836709026 1935483856 1334615123 -1853894531 -1169062351 1557693549 377096128 -2082126098 866403274 -1873423575 172717635 1819231777 1164010775 -1875927174 -2108045181 -527362160 1870674644 1795422417 2124784720 -1648213556 -1187424863 980956440 1425523459 170482248 23668494 -632165675 -1676171327 -698860297 1385352089 823673697
REM
CELL 1.54180   50.00000   50.00000   50.00000   90.00000   90.00000   90.00000
LATT -1
SFAC C  
C      1  0.5616690000000  0.4290140000000  0.5573520000000 1.0
C      1  0.4520760000000  0.4200350000000  0.5596150000000 1.0
C      1  0.4086840000000  0.5199780000000  0.5559520000000 1.0
C      1  0.4915650000000  0.5898630000000  0.5562970000000 1.0
C      1  0.5856440000000  0.5349740000000  0.5569630000000 1.0
C      1  0.5581300000000  0.4312610000000  0.4442530000000 1.0
C      1  0.4537070000000  0.4266400000000  0.4465510000000 1.0
C      1  0.4091590000000  0.5218680000000  0.4442120000000 1.0
C      1  0.4922740000000  0.5902830000000  0.4443700000000 1.0
C      1  0.5849770000000  0.5345820000000  0.4444000000000 1.0
C      1  0.4566130000000  0.5546580000000  0.4857810000000 1.0
C      1  0.5419060000000  0.5594660000000  0.4868140000000 1.0
C      1  0.5695230000000  0.4798930000000  0.4873480000000 1.0
C      1  0.5042380000000  0.4271540000000  0.4889020000000 1.0
C      1  0.4337110000000  0.4745190000000  0.4863190000000 1.0
C      1  0.4568720000000  0.5543270000000  0.5134620000000 1.0
C      1  0.5421750000000  0.5592020000000  0.5147080000000 1.0
C      1  0.5697170000000  0.4793960000000  0.5150490000000 1.0
C      1  0.5035760000000  0.4267940000000  0.5165920000000 1.0
C      1  0.4344100000000  0.4740260000000  0.5143350000000 1.0
C      1  0.4692500000000  0.3849240000000  0.3894190000000 1.0
C      1  0.3707670000000  0.4874540000000  0.3932130000000 1.0
C      1  0.4507380000000  0.6123170000000  0.3886760000000 1.0
C      1  0.5914430000000  0.5787170000000  0.3868210000000 1.0
C      1  0.6046790000000  0.4358800000000  0.3886160000000 1.0
C      1  0.4743230000000  0.3792920000000  0.6156770000000 1.0
C      1  0.3751980000000  0.4871770000000  0.6114640000000 1.0
C      1  0.4458710000000  0.6156100000000  0.6069490000000 1.0
C      1  0.5879850000000  0.5761770000000  0.6169800000000 1.0
C      1  0.6083810000000  0.4358210000000  0.6127720000000 1.0
C      1  0.4733100000000  0.4700980000000  0.6207260000000 1.0
C      1  0.4609450000000  0.5179470000000  0.6191250000000 1.0
C      1  0.5033190000000  0.5424720000000  0.6180170000000 1.0
C      1  0.5408290000000  0.5092440000000  0.6195140000000 1.0
C      1  0.5222470000000  0.4638590000000  0.6211740000000 1.0
C      1  0.4691000000000  0.4783800000000  0.3707870000000 1.0
C      1  0.4595270000000  0.5255100000000  0.3788090000000 1.0
C      1  0.5065820000000  0.5425040000000  0.3822160000000 1.0
C      1  0.5452140000000  0.5096430000000  0.3835600000000 1.0
C      1  0.5231650000000  0.4669920000000  0.3774570000000 1.0
C      1  0.5440610000000  0.5153660000000  0.4684550000000 1.0
C      1  0.5282680000000  0.4638530000000  0.4702540000000 1.0
C      1  0.4762320000000  0.4616480000000  0.4792960000000 1.0
C      1  0.4567230000000  0.5109320000000  0.4650650000000 1.0
C      1  0.4995020000000  0.5449810000000  0.4674470000000 1.0
C      1  0.5445880000000  0.5151930000000  0.5337940000000 1.0
C      1  0.5295210000000  0.4628190000000  0.5347730000000 1.0
C      1  0.4752830000000  0.4600410000000  0.5359840000000 1.0
C      1  0.4568030000000  0.5111410000000  0.5332270000000 1.0
C      1  0.4993910000000  0.5447750000000  0.5327680000000 1.0
C      1  0.4429000000000  0.4517460000000  0.4348050000000 1.0
C      1  0.4324990000000  0.5376050000000  0.4340910000000 1.0
C      1  0.5155520000000  0.5741710000000  0.4338040000000 1.0
C      1  0.5765760000000  0.5072670000000  0.4346680000000 1.0
C      1  0.5292700000000  0.4317710000000  0.4347910000000 1.0
C      1  0.4430440000000  0.4475680000000  0.5687170000000 1.0
C      1  0.4320380000000  0.5354120000000  0.5654690000000 1.0
C      1  0.5147470000000  0.5732530000000  0.5672370000000 1.0
C      1  0.5782560000000  0.5076800000000  0.5672330000000 1.0
C      1  0.5333360000000  0.4282490000000  0.5681900000000 1.0
C      1  0.4790980000000  0.4081290000000  0.5692210000000 1.0
C      1  0.4062830000000  0.4913880000000  0.5664310000000 1.0
C      1  0.4622130000000  0.5840060000000  0.5650320000000 1.0
C      1  0.5695120000000  0.5587780000000  0.5682820000000 1.0
C      1  0.5813380000000  0.4505060000000  0.5672780000000 1.0
C      1  0.4783550000000  0.4130270000000  0.4355750000000 1.0
C      1  0.4054210000000  0.4927210000000  0.4355290000000 1.0
C      1  0.4639150000000  0.5843730000000  0.4340660000000 1.0
C      1  0.5701410000000  0.5592250000000  0.4335190000000 1.0
C      1  0.5785170000000  0.4515490000000  0.4342070000000 1.0
C      1  0.5924880000000  0.5291630000000  0.4722240000000 1.0
C      1  0.5566870000000  0.4220190000000  0.4720070000000 1.0
C      1  0.4456910000000  0.4239610000000  0.4741130000000 1.0
C      1  0.3965490000000  0.5357210000000  0.4665210000000 1.0
C      1  0.5002630000000  0.5953680000000  0.4721890000000 1.0
C      1  0.5929040000000  0.5291710000000  0.5291330000000 1.0
C      1  0.5579770000000  0.4209890000000  0.5294860000000 1.0
C      1  0.4427070000000  0.4199820000000  0.5317240000000 1.0
C      1  0.3960600000000  0.5339880000000  0.5334670000000 1.0
C      1  0.5001840000000  0.5950730000000  0.5286650000000 1.0
C      1  0.4543930000000  0.4940670000000  0.4147410000000 1.0
C      1  0.4792660000000  0.5362220000000  0.4218050000000 1.0
C      1  0.5278840000000  0.5297870000000  0.4233980000000 1.0
C      1  0.5377670000000  0.4824590000000  0.4230040000000 1.0
C      1  0.4914860000000  0.4649790000000  0.4319090000000 1.0
C      1  0.4595840000000  0.4907340000000  0.5793410000000 1.0
C      1  0.4771760000000  0.5369130000000  0.5778230000000 1.0
C      1  0.5223940000000  0.5243170000000  0.5767400000000 1.0
C      1  0.5415650000000  0.4809850000000  0.5804790000000 1.0
C      1  0.4968710000000  0.4573410000000  0.5805450000000 1.0
C      1  0.4190320000000  0.4297790000000  0.4859270000000 1.0
C      1  0.4083400000000  0.5548640000000  0.4853280000000 1.0
C      1  0.5258010000000  0.6041430000000  0.4851840000000 1.0
C      1  0.6086200000000  0.5075850000000  0.4850410000000 1.0
C      1  0.5421520000000  0.3994430000000  0.4851640000000 1.0
C      1  0.4183390000000  0.4290130000000  0.5170120000000 1.0
C      1  0.4086950000000  0.5539140000000  0.5158010000000 1.0
C      1  0.5258200000000  0.6040300000000  0.5162200000000 1.0
C      1  0.6088870000000  0.5075800000000  0.5161750000000 1.0
C      1  0.5425050000000  0.3990200000000  0.5165080000000 1.0
C      1  0.3617410000000  0.4853190000000  0.6337140000000 1.0
C      1  0.4385300000000  0.6294950000000  0.6277570000000 1.0
C      1  0.5952450000000  0.5830970000000  0.6410420000000 1.0
C      1  0.6200130000000  0.4296390000000  0.6352680000000 1.0
C      1  0.4724590000000  0.3669780000000  0.6385790000000 1.0
C      1  0.3555150000000  0.4851180000000  0.3722010000000 1.0
C      1  0.4449310000000  0.6240680000000  0.3661420000000 1.0
C      1  0.6002530000000  0.5869230000000  0.3636990000000 1.0
C      1  0.6158830000000  0.4293100000000  0.3660130000000 1.0
C      1  0.4650860000000  0.3728700000000  0.3666810000000 1.0
C      1  0.4636640000000  0.4691980000000  0.4253100000000 1.0
C      1  0.4561640000000  0.5178640000000  0.4336300000000 1.0
C      1  0.5041950000000  0.5450670000000  0.4364340000000 1.0
C      1  0.5454670000000  0.5096890000000  0.4373410000000 1.0
C      1  0.5219040000000  0.4620100000000  0.4385430000000 1.0
C      1  0.4701450000000  0.4636940000000  0.5667960000000 1.0
C      1  0.4565140000000  0.5169790000000  0.5643050000000 1.0
C      1  0.5030330000000  0.5452910000000  0.5639590000000 1.0
C      1  0.5472100000000  0.5095090000000  0.5658040000000 1.0
C      1  0.5260490000000  0.4587420000000  0.5665380000000 1.0
C      1  0.4763120000000  0.3921310000000  0.5925930000000 1.0
C      1  0.3891930000000  0.4890930000000  0.5890550000000 1.0
C      1  0.4534260000000  0.6012330000000  0.5860230000000 1.0
C      1  0.5801630000000  0.5687530000000  0.5927860000000 1.0
C      1  0.5962750000000  0.4423050000000  0.5901210000000 1.0
C      1  0.4735350000000  0.3975010000000  0.4123350000000 1.0
C      1  0.3865670000000  0.4898790000000  0.4143350000000 1.0
C      1  0.4567530000000  0.5999810000000  0.4113320000000 1.0
C      1  0.5821460000000  0.5701070000000  0.4100820000000 1.0
C      1  0.5929750000000  0.4427840000000  0.4113550000000 1.0
C      1  0.4586160000000  0.4820860000000  0.4727910000000 1.0
C      1  0.4731920000000  0.5341600000000  0.4734570000000 1.0
C      1  0.5266530000000  0.5376910000000  0.4752540000000 1.0
C      1  0.5440650000000  0.4874530000000  0.4767630000000 1.0
C      1  0.5024230000000  0.4537070000000  0.4791680000000 1.0
C      1  0.4587310000000  0.4825320000000  0.5267910000000 1.0
C      1  0.4736570000000  0.5336920000000  0.5251760000000 1.0
C      1  0.5268890000000  0.5373070000000  0.5262920000000 1.0
C      1  0.5443870000000  0.4869640000000  0.5264410000000 1.0
C      1  0.5026840000000  0.4532470000000  0.5279200000000 1.0
C      1  0.4335010000000  0.6234880000000  0.4860600000000 1.0
C      1  0.5749510000000  0.5973310000000  0.5272020000000 1.0
C      1  0.6140300000000  0.4591880000000  0.5142940000000 1.0
C      1  0.4984080000000  0.3787430000000  0.5150830000000 1.0
C      1  0.3860930000000  0.4653990000000  0.5151310000000 1.0
C      1  0.4323340000000  0.5984420000000  0.4790130000000 1.0
C      1  0.5751020000000  0.5974570000000  0.4752130000000 1.0
C      1  0.6136120000000  0.4592250000000  0.4865310000000 1.0
C      1  0.4980480000000  0.3794420000000  0.4872700000000 1.0
C      1  0.3856690000000  0.4652500000000  0.4874210000000 1.0
C      1  0.5974810000000  0.4801400000000  0.5283860000000 1.0
C      1  0.5130540000000  0.4009080000000  0.5296400000000 1.0
C      1  0.4121140000000  0.4581320000000  0.5284000000000 1.0
C      1  0.4341640000000  0.5635570000000  0.5277310000000 1.0
C      1  0.5476200000000  0.5851640000000  0.5298630000000 1.0
C      1  0.5967010000000  0.4802680000000  0.4730720000000 1.0
C      1  0.5124050000000  0.4022490000000  0.4735350000000 1.0
C      1  0.4114030000000  0.4583780000000  0.4735310000000 1.0
C      1  0.4335600000000  0.5695190000000  0.4727820000000 1.0
C      1  0.5478060000000  0.5854240000000  0.4718830000000 1.0
C      1  0.4967220000000  0.5700840000000  0.5146330000000 1.0
C      1  0.5679240000000  0.5251480000000  0.5153360000000 1.0
C      1  0.5464270000000  0.4436500000000  0.5160320000000 1.0
C      1  0.4622220000000  0.4369940000000  0.5194140000000 1.0
C      1  0.4337140000000  0.5164550000000  0.5125350000000 1.0
C      1  0.4963410000000  0.5701810000000  0.4858800000000 1.0
C      1  0.5676760000000  0.5254710000000  0.4864760000000 1.0
C      1  0.5461870000000  0.4442460000000  0.4871380000000 1.0
C      1  0.4630160000000  0.4386980000000  0.4914150000000 1.0
C      1  0.4332240000000  0.5169380000000  0.4856290000000 1.0
C      1  0.5441170000000  0.5741790000000  0.5590710000000 1.0
C      1  0.5884210000000  0.4792520000000  0.5578910000000 1.0
C      1  0.5094320000000  0.4096490000000  0.5592920000000 1.0
C      1  0.4185780000000  0.4647330000000  0.5578610000000 1.0
C      1  0.4404000000000  0.5637380000000  0.5563480000000 1.0
C      1  0.5447810000000  0.5748590000000  0.4425470000000 1.0
C      1  0.5866230000000  0.4795100000000  0.4437770000000 1.0
C      1  0.5072890000000  0.4129450000000  0.4445480000000 1.0
C      1  0.4174530000000  0.4658220000000  0.4443310000000 1.0
C      1  0.4413640000000  0.5650620000000  0.4431040000000 1.0
C      1  0.4963490000000  0.4764860000000  0.3789170000000 1.0
C      1  0.4540570000000  0.4982510000000  0.3857950000000 1.0
C      1  0.4800770000000  0.5395970000000  0.3926390000000 1.0
C      1  0.5297390000000  0.5310700000000  0.3943810000000 1.0
C      1  0.5414270000000  0.4827370000000  0.3935420000000 1.0
C      1  0.4968460000000  0.4588090000000  0.6097080000000 1.0
C      1  0.4597670000000  0.4917520000000  0.6084910000000 1.0
C      1  0.4775600000000  0.5374880000000  0.6070740000000 1.0
C      1  0.5260470000000  0.5298270000000  0.6065220000000 1.0
C      1  0.5400580000000  0.4825900000000  0.6095500000000 1.0
C      1  0.5028320000000  0.5005150000000  0.5754910000000 1.0
C      1  0.4981280000000  0.4956490000000  0.3997410000000 1.0
END
