TITL C-3201378-2706-2066 -225.845213692263 125000 -1010.92974505199 0 0 167 (C1) n - 1
REM
REM in /home/nfs/bkarasulu/CARBON/AIRSS/Generating-Clusters/LCBOP/Higher-Symm/SD-CG/FIRE-CG
REM
REM
REM
REM
REM
REM ./C.cell (b20cbc046b6831c77cfcea5457e17084)
REM AIRSS Version 0.9.1 bugfix July 2018 build 013d7b7c2542+ Fri, 06 Jul 2018 19:26:36 +0100
REM compiler GCC version 9.2.1 20190827 (Red Hat 9.2.1-1)
REM options -cpp -mtune=generic -march=x86-64 -g -O0 -fpre-include=/usr/include/finclude/math-vector-fortran.h
REM seed -1263535931 1684608061 1731787059 254198002 1439203793 1881329906 650050396 -885813612 -151796912 -816340100 -1599682347 -2018950468 -797749250 1408751081 -2114750550 341891100 25484119 -14779270 141571223 -432319365 -1991046920 229566917 -604139245 -323495773 30114988 533098639 -857778770 -817814235 1701143216 259088316 -1826436097 -491683218 -246548582
REM
CELL 1.54180   50.00000   50.00000   50.00000   90.00000   90.00000   90.00000
LATT -1
SFAC C  
C      1  0.5551960000000  0.4508790000000  0.4388940000000 1.0
C      1  0.4538250000000  0.5624060000000  0.4461100000000 1.0
C      1  0.5752580000000  0.5692420000000  0.4602740000000 1.0
C      1  0.4174670000000  0.4347770000000  0.4646790000000 1.0
C      1  0.4536380000000  0.4039950000000  0.5832280000000 1.0
C      1  0.5149750000000  0.5992290000000  0.5965310000000 1.0
C      1  0.3897240000000  0.5236510000000  0.3796100000000 1.0
C      1  0.6117640000000  0.4619090000000  0.4397440000000 1.0
C      1  0.4053970000000  0.4538390000000  0.4836190000000 1.0
C      1  0.5926260000000  0.5531520000000  0.4767260000000 1.0
C      1  0.4381570000000  0.5497000000000  0.4268810000000 1.0
C      1  0.5616430000000  0.4600230000000  0.4135160000000 1.0
C      1  0.4758140000000  0.4497580000000  0.5272220000000 1.0
C      1  0.5280510000000  0.5510080000000  0.5311230000000 1.0
C      1  0.5726100000000  0.4962900000000  0.5468390000000 1.0
C      1  0.4502060000000  0.5106150000000  0.5525250000000 1.0
C      1  0.5637760000000  0.5397190000000  0.5684770000000 1.0
C      1  0.4398150000000  0.4650750000000  0.5632020000000 1.0
C      1  0.5137440000000  0.3969120000000  0.5365210000000 1.0
C      1  0.4794910000000  0.6197450000000  0.5463920000000 1.0
C      1  0.4000000000000  0.4424650000000  0.5101880000000 1.0
C      1  0.6018500000000  0.5690010000000  0.5161650000000 1.0
C      1  0.5205040000000  0.6079160000000  0.5272350000000 1.0
C      1  0.4698250000000  0.3811900000000  0.5272840000000 1.0
C      1  0.5094360000000  0.5103520000000  0.3421840000000 1.0
C      1  0.4732140000000  0.4440640000000  0.4081710000000 1.0
C      1  0.4936330000000  0.5352930000000  0.4457330000000 1.0
C      1  0.5139530000000  0.4757810000000  0.4460940000000 1.0
C      1  0.4856020000000  0.5405870000000  0.6121490000000 1.0
C      1  0.5136550000000  0.4437830000000  0.6091950000000 1.0
C      1  0.4812140000000  0.4379800000000  0.5689770000000 1.0
C      1  0.5054370000000  0.5603720000000  0.5686200000000 1.0
C      1  0.6162530000000  0.4902300000000  0.5322900000000 1.0
C      1  0.3903940000000  0.5139120000000  0.5405700000000 1.0
C      1  0.4893890000000  0.4585760000000  0.5512000000000 1.0
C      1  0.5143280000000  0.5377680000000  0.5531050000000 1.0
C      1  0.5390350000000  0.4674970000000  0.4567390000000 1.0
C      1  0.4714070000000  0.5441870000000  0.4612820000000 1.0
C      1  0.3844170000000  0.4921690000000  0.5206260000000 1.0
C      1  0.6212240000000  0.5151640000000  0.5143410000000 1.0
C      1  0.4491580000000  0.5583010000000  0.5508810000000 1.0
C      1  0.5555750000000  0.4507100000000  0.5432700000000 1.0
C      1  0.5093140000000  0.4463740000000  0.4889350000000 1.0
C      1  0.4660610000000  0.5325690000000  0.5106910000000 1.0
C      1  0.6024090000000  0.4594660000000  0.5686110000000 1.0
C      1  0.3759500000000  0.5295270000000  0.5835370000000 1.0
C      1  0.3981990000000  0.5012960000000  0.4685140000000 1.0
C      1  0.6038920000000  0.5069490000000  0.4649630000000 1.0
C      1  0.4677030000000  0.5082440000000  0.4962220000000 1.0
C      1  0.5427290000000  0.4859500000000  0.5088440000000 1.0
C      1  0.4167580000000  0.4733130000000  0.5990090000000 1.0
C      1  0.5825150000000  0.5144940000000  0.6017330000000 1.0
C      1  0.4416210000000  0.4993400000000  0.4237710000000 1.0
C      1  0.5597110000000  0.5085520000000  0.4141680000000 1.0
C      1  0.4119390000000  0.5637520000000  0.5220390000000 1.0
C      1  0.5944560000000  0.4439370000000  0.5130460000000 1.0
C      1  0.5023200000000  0.4501350000000  0.4412200000000 1.0
C      1  0.5119830000000  0.5578650000000  0.4461400000000 1.0
C      1  0.3942710000000  0.5402320000000  0.5261620000000 1.0
C      1  0.6149160000000  0.4649490000000  0.5158300000000 1.0
C      1  0.5019520000000  0.4382530000000  0.3992260000000 1.0
C      1  0.4827850000000  0.5120550000000  0.3453120000000 1.0
C      1  0.5547910000000  0.4162040000000  0.5083770000000 1.0
C      1  0.4494220000000  0.5930230000000  0.5169200000000 1.0
C      1  0.3978320000000  0.4879580000000  0.4438200000000 1.0
C      1  0.5986460000000  0.5218500000000  0.4414830000000 1.0
C      1  0.4576210000000  0.5875160000000  0.4616290000000 1.0
C      1  0.5552000000000  0.4229070000000  0.4490470000000 1.0
C      1  0.4694950000000  0.4684420000000  0.6019500000000 1.0
C      1  0.5381190000000  0.5408610000000  0.6133640000000 1.0
C      1  0.4218930000000  0.4770090000000  0.4317200000000 1.0
C      1  0.5744520000000  0.5300300000000  0.4280850000000 1.0
C      1  0.4669940000000  0.4875000000000  0.3882430000000 1.0
C      1  0.5250590000000  0.4874890000000  0.3845870000000 1.0
C      1  0.4085010000000  0.5248690000000  0.3976380000000 1.0
C      1  0.6031660000000  0.4777180000000  0.4188980000000 1.0
C      1  0.4868580000000  0.3949480000000  0.5450830000000 1.0
C      1  0.5039800000000  0.6063680000000  0.5498180000000 1.0
C      1  0.5706900000000  0.4335750000000  0.5262400000000 1.0
C      1  0.4341410000000  0.5761550000000  0.5354390000000 1.0
C      1  0.4609960000000  0.6159490000000  0.5273760000000 1.0
C      1  0.5340830000000  0.4010550000000  0.5196100000000 1.0
C      1  0.4597830000000  0.4601430000000  0.3891490000000 1.0
C      1  0.5271820000000  0.4992490000000  0.3590230000000 1.0
C      1  0.5367080000000  0.5047210000000  0.5838060000000 1.0
C      1  0.4777640000000  0.4905980000000  0.5858640000000 1.0
C      1  0.4261540000000  0.4724250000000  0.4909350000000 1.0
C      1  0.5794660000000  0.5347270000000  0.4945480000000 1.0
C      1  0.5214470000000  0.6108180000000  0.6189590000000 1.0
C      1  0.4402850000000  0.4255720000000  0.5941000000000 1.0
C      1  0.3863020000000  0.4635480000000  0.5245440000000 1.0
C      1  0.6169210000000  0.5447110000000  0.5185860000000 1.0
C      1  0.4492110000000  0.5783820000000  0.4902110000000 1.0
C      1  0.5583940000000  0.4282470000000  0.4797680000000 1.0
C      1  0.4217760000000  0.5199940000000  0.4710260000000 1.0
C      1  0.5842960000000  0.4844880000000  0.4703700000000 1.0
C      1  0.5310660000000  0.5929150000000  0.4772910000000 1.0
C      1  0.4442390000000  0.3917490000000  0.4841150000000 1.0
C      1  0.4738480000000  0.4503610000000  0.4379430000000 1.0
C      1  0.5366790000000  0.5462890000000  0.4508450000000 1.0
C      1  0.6234850000000  0.5029440000000  0.4867220000000 1.0
C      1  0.3833090000000  0.5047090000000  0.4936580000000 1.0
C      1  0.4291550000000  0.5249380000000  0.4165510000000 1.0
C      1  0.5762370000000  0.4840890000000  0.4107120000000 1.0
C      1  0.4889750000000  0.4886270000000  0.4982160000000 1.0
C      1  0.5156890000000  0.4980280000000  0.5039870000000 1.0
C      1  0.5544800000000  0.4780630000000  0.5341420000000 1.0
C      1  0.4557810000000  0.5337720000000  0.5370390000000 1.0
C      1  0.5881380000000  0.4396380000000  0.4837080000000 1.0
C      1  0.4204810000000  0.5659430000000  0.4929950000000 1.0
C      1  0.4483820000000  0.4453440000000  0.5202230000000 1.0
C      1  0.5529640000000  0.5608310000000  0.5219960000000 1.0
C      1  0.5305020000000  0.3838640000000  0.4314760000000 1.0
C      1  0.4852880000000  0.6264090000000  0.4516300000000 1.0
C      1  0.5089520000000  0.5840290000000  0.4589200000000 1.0
C      1  0.5142840000000  0.4299060000000  0.4243890000000 1.0
C      1  0.5344540000000  0.4526720000000  0.5922600000000 1.0
C      1  0.4647530000000  0.5372680000000  0.5932110000000 1.0
C      1  0.4448830000000  0.4788060000000  0.4708930000000 1.0
C      1  0.5606530000000  0.5192470000000  0.4814520000000 1.0
C      1  0.5299690000000  0.5048230000000  0.4075760000000 1.0
C      1  0.4701300000000  0.4978830000000  0.4149040000000 1.0
C      1  0.6034500000000  0.4606030000000  0.4684700000000 1.0
C      1  0.4087110000000  0.5437350000000  0.4805990000000 1.0
C      1  0.5618280000000  0.5528110000000  0.4404710000000 1.0
C      1  0.4234250000000  0.4481930000000  0.4393340000000 1.0
C      1  0.5159640000000  0.5091010000000  0.5634680000000 1.0
C      1  0.4963210000000  0.4854590000000  0.5633890000000 1.0
C      1  0.6011320000000  0.5041950000000  0.5843850000000 1.0
C      1  0.4022430000000  0.4896910000000  0.5844910000000 1.0
C      1  0.5169570000000  0.5239420000000  0.4918550000000 1.0
C      1  0.4869510000000  0.4632560000000  0.4846550000000 1.0
C      1  0.5331280000000  0.4107940000000  0.4346870000000 1.0
C      1  0.4839360000000  0.5995710000000  0.4575650000000 1.0
C      1  0.4537580000000  0.5589180000000  0.5786510000000 1.0
C      1  0.5442890000000  0.4423660000000  0.5678610000000 1.0
C      1  0.5154830000000  0.4602670000000  0.3862000000000 1.0
C      1  0.4671500000000  0.5027080000000  0.3649230000000 1.0
C      1  0.6244250000000  0.4725710000000  0.4888110000000 1.0
C      1  0.3870620000000  0.5335270000000  0.4979910000000 1.0
C      1  0.4608550000000  0.5122330000000  0.5798670000000 1.0
C      1  0.5404400000000  0.4797450000000  0.5957330000000 1.0
C      1  0.5997060000000  0.4879630000000  0.5581280000000 1.0
C      1  0.3899070000000  0.5105380000000  0.5692040000000 1.0
C      1  0.5693870000000  0.5801510000000  0.5075660000000 1.0
C      1  0.4263770000000  0.4274300000000  0.5124430000000 1.0
C      1  0.5709060000000  0.5382230000000  0.5214030000000 1.0
C      1  0.4366890000000  0.4728700000000  0.5177730000000 1.0
C      1  0.4398360000000  0.4854330000000  0.5432650000000 1.0
C      1  0.5703300000000  0.5244900000000  0.5453500000000 1.0
C      1  0.4582110000000  0.3791770000000  0.5032950000000 1.0
C      1  0.5225750000000  0.6066880000000  0.5006690000000 1.0
C      1  0.5116420000000  0.5425990000000  0.6188360000000 1.0
C      1  0.4895790000000  0.4541730000000  0.6161200000000 1.0
C      1  0.4295730000000  0.4156260000000  0.4843380000000 1.0
C      1  0.5595070000000  0.5851160000000  0.4794640000000 1.0
C      1  0.4761400000000  0.4104640000000  0.5666760000000 1.0
C      1  0.5080200000000  0.5884850000000  0.5716810000000 1.0
C      1  0.5621260000000  0.4917230000000  0.4871040000000 1.0
C      1  0.4473500000000  0.5068750000000  0.4750360000000 1.0
C      1  0.4660720000000  0.4617520000000  0.4639750000000 1.0
C      1  0.5368500000000  0.5302850000000  0.4737470000000 1.0
C      1  0.4496490000000  0.4522580000000  0.5868760000000 1.0
C      1  0.5556620000000  0.5265080000000  0.5940240000000 1.0
C      1  0.5361580000000  0.4502480000000  0.4807770000000 1.0
C      1  0.4669450000000  0.5524380000000  0.4903160000000 1.0
C      1  0.5022170000000  0.5042900000000  0.4296660000000 1.0
END
