TITL C-3201379-3821-695 -1.30873890734277e-06 125000 -997.477359774152 0 0 162 (C1) n - 1
REM
REM in /home/nfs/bkarasulu/CARBON/AIRSS/Generating-Clusters/LCBOP/Higher-Symm/SD-CG/FIRE-CG
REM
REM
REM
REM
REM
REM ./C.cell (b20cbc046b6831c77cfcea5457e17084)
REM AIRSS Version 0.9.1 bugfix July 2018 build 013d7b7c2542+ Fri, 06 Jul 2018 19:26:36 +0100
REM compiler GCC version 9.2.1 20190827 (Red Hat 9.2.1-1)
REM options -cpp -mtune=generic -march=x86-64 -g -O0 -fpre-include=/usr/include/finclude/math-vector-fortran.h
REM seed -609126717 -2131926395 1884736669 784071343 1556630419 142044704 -1772443360 658582811 -1586730385 1358433376 -174395938 2054862281 584119092 1317846698 2015044955 733743254 328794625 -1083555084 -902181565 -998512249 1412161769 -491526434 1099217956 -1549504185 -416938643 1334629803 -1748970256 311946312 -88647397 229247818 -787537162 327845857 -1880927917
REM
CELL 1.54180   50.00000   50.00000   50.00000   90.00000   90.00000   90.00000
LATT -1
SFAC C  
C      1  0.5057230000000  0.5234910000000  0.4374000000000 1.0
C      1  0.4755190000000  0.4879580000000  0.5701470000000 1.0
C      1  0.4885860000000  0.5196510000000  0.4635240000000 1.0
C      1  0.5002880000000  0.4771880000000  0.5259550000000 1.0
C      1  0.4431350000000  0.4805320000000  0.5261190000000 1.0
C      1  0.5669400000000  0.5115610000000  0.4812230000000 1.0
C      1  0.4133380000000  0.4595610000000  0.5549780000000 1.0
C      1  0.5833020000000  0.5344910000000  0.4467470000000 1.0
C      1  0.4387000000000  0.5148590000000  0.5823420000000 1.0
C      1  0.5722220000000  0.4780610000000  0.4257290000000 1.0
C      1  0.5231950000000  0.5935760000000  0.5169710000000 1.0
C      1  0.4743940000000  0.4015790000000  0.4792320000000 1.0
C      1  0.4720850000000  0.4344900000000  0.5364310000000 1.0
C      1  0.5235130000000  0.5538390000000  0.4665370000000 1.0
C      1  0.4512060000000  0.5449590000000  0.3977140000000 1.0
C      1  0.5406980000000  0.4685200000000  0.5970870000000 1.0
C      1  0.5283430000000  0.4821440000000  0.5244280000000 1.0
C      1  0.4630150000000  0.5049410000000  0.4580150000000 1.0
C      1  0.4480340000000  0.4143080000000  0.4726870000000 1.0
C      1  0.5478140000000  0.5793300000000  0.5258130000000 1.0
C      1  0.3858920000000  0.4228260000000  0.4336860000000 1.0
C      1  0.6073150000000  0.5731600000000  0.5704470000000 1.0
C      1  0.4803570000000  0.6063120000000  0.5736270000000 1.0
C      1  0.5137810000000  0.3982760000000  0.4191090000000 1.0
C      1  0.4728370000000  0.5537460000000  0.4163810000000 1.0
C      1  0.5178330000000  0.4592210000000  0.5795240000000 1.0
C      1  0.5008380000000  0.5005660000000  0.4846430000000 1.0
C      1  0.4897320000000  0.4997720000000  0.5117810000000 1.0
C      1  0.4311550000000  0.4170570000000  0.4491480000000 1.0
C      1  0.5640510000000  0.5791410000000  0.5498110000000 1.0
C      1  0.4029120000000  0.4869550000000  0.5556080000000 1.0
C      1  0.6029570000000  0.5137570000000  0.4446420000000 1.0
C      1  0.4930570000000  0.4726260000000  0.5866410000000 1.0
C      1  0.4965860000000  0.5380000000000  0.4147220000000 1.0
C      1  0.5036960000000  0.5390400000000  0.5589580000000 1.0
C      1  0.4995840000000  0.4595320000000  0.4433400000000 1.0
C      1  0.4002860000000  0.4598090000000  0.4612450000000 1.0
C      1  0.5997960000000  0.5404710000000  0.5355430000000 1.0
C      1  0.5620060000000  0.4494480000000  0.5917300000000 1.0
C      1  0.4272890000000  0.5550890000000  0.4100800000000 1.0
C      1  0.4311930000000  0.5256550000000  0.5042880000000 1.0
C      1  0.5663680000000  0.4672850000000  0.5015240000000 1.0
C      1  0.4562380000000  0.3919160000000  0.5201990000000 1.0
C      1  0.5419040000000  0.5980890000000  0.4747380000000 1.0
C      1  0.5850310000000  0.4562720000000  0.5201250000000 1.0
C      1  0.4167420000000  0.5401170000000  0.4819860000000 1.0
C      1  0.5475300000000  0.5039040000000  0.5231080000000 1.0
C      1  0.4526730000000  0.4880470000000  0.4790220000000 1.0
C      1  0.4589140000000  0.5380000000000  0.5096230000000 1.0
C      1  0.5358620000000  0.4648110000000  0.4979560000000 1.0
C      1  0.5438020000000  0.5843550000000  0.4103900000000 1.0
C      1  0.4485750000000  0.3988160000000  0.5870770000000 1.0
C      1  0.4590260000000  0.4487060000000  0.5578010000000 1.0
C      1  0.5330410000000  0.5301970000000  0.4484290000000 1.0
C      1  0.6337210000000  0.4230260000000  0.4217570000000 1.0
C      1  0.4040060000000  0.5858710000000  0.5661300000000 1.0
C      1  0.5313500000000  0.4387830000000  0.5586820000000 1.0
C      1  0.4604450000000  0.5676880000000  0.4400800000000 1.0
C      1  0.3948350000000  0.4966320000000  0.5274940000000 1.0
C      1  0.6203320000000  0.5089380000000  0.4689560000000 1.0
C      1  0.4754310000000  0.5206810000000  0.5257100000000 1.0
C      1  0.5258890000000  0.4846750000000  0.4747260000000 1.0
C      1  0.6173340000000  0.4691710000000  0.4438150000000 1.0
C      1  0.4088160000000  0.5346260000000  0.5511890000000 1.0
C      1  0.5215570000000  0.5815630000000  0.5794410000000 1.0
C      1  0.4712510000000  0.4219060000000  0.4192900000000 1.0
C      1  0.4515830000000  0.5177770000000  0.3897610000000 1.0
C      1  0.5501900000000  0.4954870000000  0.5974260000000 1.0
C      1  0.4727600000000  0.4740530000000  0.3988850000000 1.0
C      1  0.5170470000000  0.5370030000000  0.6119000000000 1.0
C      1  0.5287540000000  0.5367750000000  0.5510070000000 1.0
C      1  0.4763290000000  0.4556160000000  0.4554440000000 1.0
C      1  0.4328100000000  0.4356890000000  0.5123510000000 1.0
C      1  0.5645500000000  0.5571850000000  0.4878770000000 1.0
C      1  0.5259260000000  0.6021580000000  0.4191130000000 1.0
C      1  0.4707880000000  0.3874960000000  0.5772250000000 1.0
C      1  0.5488130000000  0.5859130000000  0.5726540000000 1.0
C      1  0.4454010000000  0.4120370000000  0.4253470000000 1.0
C      1  0.5155470000000  0.5524190000000  0.3718540000000 1.0
C      1  0.4808020000000  0.4515780000000  0.6291520000000 1.0
C      1  0.5093860000000  0.5055900000000  0.3814380000000 1.0
C      1  0.4856990000000  0.4998150000000  0.6262490000000 1.0
C      1  0.4497500000000  0.4180800000000  0.5267760000000 1.0
C      1  0.5460990000000  0.5708530000000  0.4717000000000 1.0
C      1  0.5007330000000  0.5919570000000  0.5618400000000 1.0
C      1  0.4938310000000  0.4103020000000  0.4337950000000 1.0
C      1  0.4654640000000  0.5142230000000  0.5734740000000 1.0
C      1  0.5475830000000  0.4696970000000  0.4321780000000 1.0
C      1  0.5422870000000  0.4070510000000  0.4802810000000 1.0
C      1  0.4543200000000  0.5974280000000  0.5162920000000 1.0
C      1  0.4051130000000  0.4852220000000  0.4488440000000 1.0
C      1  0.5964180000000  0.5131650000000  0.5439600000000 1.0
C      1  0.6270960000000  0.4644350000000  0.4920340000000 1.0
C      1  0.4105840000000  0.5887350000000  0.4964650000000 1.0
C      1  0.4206820000000  0.5082710000000  0.4428670000000 1.0
C      1  0.5852080000000  0.4905750000000  0.5575290000000 1.0
C      1  0.5263650000000  0.4144460000000  0.5416610000000 1.0
C      1  0.4686150000000  0.5902400000000  0.4570120000000 1.0
C      1  0.6260160000000  0.4456030000000  0.4322440000000 1.0
C      1  0.4054500000000  0.5609830000000  0.5585420000000 1.0
C      1  0.5247300000000  0.4695830000000  0.4486860000000 1.0
C      1  0.4787640000000  0.5288020000000  0.5529870000000 1.0
C      1  0.5583580000000  0.5394300000000  0.4323140000000 1.0
C      1  0.4328920000000  0.4433520000000  0.5697320000000 1.0
C      1  0.4864580000000  0.4740730000000  0.6147290000000 1.0
C      1  0.5083520000000  0.5325880000000  0.3891850000000 1.0
C      1  0.4240670000000  0.4579480000000  0.5269860000000 1.0
C      1  0.5782220000000  0.5367140000000  0.4753300000000 1.0
C      1  0.5613350000000  0.4455180000000  0.5627650000000 1.0
C      1  0.4316800000000  0.5569750000000  0.4388230000000 1.0
C      1  0.5561340000000  0.4004460000000  0.5024090000000 1.0
C      1  0.4357410000000  0.6011150000000  0.4954360000000 1.0
C      1  0.4949840000000  0.5249450000000  0.6246530000000 1.0
C      1  0.4956230000000  0.4829530000000  0.3848180000000 1.0
C      1  0.5083900000000  0.6089930000000  0.4380540000000 1.0
C      1  0.4903120000000  0.3868770000000  0.5588990000000 1.0
C      1  0.4814060000000  0.3916610000000  0.5068590000000 1.0
C      1  0.5177540000000  0.6030650000000  0.4889480000000 1.0
C      1  0.4032620000000  0.5638010000000  0.4897890000000 1.0
C      1  0.6112920000000  0.4531640000000  0.5105620000000 1.0
C      1  0.6311070000000  0.5684000000000  0.5110160000000 1.0
C      1  0.3666890000000  0.4403270000000  0.4904460000000 1.0
C      1  0.3862680000000  0.4814580000000  0.5052070000000 1.0
C      1  0.6221610000000  0.5252610000000  0.4921110000000 1.0
C      1  0.5143080000000  0.4418990000000  0.4988470000000 1.0
C      1  0.4770820000000  0.5579910000000  0.4991810000000 1.0
C      1  0.5895720000000  0.5639500000000  0.5510290000000 1.0
C      1  0.4066560000000  0.4335950000000  0.4487580000000 1.0
C      1  0.4567540000000  0.4607460000000  0.4746400000000 1.0
C      1  0.5443980000000  0.5311910000000  0.5287190000000 1.0
C      1  0.4954630000000  0.5481990000000  0.4777720000000 1.0
C      1  0.4934350000000  0.4486130000000  0.5202630000000 1.0
C      1  0.4476040000000  0.6040280000000  0.4700850000000 1.0
C      1  0.5496040000000  0.4047120000000  0.5281350000000 1.0
C      1  0.4714350000000  0.4464080000000  0.4047900000000 1.0
C      1  0.5165250000000  0.5629260000000  0.6004560000000 1.0
C      1  0.4319850000000  0.4199260000000  0.5850550000000 1.0
C      1  0.5555380000000  0.5606540000000  0.4142120000000 1.0
C      1  0.5432520000000  0.5077870000000  0.4664080000000 1.0
C      1  0.4606210000000  0.4759660000000  0.5494320000000 1.0
C      1  0.4775360000000  0.5812980000000  0.5168680000000 1.0
C      1  0.5177440000000  0.4209830000000  0.4787120000000 1.0
C      1  0.4434860000000  0.4390460000000  0.4866110000000 1.0
C      1  0.5535560000000  0.5538500000000  0.5136520000000 1.0
C      1  0.4554200000000  0.4955740000000  0.4075190000000 1.0
C      1  0.5380960000000  0.5188300000000  0.6069070000000 1.0
C      1  0.5739150000000  0.4979650000000  0.5824390000000 1.0
C      1  0.4477250000000  0.5017910000000  0.4341400000000 1.0
C      1  0.6175810000000  0.5444840000000  0.5127980000000 1.0
C      1  0.3846070000000  0.4606830000000  0.4857440000000 1.0
C      1  0.4404470000000  0.4966290000000  0.5026430000000 1.0
C      1  0.5679650000000  0.4965300000000  0.5041380000000 1.0
C      1  0.5000390000000  0.5887970000000  0.5329470000000 1.0
C      1  0.4962090000000  0.4103490000000  0.4628820000000 1.0
C      1  0.5977520000000  0.4874620000000  0.4327250000000 1.0
C      1  0.4141490000000  0.5116900000000  0.5686370000000 1.0
C      1  0.5026370000000  0.3977490000000  0.5358190000000 1.0
C      1  0.4951660000000  0.6014110000000  0.4619160000000 1.0
C      1  0.4081900000000  0.5228810000000  0.5251030000000 1.0
C      1  0.6264110000000  0.4802810000000  0.4689620000000 1.0
C      1  0.5790610000000  0.4629680000000  0.5475510000000 1.0
C      1  0.4202290000000  0.5352880000000  0.4543000000000 1.0
END
