TITL C-3201375-1262-1289 68.4187690170481 125000 -1138.74737384298 0 0 187 (C1) n - 1
REM
REM in /home/nfs/bkarasulu/CARBON/AIRSS/Generating-Clusters/LCBOP/Higher-Symm/SD-CG/FIRE-CG
REM
REM
REM
REM
REM
REM ./C.cell (b20cbc046b6831c77cfcea5457e17084)
REM AIRSS Version 0.9.1 bugfix July 2018 build 013d7b7c2542+ Fri, 06 Jul 2018 19:26:36 +0100
REM compiler GCC version 9.2.1 20190827 (Red Hat 9.2.1-1)
REM options -cpp -mtune=generic -march=x86-64 -g -O0 -fpre-include=/usr/include/finclude/math-vector-fortran.h
REM seed -833480634 -1012771521 91675550 911141943 -1238622464 1268497360 -269033497 -1372534895 1689888264 -1037546483 -1784337695 -1793743230 55714710 1413503416 1013051080 677011012 1225799274 -1762661731 1376934656 2101973257 1441289622 -1978164212 1712145987 924895940 -1631587463 -993374478 -1905490960 1931927003 1368923675 -1997572508 -135125771 -1689789585 -644693247
REM
CELL 1.54180   50.00000   50.00000   50.00000   90.00000   90.00000   90.00000
LATT -1
SFAC C  
C      1  0.5756420000000  0.4196390000000  0.5824570000000 1.0
C      1  0.4211640000000  0.4256370000000  0.5813300000000 1.0
C      1  0.4252700000000  0.5839150000000  0.5810330000000 1.0
C      1  0.5781260000000  0.5746080000000  0.5818900000000 1.0
C      1  0.5749540000000  0.5785490000000  0.4153610000000 1.0
C      1  0.4191620000000  0.5747350000000  0.4151980000000 1.0
C      1  0.4285970000000  0.4207800000000  0.4226360000000 1.0
C      1  0.5817270000000  0.4257240000000  0.4168150000000 1.0
C      1  0.6191060000000  0.5046140000000  0.5414530000000 1.0
C      1  0.5086890000000  0.3860790000000  0.5428270000000 1.0
C      1  0.3822210000000  0.4923830000000  0.5485350000000 1.0
C      1  0.4919850000000  0.6123580000000  0.5413850000000 1.0
C      1  0.6177770000000  0.4918840000000  0.4546300000000 1.0
C      1  0.5065480000000  0.6101070000000  0.4558730000000 1.0
C      1  0.3839840000000  0.5089460000000  0.4523130000000 1.0
C      1  0.4942640000000  0.3872800000000  0.4563190000000 1.0
C      1  0.4930120000000  0.5229650000000  0.4413570000000 1.0
C      1  0.5353520000000  0.5017290000000  0.4481710000000 1.0
C      1  0.4992450000000  0.4766380000000  0.4506760000000 1.0
C      1  0.4717300000000  0.5140320000000  0.4586650000000 1.0
C      1  0.4975900000000  0.4720750000000  0.5518900000000 1.0
C      1  0.5380840000000  0.4939830000000  0.5446170000000 1.0
C      1  0.4942320000000  0.5242300000000  0.5510450000000 1.0
C      1  0.4598580000000  0.4948500000000  0.5397210000000 1.0
C      1  0.5061190000000  0.4291900000000  0.4269250000000 1.0
C      1  0.4291590000000  0.4971410000000  0.4305110000000 1.0
C      1  0.4957080000000  0.5715680000000  0.4247180000000 1.0
C      1  0.5769270000000  0.5030950000000  0.4233780000000 1.0
C      1  0.5018390000000  0.5712230000000  0.5720870000000 1.0
C      1  0.4240910000000  0.5066080000000  0.5741970000000 1.0
C      1  0.4973940000000  0.4263600000000  0.5732250000000 1.0
C      1  0.5774820000000  0.4956490000000  0.5738950000000 1.0
C      1  0.5005380000000  0.5506900000000  0.4469360000000 1.0
C      1  0.5615760000000  0.4934550000000  0.4471470000000 1.0
C      1  0.5064330000000  0.4480710000000  0.4519750000000 1.0
C      1  0.4465850000000  0.4983980000000  0.4575400000000 1.0
C      1  0.5052020000000  0.4446900000000  0.5509760000000 1.0
C      1  0.5632630000000  0.5032940000000  0.5488770000000 1.0
C      1  0.4905910000000  0.5525560000000  0.5512900000000 1.0
C      1  0.4372940000000  0.5114270000000  0.5450810000000 1.0
C      1  0.5923980000000  0.4237410000000  0.5083600000000 1.0
C      1  0.4263740000000  0.4082780000000  0.5102540000000 1.0
C      1  0.4046580000000  0.5811190000000  0.5048860000000 1.0
C      1  0.5740700000000  0.5864020000000  0.5061840000000 1.0
C      1  0.5916390000000  0.5727120000000  0.4895500000000 1.0
C      1  0.4204440000000  0.5950930000000  0.4873730000000 1.0
C      1  0.4122500000000  0.4246640000000  0.4935620000000 1.0
C      1  0.5767070000000  0.4099930000000  0.4905220000000 1.0
C      1  0.5573310000000  0.5251200000000  0.4149400000000 1.0
C      1  0.5273510000000  0.4440710000000  0.4113610000000 1.0
C      1  0.4454280000000  0.4757360000000  0.4167070000000 1.0
C      1  0.4724050000000  0.5571180000000  0.4133640000000 1.0
C      1  0.5577250000000  0.4740700000000  0.5830170000000 1.0
C      1  0.5238940000000  0.5534060000000  0.5819060000000 1.0
C      1  0.4415630000000  0.5265830000000  0.5892270000000 1.0
C      1  0.4743850000000  0.4431310000000  0.5829430000000 1.0
C      1  0.5204730000000  0.5653220000000  0.4068310000000 1.0
C      1  0.5685620000000  0.4798180000000  0.4035430000000 1.0
C      1  0.4814490000000  0.4354670000000  0.4095420000000 1.0
C      1  0.4340360000000  0.5202210000000  0.4099870000000 1.0
C      1  0.5213360000000  0.4333120000000  0.5925070000000 1.0
C      1  0.5671010000000  0.5195950000000  0.5928020000000 1.0
C      1  0.4794830000000  0.5670240000000  0.5942920000000 1.0
C      1  0.4342190000000  0.4801540000000  0.5882210000000 1.0
C      1  0.6045650000000  0.4840410000000  0.5594700000000 1.0
C      1  0.4876700000000  0.3999100000000  0.5590140000000 1.0
C      1  0.3933510000000  0.5165840000000  0.5651940000000 1.0
C      1  0.5124110000000  0.5967910000000  0.5565980000000 1.0
C      1  0.6034180000000  0.5133260000000  0.4379770000000 1.0
C      1  0.4853740000000  0.5978960000000  0.4393750000000 1.0
C      1  0.4015850000000  0.4867770000000  0.4427340000000 1.0
C      1  0.5155920000000  0.4017570000000  0.4407000000000 1.0
C      1  0.5499070000000  0.5495060000000  0.5375800000000 1.0
C      1  0.5552990000000  0.4520960000000  0.5358420000000 1.0
C      1  0.4517870000000  0.4450140000000  0.5341210000000 1.0
C      1  0.4462000000000  0.5401110000000  0.5436000000000 1.0
C      1  0.5370950000000  0.4499180000000  0.4581490000000 1.0
C      1  0.5567800000000  0.5487550000000  0.4625390000000 1.0
C      1  0.4470540000000  0.5519810000000  0.4632270000000 1.0
C      1  0.4538740000000  0.4650170000000  0.4613870000000 1.0
C      1  0.5484900000000  0.4294670000000  0.5809660000000 1.0
C      1  0.4299660000000  0.4530070000000  0.5780270000000 1.0
C      1  0.4517990000000  0.5722290000000  0.5840710000000 1.0
C      1  0.5698950000000  0.5469870000000  0.5819290000000 1.0
C      1  0.5475440000000  0.5694050000000  0.4178230000000 1.0
C      1  0.4282040000000  0.5475190000000  0.4181840000000 1.0
C      1  0.4555000000000  0.4309380000000  0.4220020000000 1.0
C      1  0.5722430000000  0.4529180000000  0.4160700000000 1.0
C      1  0.4470810000000  0.5475700000000  0.5708360000000 1.0
C      1  0.5460500000000  0.5491440000000  0.5652470000000 1.0
C      1  0.5530660000000  0.4530270000000  0.5641290000000 1.0
C      1  0.4541610000000  0.4480010000000  0.5623990000000 1.0
C      1  0.4519030000000  0.4557920000000  0.4353980000000 1.0
C      1  0.5477530000000  0.4499230000000  0.4309660000000 1.0
C      1  0.5522820000000  0.5458340000000  0.4346450000000 1.0
C      1  0.4518030000000  0.5525580000000  0.4346910000000 1.0
C      1  0.4020880000000  0.4490540000000  0.4818040000000 1.0
C      1  0.4453820000000  0.6042470000000  0.4754410000000 1.0
C      1  0.6033840000000  0.5495370000000  0.4752260000000 1.0
C      1  0.5526680000000  0.4004410000000  0.4772190000000 1.0
C      1  0.3908500000000  0.5585650000000  0.5166060000000 1.0
C      1  0.4503730000000  0.3981360000000  0.5230000000000 1.0
C      1  0.6039210000000  0.4469640000000  0.5217200000000 1.0
C      1  0.5487610000000  0.5937780000000  0.5196420000000 1.0
C      1  0.5349650000000  0.5169900000000  0.3966740000000 1.0
C      1  0.5181140000000  0.4666940000000  0.3951700000000 1.0
C      1  0.4666000000000  0.4840220000000  0.3983590000000 1.0
C      1  0.4818360000000  0.5344400000000  0.3964880000000 1.0
C      1  0.5347050000000  0.4826050000000  0.5997820000000 1.0
C      1  0.5164950000000  0.5321230000000  0.6006230000000 1.0
C      1  0.4651000000000  0.5164890000000  0.6036150000000 1.0
C      1  0.4829540000000  0.4656800000000  0.6002830000000 1.0
C      1  0.5010380000000  0.5775650000000  0.5105840000000 1.0
C      1  0.5878640000000  0.4912490000000  0.5107740000000 1.0
C      1  0.4942030000000  0.4169400000000  0.5124430000000 1.0
C      1  0.3975850000000  0.5147720000000  0.5070810000000 1.0
C      1  0.5077340000000  0.4166880000000  0.4870870000000 1.0
C      1  0.5871850000000  0.5035250000000  0.4849320000000 1.0
C      1  0.4846440000000  0.5826560000000  0.4879430000000 1.0
C      1  0.4088730000000  0.4956450000000  0.4892140000000 1.0
C      1  0.5114970000000  0.4349580000000  0.5262220000000 1.0
C      1  0.4149130000000  0.5135990000000  0.5280300000000 1.0
C      1  0.4822000000000  0.5622990000000  0.5263320000000 1.0
C      1  0.5748490000000  0.5118640000000  0.5256980000000 1.0
C      1  0.4904350000000  0.5633020000000  0.4695330000000 1.0
C      1  0.4324650000000  0.5096440000000  0.4809660000000 1.0
C      1  0.4915730000000  0.4358420000000  0.4733920000000 1.0
C      1  0.5703680000000  0.4846010000000  0.4713740000000 1.0
C      1  0.5961360000000  0.5647860000000  0.4271650000000 1.0
C      1  0.5673780000000  0.4056910000000  0.4295020000000 1.0
C      1  0.4078570000000  0.4349630000000  0.4342080000000 1.0
C      1  0.4333840000000  0.5956170000000  0.4269180000000 1.0
C      1  0.5967250000000  0.4327890000000  0.5700020000000 1.0
C      1  0.5637230000000  0.5938890000000  0.5680340000000 1.0
C      1  0.4041950000000  0.5708600000000  0.5680110000000 1.0
C      1  0.4359270000000  0.4045060000000  0.5707330000000 1.0
C      1  0.4672800000000  0.6042220000000  0.4940510000000 1.0
C      1  0.6065730000000  0.5256530000000  0.4909730000000 1.0
C      1  0.5296270000000  0.3982650000000  0.4938910000000 1.0
C      1  0.3984490000000  0.4709270000000  0.4998660000000 1.0
C      1  0.4731370000000  0.3974770000000  0.5059200000000 1.0
C      1  0.6068620000000  0.4697530000000  0.5046090000000 1.0
C      1  0.5253270000000  0.5925730000000  0.5031960000000 1.0
C      1  0.3841220000000  0.5373780000000  0.4973310000000 1.0
C      1  0.5381280000000  0.5119160000000  0.6029970000000 1.0
C      1  0.5133220000000  0.4622390000000  0.6027720000000 1.0
C      1  0.4620060000000  0.4865930000000  0.6020970000000 1.0
C      1  0.4867930000000  0.5371040000000  0.6052480000000 1.0
C      1  0.5394200000000  0.4874480000000  0.3927700000000 1.0
C      1  0.5127640000000  0.5370710000000  0.3946810000000 1.0
C      1  0.4615250000000  0.5132810000000  0.3959390000000 1.0
C      1  0.4879000000000  0.4634920000000  0.3958370000000 1.0
C      1  0.5261540000000  0.5279830000000  0.4872330000000 1.0
C      1  0.5272550000000  0.5025590000000  0.4755060000000 1.0
C      1  0.5020600000000  0.4880470000000  0.4779750000000 1.0
C      1  0.4840950000000  0.5103520000000  0.4842970000000 1.0
C      1  0.4995680000000  0.4778690000000  0.5227980000000 1.0
C      1  0.5202440000000  0.4966910000000  0.5241690000000 1.0
C      1  0.5063570000000  0.5208920000000  0.5254000000000 1.0
C      1  0.4714200000000  0.4808270000000  0.5170940000000 1.0
C      1  0.5493460000000  0.4587400000000  0.4833210000000 1.0
C      1  0.4664740000000  0.4495850000000  0.4817120000000 1.0
C      1  0.4432010000000  0.5373660000000  0.4884500000000 1.0
C      1  0.5507610000000  0.5407280000000  0.4894750000000 1.0
C      1  0.5623340000000  0.5362140000000  0.5157400000000 1.0
C      1  0.4563240000000  0.5493660000000  0.5180720000000 1.0
C      1  0.4598140000000  0.4563730000000  0.5089020000000 1.0
C      1  0.5402850000000  0.4488730000000  0.5118200000000 1.0
C      1  0.3779100000000  0.5300310000000  0.4695610000000 1.0
C      1  0.5226860000000  0.6065920000000  0.4777860000000 1.0
C      1  0.6194460000000  0.4749660000000  0.4774780000000 1.0
C      1  0.4778710000000  0.3854160000000  0.4790330000000 1.0
C      1  0.3864710000000  0.4747020000000  0.5269790000000 1.0
C      1  0.5250750000000  0.3853650000000  0.5202060000000 1.0
C      1  0.6203080000000  0.5204270000000  0.5177790000000 1.0
C      1  0.4745990000000  0.6160350000000  0.5199120000000 1.0
C      1  0.6042820000000  0.4538350000000  0.5511160000000 1.0
C      1  0.4574670000000  0.3979080000000  0.5520340000000 1.0
C      1  0.3934860000000  0.5494770000000  0.5512350000000 1.0
C      1  0.5422520000000  0.5975210000000  0.5486460000000 1.0
C      1  0.6037510000000  0.5434850000000  0.4457760000000 1.0
C      1  0.4545300000000  0.6018720000000  0.4464040000000 1.0
C      1  0.4013780000000  0.4567570000000  0.4525880000000 1.0
C      1  0.5458010000000  0.4000120000000  0.4481880000000 1.0
C      1  0.5096510000000  0.4998140000000  0.4354130000000 1.0
C      1  0.4830790000000  0.4976800000000  0.5588710000000 1.0
C      1  0.5002170000000  0.5288340000000  0.4995100000000 1.0
END
