TITL C-3201373-1215-633 1.05463435175735e-07 125000 -502.8156665929 0 0 83 (C1) n - 1
REM
REM in /home/nfs/bkarasulu/CARBON/AIRSS/Generating-Clusters/LCBOP/Higher-Symm/SD-CG/FIRE-CG
REM
REM
REM
REM
REM
REM ./C.cell (b20cbc046b6831c77cfcea5457e17084)
REM AIRSS Version 0.9.1 bugfix July 2018 build 013d7b7c2542+ Fri, 06 Jul 2018 19:26:36 +0100
REM compiler GCC version 9.2.1 20190827 (Red Hat 9.2.1-1)
REM options -cpp -mtune=generic -march=x86-64 -g -O0 -fpre-include=/usr/include/finclude/math-vector-fortran.h
REM seed 1147445724 -1529350760 873200278 1569238139 -711505918 -90474091 -473714808 -1605745538 -943804682 -747823893 -1469335769 -797010433 -1209051558 722568898 1947181338 119596405 -1713568420 -448784241 623980229 2032917750 824699152 90391098 -2044812666 1341713473 -1343333276 1804444694 -272309083 1453672000 -1796173207 397701711 -2094055084 1215945415 1524216762
REM
CELL 1.54180   50.00000   50.00000   50.00000   90.00000   90.00000   90.00000
LATT -1
SFAC C  
C      1  0.5442950000000  0.4968860000000  0.4300890000000 1.0
C      1  0.4561490000000  0.4833250000000  0.5631060000000 1.0
C      1  0.5141340000000  0.5702790000000  0.5413230000000 1.0
C      1  0.4867940000000  0.5612350000000  0.4560740000000 1.0
C      1  0.4980090000000  0.4698280000000  0.5230810000000 1.0
C      1  0.5110170000000  0.4727930000000  0.4776930000000 1.0
C      1  0.5434530000000  0.4477270000000  0.4525310000000 1.0
C      1  0.4571550000000  0.4355340000000  0.5409120000000 1.0
C      1  0.4741300000000  0.5166100000000  0.4709820000000 1.0
C      1  0.5232590000000  0.5233940000000  0.5257930000000 1.0
C      1  0.4248210000000  0.4589610000000  0.5008900000000 1.0
C      1  0.5702680000000  0.4592710000000  0.4996290000000 1.0
C      1  0.5207970000000  0.4997060000000  0.4819190000000 1.0
C      1  0.4774820000000  0.4878970000000  0.5126050000000 1.0
C      1  0.4924540000000  0.5324720000000  0.4191980000000 1.0
C      1  0.5122570000000  0.5452370000000  0.5791620000000 1.0
C      1  0.4849170000000  0.5842410000000  0.5028430000000 1.0
C      1  0.5319320000000  0.5944530000000  0.5047040000000 1.0
C      1  0.4704470000000  0.4906820000000  0.4844970000000 1.0
C      1  0.5336800000000  0.5052190000000  0.5066330000000 1.0
C      1  0.4770430000000  0.4190290000000  0.4755390000000 1.0
C      1  0.5260290000000  0.4151680000000  0.5381880000000 1.0
C      1  0.5763890000000  0.5230300000000  0.4542790000000 1.0
C      1  0.4307600000000  0.5209840000000  0.5458390000000 1.0
C      1  0.4964120000000  0.5681380000000  0.4819780000000 1.0
C      1  0.5082960000000  0.5888790000000  0.5200510000000 1.0
C      1  0.5023500000000  0.4190580000000  0.4659020000000 1.0
C      1  0.5000680000000  0.4116010000000  0.5429500000000 1.0
C      1  0.4330180000000  0.4957160000000  0.4541040000000 1.0
C      1  0.5672480000000  0.4976070000000  0.5454320000000 1.0
C      1  0.5575760000000  0.5550550000000  0.5185860000000 1.0
C      1  0.4469390000000  0.5546600000000  0.4842110000000 1.0
C      1  0.4498850000000  0.5627720000000  0.5312660000000 1.0
C      1  0.5498200000000  0.5577820000000  0.4714530000000 1.0
C      1  0.4554540000000  0.4568460000000  0.5592900000000 1.0
C      1  0.5464070000000  0.4706910000000  0.4356990000000 1.0
C      1  0.4846460000000  0.4728580000000  0.4659890000000 1.0
C      1  0.5105900000000  0.4748320000000  0.5480670000000 1.0
C      1  0.5739770000000  0.5337210000000  0.5071090000000 1.0
C      1  0.4296180000000  0.5341790000000  0.4961450000000 1.0
C      1  0.4859750000000  0.4566600000000  0.4203780000000 1.0
C      1  0.5208480000000  0.4796450000000  0.5950890000000 1.0
C      1  0.5770780000000  0.5077740000000  0.5191120000000 1.0
C      1  0.4252390000000  0.5080510000000  0.4820230000000 1.0
C      1  0.5364810000000  0.5476960000000  0.5388220000000 1.0
C      1  0.4639780000000  0.5436240000000  0.4639200000000 1.0
C      1  0.5489730000000  0.4272580000000  0.5319980000000 1.0
C      1  0.4524790000000  0.4297070000000  0.4831430000000 1.0
C      1  0.5513900000000  0.5225050000000  0.4393450000000 1.0
C      1  0.4557530000000  0.5077840000000  0.5490600000000 1.0
C      1  0.5458160000000  0.5071870000000  0.5634090000000 1.0
C      1  0.4567920000000  0.4967990000000  0.4349160000000 1.0
C      1  0.4596410000000  0.3903910000000  0.5579370000000 1.0
C      1  0.5059820000000  0.4386820000000  0.4229720000000 1.0
C      1  0.4950860000000  0.5620470000000  0.5620510000000 1.0
C      1  0.5062350000000  0.5494960000000  0.4378630000000 1.0
C      1  0.4086710000000  0.5159240000000  0.5609130000000 1.0
C      1  0.5999400000000  0.5122240000000  0.4461560000000 1.0
C      1  0.5197220000000  0.4316550000000  0.4470580000000 1.0
C      1  0.4723130000000  0.4122530000000  0.5473670000000 1.0
C      1  0.4580650000000  0.5734210000000  0.5055080000000 1.0
C      1  0.5480680000000  0.5727390000000  0.4965970000000 1.0
C      1  0.5707390000000  0.4688360000000  0.5465810000000 1.0
C      1  0.4251290000000  0.4671400000000  0.4531820000000 1.0
C      1  0.4677030000000  0.5638590000000  0.5539340000000 1.0
C      1  0.5344600000000  0.5461760000000  0.4470720000000 1.0
C      1  0.4960400000000  0.5303360000000  0.5200100000000 1.0
C      1  0.5007470000000  0.5425090000000  0.4940170000000 1.0
C      1  0.4314720000000  0.5403890000000  0.5254530000000 1.0
C      1  0.5721320000000  0.5380750000000  0.4780360000000 1.0
C      1  0.4749280000000  0.4741470000000  0.4393160000000 1.0
C      1  0.5254500000000  0.4870660000000  0.5690860000000 1.0
C      1  0.4315850000000  0.4480420000000  0.4729350000000 1.0
C      1  0.5649520000000  0.4494810000000  0.5263020000000 1.0
C      1  0.4754940000000  0.5116980000000  0.5282880000000 1.0
C      1  0.5026830000000  0.5206980000000  0.4755270000000 1.0
C      1  0.5596060000000  0.4474880000000  0.4760620000000 1.0
C      1  0.4457090000000  0.4386760000000  0.5159210000000 1.0
C      1  0.5813590000000  0.4857590000000  0.5004480000000 1.0
C      1  0.4180240000000  0.4863470000000  0.5005020000000 1.0
C      1  0.5375790000000  0.5352350000000  0.5671970000000 1.0
C      1  0.4695450000000  0.5175560000000  0.4198980000000 1.0
C      1  0.5119870000000  0.4575510000000  0.5017700000000 1.0
END
