TITL C-3201378-2706-875 -1.17297455590107e-06 125000 -749.265212220431 0 0 122 (C1) n - 1
REM
REM in /home/nfs/bkarasulu/CARBON/AIRSS/Generating-Clusters/LCBOP/Higher-Symm/SD-CG/FIRE-CG
REM
REM
REM
REM
REM
REM ./C.cell (b20cbc046b6831c77cfcea5457e17084)
REM AIRSS Version 0.9.1 bugfix July 2018 build 013d7b7c2542+ Fri, 06 Jul 2018 19:26:36 +0100
REM compiler GCC version 9.2.1 20190827 (Red Hat 9.2.1-1)
REM options -cpp -mtune=generic -march=x86-64 -g -O0 -fpre-include=/usr/include/finclude/math-vector-fortran.h
REM seed 1561167114 -1696390100 -1421360229 -1486191346 1598531993 -1262816406 453496030 368499296 -1340857951 -861964131 -733196958 -660359960 1836354076 -1252583109 1370047000 -903112655 -1918366717 -328966624 -2085911218 -524253571 -1957187459 -1470836945 -963440495 880482723 -3162823 -987292899 -1386521399 1080416706 -2131358725 -435248343 2048321846 -716500834 -1840828017
REM
CELL 1.54180   50.00000   50.00000   50.00000   90.00000   90.00000   90.00000
LATT -1
SFAC C  
C      1  0.4476500000000  0.4150850000000  0.4974660000000 1.0
C      1  0.4876100000000  0.4154450000000  0.4496290000000 1.0
C      1  0.5455780000000  0.4156470000000  0.4728440000000 1.0
C      1  0.5414190000000  0.4155830000000  0.5352060000000 1.0
C      1  0.4806700000000  0.4150740000000  0.5503520000000 1.0
C      1  0.5105030000000  0.5038890000000  0.4120770000000 1.0
C      1  0.5878540000000  0.5026410000000  0.4817480000000 1.0
C      1  0.5451230000000  0.5025160000000  0.5786610000000 1.0
C      1  0.4399570000000  0.5028810000000  0.5662190000000 1.0
C      1  0.4194180000000  0.5034280000000  0.4631500000000 1.0
C      1  0.5565240000000  0.4545920000000  0.5924410000000 1.0
C      1  0.4298980000000  0.4540600000000  0.5807990000000 1.0
C      1  0.4031910000000  0.4537220000000  0.4583580000000 1.0
C      1  0.5100440000000  0.4540020000000  0.3948580000000 1.0
C      1  0.6051310000000  0.4540270000000  0.4756800000000 1.0
C      1  0.5833870000000  0.5463620000000  0.4736620000000 1.0
C      1  0.5512090000000  0.5458590000000  0.5701510000000 1.0
C      1  0.4503590000000  0.5459240000000  0.5695310000000 1.0
C      1  0.4170070000000  0.5466380000000  0.4730980000000 1.0
C      1  0.5002530000000  0.5472490000000  0.4130420000000 1.0
C      1  0.5222850000000  0.4074770000000  0.4875530000000 1.0
C      1  0.5202720000000  0.4073500000000  0.5175350000000 1.0
C      1  0.4911220000000  0.4071170000000  0.5248030000000 1.0
C      1  0.4751990000000  0.4071590000000  0.4993660000000 1.0
C      1  0.4944390000000  0.4073890000000  0.4763590000000 1.0
C      1  0.4462790000000  0.5061490000000  0.4720290000000 1.0
C      1  0.5106420000000  0.5068340000000  0.4403640000000 1.0
C      1  0.5612250000000  0.5038490000000  0.4913440000000 1.0
C      1  0.5283880000000  0.5018420000000  0.5557760000000 1.0
C      1  0.4568480000000  0.5036480000000  0.5433000000000 1.0
C      1  0.4173440000000  0.4949430000000  0.4361330000000 1.0
C      1  0.5353660000000  0.4953050000000  0.4014400000000 1.0
C      1  0.6069880000000  0.4951870000000  0.5017680000000 1.0
C      1  0.5309730000000  0.4952770000000  0.6025560000000 1.0
C      1  0.4132850000000  0.4951370000000  0.5599640000000 1.0
C      1  0.5195400000000  0.5414640000000  0.5858230000000 1.0
C      1  0.4243660000000  0.5420890000000  0.5447400000000 1.0
C      1  0.4335940000000  0.5425620000000  0.4411370000000 1.0
C      1  0.5357870000000  0.5426800000000  0.4188610000000 1.0
C      1  0.5897430000000  0.5404870000000  0.5090200000000 1.0
C      1  0.4881600000000  0.5210220000000  0.4041900000000 1.0
C      1  0.5879500000000  0.5204750000000  0.4586280000000 1.0
C      1  0.5670190000000  0.5203680000000  0.5712890000000 1.0
C      1  0.4538010000000  0.5204850000000  0.5850090000000 1.0
C      1  0.4048870000000  0.5205620000000  0.4818110000000 1.0
C      1  0.4354160000000  0.5424090000000  0.5187200000000 1.0
C      1  0.4616990000000  0.5440520000000  0.4436400000000 1.0
C      1  0.5425800000000  0.5436100000000  0.4461830000000 1.0
C      1  0.5648920000000  0.5405840000000  0.5237530000000 1.0
C      1  0.4990200000000  0.5404220000000  0.5666260000000 1.0
C      1  0.4533110000000  0.4708580000000  0.5035770000000 1.0
C      1  0.4814630000000  0.4729240000000  0.4563120000000 1.0
C      1  0.5354490000000  0.4718220000000  0.4677580000000 1.0
C      1  0.5413510000000  0.4687500000000  0.5235760000000 1.0
C      1  0.4895650000000  0.4684100000000  0.5456060000000 1.0
C      1  0.5172410000000  0.5940040000000  0.5180020000000 1.0
C      1  0.4876010000000  0.5931290000000  0.5214360000000 1.0
C      1  0.4739050000000  0.5980120000000  0.4945430000000 1.0
C      1  0.4964240000000  0.6003690000000  0.4730710000000 1.0
C      1  0.5239080000000  0.5991410000000  0.4882600000000 1.0
C      1  0.5845580000000  0.4758260000000  0.5571370000000 1.0
C      1  0.4716320000000  0.4752910000000  0.5974410000000 1.0
C      1  0.3997970000000  0.4753360000000  0.5028580000000 1.0
C      1  0.4668990000000  0.4756740000000  0.4057350000000 1.0
C      1  0.5802350000000  0.4754940000000  0.4384690000000 1.0
C      1  0.5643540000000  0.4315420000000  0.4611180000000 1.0
C      1  0.5583700000000  0.4314740000000  0.5495040000000 1.0
C      1  0.4716520000000  0.4308910000000  0.5706320000000 1.0
C      1  0.4256030000000  0.4309520000000  0.4952210000000 1.0
C      1  0.4825110000000  0.4314160000000  0.4281280000000 1.0
C      1  0.3994100000000  0.5050540000000  0.5084580000000 1.0
C      1  0.4612900000000  0.5053020000000  0.4070770000000 1.0
C      1  0.5769640000000  0.5051600000000  0.4337550000000 1.0
C      1  0.5874580000000  0.5054240000000  0.5529830000000 1.0
C      1  0.4771350000000  0.5050370000000  0.5991070000000 1.0
C      1  0.4036040000000  0.5132470000000  0.5392930000000 1.0
C      1  0.4335120000000  0.5131890000000  0.4201980000000 1.0
C      1  0.5557440000000  0.5132590000000  0.4116170000000 1.0
C      1  0.6026200000000  0.5154910000000  0.5227020000000 1.0
C      1  0.5081460000000  0.5133280000000  0.6047990000000 1.0
C      1  0.4552760000000  0.5752720000000  0.4888440000000 1.0
C      1  0.4942990000000  0.5772500000000  0.4537560000000 1.0
C      1  0.5408270000000  0.5766060000000  0.4781280000000 1.0
C      1  0.5308570000000  0.5701930000000  0.5292900000000 1.0
C      1  0.4781880000000  0.5685890000000  0.5347980000000 1.0
C      1  0.4748710000000  0.5537190000000  0.4894680000000 1.0
C      1  0.4977050000000  0.5559180000000  0.4733060000000 1.0
C      1  0.5228360000000  0.5550430000000  0.4851780000000 1.0
C      1  0.5231710000000  0.5478940000000  0.5118070000000 1.0
C      1  0.4799810000000  0.5464230000000  0.5159130000000 1.0
C      1  0.5023400000000  0.5130100000000  0.5563260000000 1.0
C      1  0.4488770000000  0.5157890000000  0.5187560000000 1.0
C      1  0.4671390000000  0.5183320000000  0.4573040000000 1.0
C      1  0.5316910000000  0.5178250000000  0.4555950000000 1.0
C      1  0.5539810000000  0.5141160000000  0.5165770000000 1.0
C      1  0.5415170000000  0.4950310000000  0.5325070000000 1.0
C      1  0.4825570000000  0.4950530000000  0.5487080000000 1.0
C      1  0.4499110000000  0.4977560000000  0.4978620000000 1.0
C      1  0.4869270000000  0.4998150000000  0.4519910000000 1.0
C      1  0.5425730000000  0.4983670000000  0.4720630000000 1.0
C      1  0.4583600000000  0.4524510000000  0.5845790000000 1.0
C      1  0.4081900000000  0.4523670000000  0.4866130000000 1.0
C      1  0.4849450000000  0.4527120000000  0.4087230000000 1.0
C      1  0.5835460000000  0.4527050000000  0.4567330000000 1.0
C      1  0.5682370000000  0.4529900000000  0.5661850000000 1.0
C      1  0.5602220000000  0.5609170000000  0.4631960000000 1.0
C      1  0.5522660000000  0.5578780000000  0.5439720000000 1.0
C      1  0.4759400000000  0.5567870000000  0.5606090000000 1.0
C      1  0.4314210000000  0.5597930000000  0.4947920000000 1.0
C      1  0.4831880000000  0.5613120000000  0.4322910000000 1.0
C      1  0.5212420000000  0.4551570000000  0.5107040000000 1.0
C      1  0.4951990000000  0.4548230000000  0.5224030000000 1.0
C      1  0.4760820000000  0.4557090000000  0.5012870000000 1.0
C      1  0.4902150000000  0.4566340000000  0.4765940000000 1.0
C      1  0.5181250000000  0.4562890000000  0.4823500000000 1.0
C      1  0.5325180000000  0.4690160000000  0.3916130000000 1.0
C      1  0.6156950000000  0.4690270000000  0.4958640000000 1.0
C      1  0.5400020000000  0.4690510000000  0.6086810000000 1.0
C      1  0.4097300000000  0.4688710000000  0.5699200000000 1.0
C      1  0.4072600000000  0.4685630000000  0.4358690000000 1.0
C      1  0.5019050000000  0.5052450000000  0.5050010000000 1.0
C      1  0.5025080000000  0.5296430000000  0.5165840000000 1.0
END
