TITL C-3201378-2706-581 -2.47042214017853e-07 125000 -373.320807270921 0 0 66 (T23) n - 1
REM
REM in /home/nfs/bkarasulu/CARBON/AIRSS/Generating-Clusters/LCBOP/Higher-Symm/SD-CG/FIRE-CG
REM
REM
REM
REM
REM
REM ./C.cell (b20cbc046b6831c77cfcea5457e17084)
REM AIRSS Version 0.9.1 bugfix July 2018 build 013d7b7c2542+ Fri, 06 Jul 2018 19:26:36 +0100
REM compiler GCC version 9.2.1 20190827 (Red Hat 9.2.1-1)
REM options -cpp -mtune=generic -march=x86-64 -g -O0 -fpre-include=/usr/include/finclude/math-vector-fortran.h
REM seed -1716679309 -46907501 -1546274269 -174180616 -1762654263 -669358008 -1750972166 -269305498 -1788595439 2040473038 1723057033 270864488 -1283979509 276678609 717724551 1729931740 885517595 388505949 -1974582279 781193995 1569310952 649960093 -819558626 1048637638 1686783078 252993004 -1685191156 -1713963692 1900772261 1074641185 523128713 -1404625327 1784451021
REM
CELL 1.54180   50.00000   50.00000   50.00000   90.00000   90.00000   90.00000
LATT -1
SFAC C  
C      1  0.5568620000000  0.5445660000000  0.5005830000000 1.0
C      1  0.5443690000000  0.5012870000000  0.5563540000000 1.0
C      1  0.5010910000000  0.5570580000000  0.5438620000000 1.0
C      1  0.5568620000000  0.4563660000000  0.4989400000000 1.0
C      1  0.4436770000000  0.5445660000000  0.4989410000000 1.0
C      1  0.4436770000000  0.4563660000000  0.5005830000000 1.0
C      1  0.5443690000000  0.4996450000000  0.4431690000000 1.0
C      1  0.4561690000000  0.5012880000000  0.4431690000000 1.0
C      1  0.4561700000000  0.4996440000000  0.5563550000000 1.0
C      1  0.5010900000000  0.4438730000000  0.4556620000000 1.0
C      1  0.4994480000000  0.5570590000000  0.4556620000000 1.0
C      1  0.4994480000000  0.4438730000000  0.5438610000000 1.0
C      1  0.5924770000000  0.4840730000000  0.5190120000000 1.0
C      1  0.4838770000000  0.5197160000000  0.5919690000000 1.0
C      1  0.5195200000000  0.5926730000000  0.4833700000000 1.0
C      1  0.5924760000000  0.5168580000000  0.4805100000000 1.0
C      1  0.4080620000000  0.4840730000000  0.4805110000000 1.0
C      1  0.4080620000000  0.5168580000000  0.5190140000000 1.0
C      1  0.4838760000000  0.4812150000000  0.4075540000000 1.0
C      1  0.5166610000000  0.5197180000000  0.4075550000000 1.0
C      1  0.5166620000000  0.4812140000000  0.5919690000000 1.0
C      1  0.5195200000000  0.4082580000000  0.5161540000000 1.0
C      1  0.4810180000000  0.5926730000000  0.5161550000000 1.0
C      1  0.4810180000000  0.4082590000000  0.4833690000000 1.0
C      1  0.5088800000000  0.5252410000000  0.5787460000000 1.0
C      1  0.5250450000000  0.5794500000000  0.5083720000000 1.0
C      1  0.5792530000000  0.5090750000000  0.5245370000000 1.0
C      1  0.5088790000000  0.4756910000000  0.4207780000000 1.0
C      1  0.4916590000000  0.5252420000000  0.4207780000000 1.0
C      1  0.4916600000000  0.4756890000000  0.5787460000000 1.0
C      1  0.5250450000000  0.4214820000000  0.4911510000000 1.0
C      1  0.4754930000000  0.5794500000000  0.4911530000000 1.0
C      1  0.4754930000000  0.4214820000000  0.5083710000000 1.0
C      1  0.5792530000000  0.4918560000000  0.4749860000000 1.0
C      1  0.4212850000000  0.5090760000000  0.4749860000000 1.0
C      1  0.4212850000000  0.4918560000000  0.5245380000000 1.0
C      1  0.4972210000000  0.4716200000000  0.5501620000000 1.0
C      1  0.4714240000000  0.5508660000000  0.4967140000000 1.0
C      1  0.5506690000000  0.4974170000000  0.4709160000000 1.0
C      1  0.4972200000000  0.5293110000000  0.4493620000000 1.0
C      1  0.5033180000000  0.4716210000000  0.4493610000000 1.0
C      1  0.5033180000000  0.5293110000000  0.5501620000000 1.0
C      1  0.4714240000000  0.4500660000000  0.5028100000000 1.0
C      1  0.5291150000000  0.5508660000000  0.5028110000000 1.0
C      1  0.5291150000000  0.4500660000000  0.4967130000000 1.0
C      1  0.5506700000000  0.5035140000000  0.5286070000000 1.0
C      1  0.4498690000000  0.4974170000000  0.5286070000000 1.0
C      1  0.4498690000000  0.5035150000000  0.4709170000000 1.0
C      1  0.5811890000000  0.4712430000000  0.4957340000000 1.0
C      1  0.4710470000000  0.4964380000000  0.5806820000000 1.0
C      1  0.4962420000000  0.5813860000000  0.4705400000000 1.0
C      1  0.5811890000000  0.5296880000000  0.5037890000000 1.0
C      1  0.4193490000000  0.4712430000000  0.5037890000000 1.0
C      1  0.4193490000000  0.5296890000000  0.4957360000000 1.0
C      1  0.4710460000000  0.5044930000000  0.4188420000000 1.0
C      1  0.5294920000000  0.4964390000000  0.4188420000000 1.0
C      1  0.5294920000000  0.5044920000000  0.5806820000000 1.0
C      1  0.4962420000000  0.4195460000000  0.5289840000000 1.0
C      1  0.5042960000000  0.5813860000000  0.5289850000000 1.0
C      1  0.5042960000000  0.4195460000000  0.4705390000000 1.0
C      1  0.5002690000000  0.5004650000000  0.5388430000000 1.0
C      1  0.5002690000000  0.5395470000000  0.4997620000000 1.0
C      1  0.5393510000000  0.5004660000000  0.4997620000000 1.0
C      1  0.5002690000000  0.5004660000000  0.4606800000000 1.0
C      1  0.5002690000000  0.4613840000000  0.4997620000000 1.0
C      1  0.4611880000000  0.5004660000000  0.4997620000000 1.0
END
