TITL C-3201378-2706-391 3.38557922065366e-07 125000 -396.315918235336 0 0 65 (C1) n - 1
REM
REM in /home/nfs/bkarasulu/CARBON/AIRSS/Generating-Clusters/LCBOP/Higher-Symm/SD-CG/FIRE-CG
REM
REM
REM
REM
REM
REM ./C.cell (b20cbc046b6831c77cfcea5457e17084)
REM AIRSS Version 0.9.1 bugfix July 2018 build 013d7b7c2542+ Fri, 06 Jul 2018 19:26:36 +0100
REM compiler GCC version 9.2.1 20190827 (Red Hat 9.2.1-1)
REM options -cpp -mtune=generic -march=x86-64 -g -O0 -fpre-include=/usr/include/finclude/math-vector-fortran.h
REM seed 1969332702 -1024685884 501823857 -477772228 1209618675 -562043448 1558772355 -32532204 14900316 -1967327067 -2052474837 -947061017 -1264608025 -630376095 -1888305217 -710042789 2038607720 2081195404 483806 -484955136 -1159999521 -944608768 -402087464 -30746065 1681222240 -445629847 490066083 -1413196664 329123545 303682511 -412073701 1687247655 846625012
REM
CELL 1.54180   50.00000   50.00000   50.00000   90.00000   90.00000   90.00000
LATT -1
SFAC C  
C      1  0.4978710000000  0.5460970000000  0.5326000000000 1.0
C      1  0.5220300000000  0.4856920000000  0.5634820000000 1.0
C      1  0.5531280000000  0.5303150000000  0.5053550000000 1.0
C      1  0.5072050000000  0.4406940000000  0.4575520000000 1.0
C      1  0.4968530000000  0.4447860000000  0.5439030000000 1.0
C      1  0.4950060000000  0.5384710000000  0.4721230000000 1.0
C      1  0.5272520000000  0.5044970000000  0.4533520000000 1.0
C      1  0.4772430000000  0.5159370000000  0.5649430000000 1.0
C      1  0.4537160000000  0.5012140000000  0.4265430000000 1.0
C      1  0.5725490000000  0.4623450000000  0.4940350000000 1.0
C      1  0.4503420000000  0.4731540000000  0.5075860000000 1.0
C      1  0.4434960000000  0.5299760000000  0.4976860000000 1.0
C      1  0.5030960000000  0.5298820000000  0.5582200000000 1.0
C      1  0.5399760000000  0.5562960000000  0.4998060000000 1.0
C      1  0.5451180000000  0.4889740000000  0.5227660000000 1.0
C      1  0.5278980000000  0.4570320000000  0.4467850000000 1.0
C      1  0.4888350000000  0.5367810000000  0.4435300000000 1.0
C      1  0.4959620000000  0.4724230000000  0.5546860000000 1.0
C      1  0.5236550000000  0.4493380000000  0.5027860000000 1.0
C      1  0.4557060000000  0.5563070000000  0.4988080000000 1.0
C      1  0.4603660000000  0.4459300000000  0.5032870000000 1.0
C      1  0.5650060000000  0.5143840000000  0.4811450000000 1.0
C      1  0.4567290000000  0.4879790000000  0.4832710000000 1.0
C      1  0.4393740000000  0.5162930000000  0.5247840000000 1.0
C      1  0.5441290000000  0.5688270000000  0.4734980000000 1.0
C      1  0.4669020000000  0.5611600000000  0.5683980000000 1.0
C      1  0.5604960000000  0.4713790000000  0.5396450000000 1.0
C      1  0.5397050000000  0.4351530000000  0.5219070000000 1.0
C      1  0.4583060000000  0.4386010000000  0.4741510000000 1.0
C      1  0.4527140000000  0.5697120000000  0.5235680000000 1.0
C      1  0.4710570000000  0.4557860000000  0.4292020000000 1.0
C      1  0.5382090000000  0.4409590000000  0.5689740000000 1.0
C      1  0.5167310000000  0.5466350000000  0.4342750000000 1.0
C      1  0.5642550000000  0.5309290000000  0.4555300000000 1.0
C      1  0.4340910000000  0.5338300000000  0.5474280000000 1.0
C      1  0.4269530000000  0.4615170000000  0.4426740000000 1.0
C      1  0.5455990000000  0.4681470000000  0.5644450000000 1.0
C      1  0.4758260000000  0.5665100000000  0.5411380000000 1.0
C      1  0.5683060000000  0.5586460000000  0.4613210000000 1.0
C      1  0.5393620000000  0.5263380000000  0.4388580000000 1.0
C      1  0.4486730000000  0.4733460000000  0.4281810000000 1.0
C      1  0.4552120000000  0.5343390000000  0.5681340000000 1.0
C      1  0.4793370000000  0.4418890000000  0.4528220000000 1.0
C      1  0.5248600000000  0.5703230000000  0.4511670000000 1.0
C      1  0.5236160000000  0.4317480000000  0.5461290000000 1.0
C      1  0.5656810000000  0.4499710000000  0.5203450000000 1.0
C      1  0.4290290000000  0.5607080000000  0.5376990000000 1.0
C      1  0.4319870000000  0.4433490000000  0.4626850000000 1.0
C      1  0.4501350000000  0.5143650000000  0.4737540000000 1.0
C      1  0.5630820000000  0.4840800000000  0.4766180000000 1.0
C      1  0.5133170000000  0.4327360000000  0.4833050000000 1.0
C      1  0.4519360000000  0.4903460000000  0.5304840000000 1.0
C      1  0.5439020000000  0.5163580000000  0.5302670000000 1.0
C      1  0.4771330000000  0.4366870000000  0.5245640000000 1.0
C      1  0.4799680000000  0.5580900000000  0.4850010000000 1.0
C      1  0.4622540000000  0.5207700000000  0.4458390000000 1.0
C      1  0.5196980000000  0.5617280000000  0.5188320000000 1.0
C      1  0.4730630000000  0.4902680000000  0.5515930000000 1.0
C      1  0.5413860000000  0.4799110000000  0.4567870000000 1.0
C      1  0.5266350000000  0.5138900000000  0.5550460000000 1.0
C      1  0.4927660000000  0.5201910000000  0.5148530000000 1.0
C      1  0.5127030000000  0.5158110000000  0.4750530000000 1.0
C      1  0.5236600000000  0.4782220000000  0.5070130000000 1.0
C      1  0.4841740000000  0.4827330000000  0.4811830000000 1.0
C      1  0.5039240000000  0.4981400000000  0.4966450000000 1.0
END
