TITL C-3201373-1215-1855 -0.0758252193563997 125000 -783.516131223332 0 0 130 (C1) n - 1
REM
REM in /home/nfs/bkarasulu/CARBON/AIRSS/Generating-Clusters/LCBOP/Higher-Symm/SD-CG/FIRE-CG
REM
REM
REM
REM
REM
REM ./C.cell (b20cbc046b6831c77cfcea5457e17084)
REM AIRSS Version 0.9.1 bugfix July 2018 build 013d7b7c2542+ Fri, 06 Jul 2018 19:26:36 +0100
REM compiler GCC version 9.2.1 20190827 (Red Hat 9.2.1-1)
REM options -cpp -mtune=generic -march=x86-64 -g -O0 -fpre-include=/usr/include/finclude/math-vector-fortran.h
REM seed -764318745 1285708268 2073837269 2025505628 1352445306 1357830117 -571547575 -1211726450 589749438 -316823324 -1681982262 -1281552129 -2112211964 -1543302912 -1203408394 -73284401 1006471779 -627377174 291139084 686803323 -569772454 -934040639 -130660347 -108245005 -1252539907 873119604 -1422618496 1631676834 1296350539 -1666584226 -1410014582 -946302224 270111966
REM
CELL 1.54180   50.00000   50.00000   50.00000   90.00000   90.00000   90.00000
LATT -1
SFAC C  
C      1  0.5291340000000  0.5544130000000  0.4194820000000 1.0
C      1  0.5816550000000  0.5568990000000  0.5273640000000 1.0
C      1  0.4710300000000  0.5527720000000  0.5787830000000 1.0
C      1  0.4249660000000  0.5557950000000  0.4709210000000 1.0
C      1  0.5288360000000  0.4481440000000  0.4217770000000 1.0
C      1  0.5789770000000  0.4459040000000  0.5336310000000 1.0
C      1  0.4696400000000  0.4433600000000  0.5810590000000 1.0
C      1  0.4248660000000  0.4427250000000  0.4709500000000 1.0
C      1  0.4660290000000  0.4853240000000  0.5004090000000 1.0
C      1  0.5012350000000  0.4856600000000  0.4690650000000 1.0
C      1  0.5315270000000  0.4816500000000  0.5053010000000 1.0
C      1  0.4960840000000  0.4836760000000  0.5369890000000 1.0
C      1  0.4665950000000  0.5154030000000  0.5009810000000 1.0
C      1  0.5018360000000  0.5151780000000  0.4705090000000 1.0
C      1  0.5335500000000  0.5100240000000  0.5072750000000 1.0
C      1  0.4970900000000  0.5138100000000  0.5371910000000 1.0
C      1  0.5301860000000  0.5507630000000  0.4914140000000 1.0
C      1  0.5115570000000  0.5840130000000  0.5215240000000 1.0
C      1  0.4619530000000  0.5781790000000  0.4896500000000 1.0
C      1  0.4875150000000  0.5662140000000  0.4852810000000 1.0
C      1  0.5279670000000  0.4354640000000  0.5106160000000 1.0
C      1  0.5211170000000  0.4130580000000  0.5275070000000 1.0
C      1  0.4630620000000  0.4230150000000  0.4901110000000 1.0
C      1  0.4873120000000  0.4361270000000  0.4828540000000 1.0
C      1  0.5624620000000  0.5348080000000  0.3817920000000 1.0
C      1  0.6284000000000  0.5395200000000  0.5456480000000 1.0
C      1  0.4364690000000  0.5350160000000  0.6158530000000 1.0
C      1  0.3877180000000  0.5356730000000  0.4384630000000 1.0
C      1  0.5618640000000  0.4640040000000  0.3823820000000 1.0
C      1  0.6245360000000  0.4672600000000  0.5520460000000 1.0
C      1  0.4366400000000  0.4634420000000  0.6182080000000 1.0
C      1  0.3878730000000  0.4628210000000  0.4382080000000 1.0
C      1  0.4971510000000  0.6044920000000  0.5073540000000 1.0
C      1  0.4675600000000  0.5957240000000  0.5122310000000 1.0
C      1  0.4951090000000  0.5824360000000  0.4618340000000 1.0
C      1  0.5151540000000  0.5993590000000  0.4742850000000 1.0
C      1  0.5012570000000  0.3998970000000  0.5104920000000 1.0
C      1  0.4715590000000  0.4081750000000  0.5137030000000 1.0
C      1  0.4956270000000  0.4176050000000  0.4619920000000 1.0
C      1  0.5166100000000  0.4039680000000  0.4768150000000 1.0
C      1  0.5422810000000  0.5115140000000  0.5544840000000 1.0
C      1  0.4490650000000  0.5144800000000  0.5451430000000 1.0
C      1  0.4573810000000  0.5159110000000  0.4532050000000 1.0
C      1  0.5483160000000  0.5140520000000  0.4599130000000 1.0
C      1  0.5412870000000  0.4816870000000  0.5535950000000 1.0
C      1  0.4484450000000  0.4844760000000  0.5448100000000 1.0
C      1  0.4565490000000  0.4859730000000  0.4526850000000 1.0
C      1  0.5478810000000  0.4845610000000  0.4600080000000 1.0
C      1  0.5285170000000  0.5240880000000  0.4811860000000 1.0
C      1  0.5252060000000  0.5202730000000  0.5328300000000 1.0
C      1  0.4713350000000  0.5233310000000  0.5284770000000 1.0
C      1  0.4747290000000  0.5240780000000  0.4748610000000 1.0
C      1  0.5265570000000  0.4757060000000  0.4770630000000 1.0
C      1  0.5230220000000  0.4740450000000  0.5323530000000 1.0
C      1  0.4701560000000  0.4757470000000  0.5275980000000 1.0
C      1  0.4739210000000  0.4773360000000  0.4739340000000 1.0
C      1  0.4887950000000  0.4842830000000  0.4168140000000 1.0
C      1  0.5804750000000  0.4820700000000  0.4926230000000 1.0
C      1  0.5092330000000  0.4783700000000  0.5875410000000 1.0
C      1  0.4162660000000  0.4813180000000  0.5102660000000 1.0
C      1  0.4893980000000  0.5167760000000  0.4167720000000 1.0
C      1  0.5815980000000  0.5195290000000  0.4903450000000 1.0
C      1  0.5092360000000  0.5142730000000  0.5877530000000 1.0
C      1  0.4165580000000  0.5178310000000  0.5103710000000 1.0
C      1  0.4975470000000  0.5415960000000  0.5815290000000 1.0
C      1  0.4223750000000  0.5455830000000  0.4986580000000 1.0
C      1  0.5019500000000  0.5440450000000  0.4173420000000 1.0
C      1  0.5750950000000  0.5485820000000  0.5005130000000 1.0
C      1  0.4968800000000  0.4518260000000  0.5819430000000 1.0
C      1  0.4223410000000  0.4534450000000  0.4985420000000 1.0
C      1  0.5013530000000  0.4571490000000  0.4184480000000 1.0
C      1  0.5725060000000  0.4546200000000  0.5063930000000 1.0
C      1  0.5516290000000  0.4362980000000  0.4940230000000 1.0
C      1  0.5156640000000  0.4314990000000  0.5725820000000 1.0
C      1  0.4310920000000  0.4341380000000  0.5198410000000 1.0
C      1  0.4811910000000  0.4359900000000  0.4212910000000 1.0
C      1  0.5539900000000  0.5656510000000  0.4858260000000 1.0
C      1  0.5182760000000  0.5606360000000  0.5743420000000 1.0
C      1  0.4307670000000  0.5651230000000  0.5199410000000 1.0
C      1  0.4812490000000  0.5645520000000  0.4206550000000 1.0
C      1  0.4607090000000  0.5239530000000  0.4255220000000 1.0
C      1  0.5758410000000  0.5231190000000  0.4612180000000 1.0
C      1  0.5386900000000  0.5195580000000  0.5821960000000 1.0
C      1  0.4217960000000  0.5231320000000  0.5397200000000 1.0
C      1  0.4598400000000  0.4776890000000  0.4250860000000 1.0
C      1  0.5751680000000  0.4751900000000  0.4637850000000 1.0
C      1  0.5382450000000  0.4725100000000  0.5810190000000 1.0
C      1  0.4211170000000  0.4760060000000  0.5396740000000 1.0
C      1  0.5329660000000  0.4206060000000  0.5526710000000 1.0
C      1  0.4531650000000  0.4199750000000  0.5333560000000 1.0
C      1  0.4718360000000  0.4213690000000  0.4439700000000 1.0
C      1  0.5415290000000  0.4208220000000  0.4703760000000 1.0
C      1  0.5409140000000  0.5680860000000  0.5619200000000 1.0
C      1  0.4524280000000  0.5806690000000  0.5330320000000 1.0
C      1  0.4716780000000  0.5768250000000  0.4443680000000 1.0
C      1  0.5418900000000  0.5853680000000  0.4662090000000 1.0
C      1  0.4016860000000  0.5135310000000  0.5576460000000 1.0
C      1  0.4404800000000  0.5150650000000  0.4071380000000 1.0
C      1  0.5944060000000  0.5115740000000  0.4430100000000 1.0
C      1  0.5573790000000  0.5090690000000  0.6010480000000 1.0
C      1  0.4012600000000  0.4861120000000  0.5575680000000 1.0
C      1  0.4400490000000  0.4875910000000  0.4067690000000 1.0
C      1  0.5942770000000  0.4842230000000  0.4446810000000 1.0
C      1  0.5573240000000  0.4816810000000  0.6001540000000 1.0
C      1  0.5617940000000  0.5662830000000  0.5451940000000 1.0
C      1  0.4635180000000  0.5705170000000  0.5573480000000 1.0
C      1  0.4481560000000  0.5724360000000  0.4644690000000 1.0
C      1  0.5389660000000  0.5730790000000  0.4393960000000 1.0
C      1  0.5600700000000  0.4304540000000  0.5491850000000 1.0
C      1  0.4606700000000  0.4272470000000  0.5594770000000 1.0
C      1  0.4481270000000  0.4259330000000  0.4647340000000 1.0
C      1  0.5395720000000  0.4334950000000  0.4442740000000 1.0
C      1  0.5462190000000  0.4519890000000  0.4000860000000 1.0
C      1  0.6038180000000  0.4524830000000  0.5445880000000 1.0
C      1  0.4521560000000  0.4494340000000  0.6019110000000 1.0
C      1  0.4050270000000  0.4480580000000  0.4520540000000 1.0
C      1  0.5469860000000  0.5479420000000  0.3988250000000 1.0
C      1  0.6078830000000  0.5536390000000  0.5364750000000 1.0
C      1  0.4522600000000  0.5479770000000  0.5989650000000 1.0
C      1  0.4049500000000  0.5504230000000  0.4522250000000 1.0
C      1  0.6379000000000  0.4900110000000  0.5550160000000 1.0
C      1  0.4268660000000  0.4862640000000  0.6276190000000 1.0
C      1  0.3774700000000  0.4859680000000  0.4303730000000 1.0
C      1  0.5719620000000  0.4859240000000  0.3712920000000 1.0
C      1  0.6395220000000  0.5164210000000  0.5526140000000 1.0
C      1  0.4267690000000  0.5128170000000  0.6267180000000 1.0
C      1  0.3773970000000  0.5125360000000  0.4304880000000 1.0
C      1  0.5721670000000  0.5125020000000  0.3711420000000 1.0
C      1  0.5048820000000  0.4472560000000  0.5003690000000 1.0
C      1  0.5082960000000  0.5616480000000  0.5038760000000 1.0
END
