TITL C-3201375-1262-1507 756343.651959106 125000 -744.978870048688 0 0 121 (C2) n - 1
REM
REM in /home/nfs/bkarasulu/CARBON/AIRSS/Generating-Clusters/LCBOP/Higher-Symm/SD-CG/FIRE-CG
REM
REM
REM
REM
REM
REM ./C.cell (b20cbc046b6831c77cfcea5457e17084)
REM AIRSS Version 0.9.1 bugfix July 2018 build 013d7b7c2542+ Fri, 06 Jul 2018 19:26:36 +0100
REM compiler GCC version 9.2.1 20190827 (Red Hat 9.2.1-1)
REM options -cpp -mtune=generic -march=x86-64 -g -O0 -fpre-include=/usr/include/finclude/math-vector-fortran.h
REM seed -2114892374 -279185448 -1135115441 -114614057 -630521157 -125064831 1235264417 -1387516306 -2119179942 -1506343155 717570788 1893034876 1013665271 1516719702 -164000131 -98014544 361941902 637777302 -192665573 1051984857 387381627 1061107677 -162428051 -1960695638 -1059792310 -248692319 -566714552 2059428767 132564438 -597612934 2118357843 371753862 -410535672
REM
CELL 1.54180   50.00000   50.00000   50.00000   90.00000   90.00000   90.00000
LATT -1
SFAC C  
C      1  0.5480140000000  0.5006810000000  0.4123400000000 1.0
C      1  0.4755710000000  0.4591000000000  0.4142750000000 1.0
C      1  0.4756950000000  0.5425800000000  0.4134420000000 1.0
C      1  0.5490530000000  0.5002270000000  0.5863510000000 1.0
C      1  0.4766120000000  0.5419080000000  0.5874100000000 1.0
C      1  0.4768280000000  0.4583730000000  0.5855010000000 1.0
C      1  0.4518520000000  0.4988130000000  0.5863560000000 1.0
C      1  0.5242130000000  0.5423790000000  0.5847380000000 1.0
C      1  0.5260670000000  0.4579610000000  0.5871970000000 1.0
C      1  0.4505870000000  0.5015360000000  0.4125980000000 1.0
C      1  0.5230800000000  0.4576940000000  0.4133960000000 1.0
C      1  0.5246250000000  0.5421410000000  0.4150330000000 1.0
C      1  0.5153390000000  0.5258360000000  0.6084120000000 1.0
C      1  0.5156230000000  0.4748910000000  0.6092880000000 1.0
C      1  0.4714710000000  0.4997350000000  0.6091120000000 1.0
C      1  0.5140530000000  0.4751500000000  0.3906480000000 1.0
C      1  0.5147220000000  0.5261910000000  0.3913600000000 1.0
C      1  0.4704600000000  0.5009620000000  0.3904980000000 1.0
C      1  0.4847730000000  0.4756080000000  0.3912760000000 1.0
C      1  0.4855410000000  0.5263330000000  0.3907060000000 1.0
C      1  0.5293150000000  0.5002920000000  0.3893360000000 1.0
C      1  0.4856120000000  0.5255240000000  0.6104210000000 1.0
C      1  0.4865090000000  0.4746070000000  0.6084990000000 1.0
C      1  0.5300530000000  0.5006370000000  0.6090800000000 1.0
C      1  0.4917280000000  0.4690510000000  0.5225480000000 1.0
C      1  0.4845530000000  0.5201390000000  0.5165360000000 1.0
C      1  0.5368080000000  0.4972900000000  0.5270650000000 1.0
C      1  0.4793030000000  0.5304900000000  0.4727150000000 1.0
C      1  0.4773990000000  0.4773310000000  0.4772280000000 1.0
C      1  0.5252310000000  0.4966590000000  0.4832320000000 1.0
C      1  0.5153520000000  0.5277580000000  0.4710370000000 1.0
C      1  0.5254620000000  0.4679870000000  0.4661230000000 1.0
C      1  0.4607140000000  0.5014020000000  0.4676050000000 1.0
C      1  0.5209100000000  0.4666440000000  0.5321860000000 1.0
C      1  0.5164220000000  0.5271420000000  0.5287300000000 1.0
C      1  0.4596090000000  0.5059990000000  0.5336330000000 1.0
C      1  0.5753540000000  0.5275260000000  0.5240660000000 1.0
C      1  0.4883350000000  0.4208370000000  0.5217090000000 1.0
C      1  0.4383130000000  0.5506940000000  0.5190670000000 1.0
C      1  0.5748230000000  0.4718620000000  0.4807540000000 1.0
C      1  0.4862010000000  0.5789560000000  0.4756710000000 1.0
C      1  0.4373540000000  0.4502920000000  0.4780290000000 1.0
C      1  0.4220440000000  0.4732390000000  0.4831880000000 1.0
C      1  0.5129550000000  0.5794930000000  0.4815380000000 1.0
C      1  0.5642440000000  0.4464840000000  0.4845100000000 1.0
C      1  0.4215850000000  0.5288230000000  0.5153080000000 1.0
C      1  0.5158780000000  0.4190780000000  0.5165820000000 1.0
C      1  0.5624620000000  0.5509190000000  0.5181890000000 1.0
C      1  0.5249340000000  0.5784140000000  0.5280380000000 1.0
C      1  0.5595020000000  0.4356060000000  0.5334660000000 1.0
C      1  0.4162270000000  0.4828740000000  0.5329010000000 1.0
C      1  0.5271340000000  0.4188640000000  0.4668500000000 1.0
C      1  0.5555000000000  0.5607590000000  0.4717200000000 1.0
C      1  0.4145330000000  0.5193070000000  0.4663410000000 1.0
C      1  0.4753990000000  0.4224940000000  0.4697710000000 1.0
C      1  0.4417530000000  0.5633790000000  0.4684990000000 1.0
C      1  0.5796130000000  0.5170470000000  0.4720820000000 1.0
C      1  0.4750310000000  0.5774610000000  0.5276600000000 1.0
C      1  0.4452390000000  0.4398930000000  0.5299910000000 1.0
C      1  0.5840630000000  0.4812230000000  0.5313150000000 1.0
C      1  0.4363200000000  0.5551330000000  0.4414740000000 1.0
C      1  0.5751520000000  0.5261010000000  0.4451440000000 1.0
C      1  0.4847070000000  0.4204640000000  0.4427720000000 1.0
C      1  0.4388260000000  0.4469420000000  0.5569940000000 1.0
C      1  0.5796190000000  0.4724020000000  0.5583380000000 1.0
C      1  0.4850970000000  0.5781270000000  0.5546100000000 1.0
C      1  0.5668290000000  0.4461910000000  0.5595850000000 1.0
C      1  0.4217890000000  0.4705830000000  0.5586560000000 1.0
C      1  0.5142530000000  0.5798700000000  0.5546710000000 1.0
C      1  0.5620960000000  0.5522320000000  0.4450850000000 1.0
C      1  0.4200220000000  0.5309500000000  0.4402250000000 1.0
C      1  0.5137010000000  0.4175400000000  0.4411010000000 1.0
C      1  0.4556350000000  0.4411360000000  0.5789460000000 1.0
C      1  0.4725350000000  0.5680840000000  0.5780710000000 1.0
C      1  0.5745070000000  0.4903600000000  0.5796690000000 1.0
C      1  0.4544240000000  0.5596870000000  0.4201360000000 1.0
C      1  0.4712620000000  0.4321210000000  0.4208240000000 1.0
C      1  0.5727320000000  0.5102140000000  0.4216800000000 1.0
C      1  0.5463380000000  0.5585990000000  0.4223480000000 1.0
C      1  0.5258720000000  0.4300480000000  0.4185400000000 1.0
C      1  0.4255780000000  0.5134970000000  0.4182560000000 1.0
C      1  0.5489310000000  0.4422820000000  0.5815520000000 1.0
C      1  0.5276370000000  0.5694050000000  0.5774130000000 1.0
C      1  0.4265240000000  0.4873870000000  0.5812110000000 1.0
C      1  0.4854440000000  0.5246600000000  0.5659660000000 1.0
C      1  0.5299790000000  0.4999490000000  0.5630970000000 1.0
C      1  0.4857010000000  0.4747710000000  0.5612610000000 1.0
C      1  0.4853460000000  0.4749790000000  0.4385140000000 1.0
C      1  0.5286700000000  0.4997040000000  0.4337920000000 1.0
C      1  0.4850050000000  0.5259180000000  0.4366880000000 1.0
C      1  0.5150300000000  0.4737840000000  0.4390740000000 1.0
C      1  0.4688640000000  0.4998520000000  0.4368840000000 1.0
C      1  0.5150200000000  0.5254070000000  0.4396580000000 1.0
C      1  0.5145320000000  0.5256870000000  0.5601120000000 1.0
C      1  0.4698260000000  0.4998800000000  0.5606880000000 1.0
C      1  0.5154800000000  0.4729380000000  0.5628990000000 1.0
C      1  0.4665580000000  0.4487400000000  0.4837910000000 1.0
C      1  0.4685260000000  0.5562650000000  0.4813220000000 1.0
C      1  0.5615640000000  0.4976790000000  0.4874410000000 1.0
C      1  0.4672640000000  0.5521160000000  0.5123460000000 1.0
C      1  0.4723910000000  0.4453680000000  0.5159740000000 1.0
C      1  0.5645210000000  0.5008290000000  0.5184550000000 1.0
C      1  0.5319730000000  0.5508850000000  0.5161470000000 1.0
C      1  0.5321260000000  0.4393010000000  0.5273850000000 1.0
C      1  0.4316880000000  0.5058320000000  0.5273560000000 1.0
C      1  0.5392840000000  0.4437230000000  0.4724150000000 1.0
C      1  0.5281420000000  0.5530910000000  0.4836140000000 1.0
C      1  0.4314210000000  0.4974360000000  0.4724120000000 1.0
C      1  0.5919820000000  0.5361040000000  0.4887750000000 1.0
C      1  0.4866830000000  0.4030900000000  0.4863510000000 1.0
C      1  0.4198430000000  0.5623620000000  0.4856390000000 1.0
C      1  0.5941140000000  0.4616930000000  0.5141380000000 1.0
C      1  0.4852970000000  0.5976980000000  0.5110450000000 1.0
C      1  0.4227870000000  0.4399710000000  0.5134200000000 1.0
C      1  0.4112600000000  0.4663520000000  0.5102210000000 1.0
C      1  0.5133570000000  0.5944870000000  0.5071710000000 1.0
C      1  0.5764950000000  0.4392770000000  0.5107030000000 1.0
C      1  0.4092010000000  0.5358400000000  0.4890960000000 1.0
C      1  0.5153200000000  0.4062940000000  0.4895340000000 1.0
C      1  0.5752240000000  0.5587450000000  0.4925980000000 1.0
C      1  0.4945610000000  0.4905000000000  0.4998840000000 1.0
END
