TITL C-3201372-1405-1730 178.12191846168 125000 -977.196874307795 0 0 160 (C1) n - 1
REM
REM in /home/nfs/bkarasulu/CARBON/AIRSS/Generating-Clusters/LCBOP/Higher-Symm/SD-CG/FIRE-CG
REM
REM
REM
REM
REM
REM ./C.cell (b20cbc046b6831c77cfcea5457e17084)
REM AIRSS Version 0.9.1 bugfix July 2018 build 013d7b7c2542+ Fri, 06 Jul 2018 19:26:36 +0100
REM compiler GCC version 9.2.1 20190827 (Red Hat 9.2.1-1)
REM options -cpp -mtune=generic -march=x86-64 -g -O0 -fpre-include=/usr/include/finclude/math-vector-fortran.h
REM seed -1625353997 -11348431 458819919 -520830197 2109535472 1798619212 1866448079 1350753430 -858945256 -1758734072 -1153535428 -622034730 593233758 1057860550 -971196134 -248993981 1588395302 -373885203 971564017 2050952003 845698953 164342139 401909232 499537744 1328830166 -144793033 1511172943 -1835377180 1695398704 706980992 989472856 410827557 -658850645
REM
CELL 1.54180   50.00000   50.00000   50.00000   90.00000   90.00000   90.00000
LATT -1
SFAC C  
C      1  0.4275540000000  0.5065590000000  0.4915110000000 1.0
C      1  0.4317260000000  0.4862320000000  0.5101520000000 1.0
C      1  0.4422130000000  0.4990320000000  0.4682280000000 1.0
C      1  0.5655510000000  0.5399700000000  0.5217110000000 1.0
C      1  0.5617240000000  0.4967710000000  0.4973120000000 1.0
C      1  0.5576440000000  0.5055310000000  0.4710840000000 1.0
C      1  0.5294500000000  0.4998110000000  0.3601980000000 1.0
C      1  0.5034430000000  0.6498420000000  0.5774080000000 1.0
C      1  0.5044920000000  0.3725510000000  0.5703330000000 1.0
C      1  0.4786810000000  0.4898870000000  0.3567730000000 1.0
C      1  0.4579660000000  0.6263550000000  0.5735250000000 1.0
C      1  0.4544950000000  0.3834660000000  0.5648890000000 1.0
C      1  0.4300560000000  0.4454970000000  0.5334260000000 1.0
C      1  0.4465720000000  0.4921480000000  0.4206420000000 1.0
C      1  0.4235440000000  0.5703120000000  0.5391040000000 1.0
C      1  0.5930450000000  0.4508480000000  0.5163360000000 1.0
C      1  0.5658240000000  0.5013950000000  0.4229770000000 1.0
C      1  0.5235790000000  0.5940060000000  0.5554840000000 1.0
C      1  0.4582720000000  0.4810020000000  0.3741090000000 1.0
C      1  0.4505350000000  0.6001550000000  0.5665210000000 1.0
C      1  0.4413820000000  0.4084290000000  0.5648440000000 1.0
C      1  0.5497340000000  0.4907090000000  0.3776890000000 1.0
C      1  0.5287280000000  0.6392300000000  0.5708890000000 1.0
C      1  0.5290940000000  0.3846530000000  0.5639320000000 1.0
C      1  0.4677330000000  0.4351190000000  0.6031070000000 1.0
C      1  0.4689970000000  0.4299570000000  0.3854880000000 1.0
C      1  0.4579740000000  0.6066750000000  0.5181560000000 1.0
C      1  0.5330900000000  0.4229870000000  0.6007910000000 1.0
C      1  0.5349590000000  0.4386780000000  0.3856890000000 1.0
C      1  0.5234790000000  0.6286410000000  0.5220180000000 1.0
C      1  0.4911550000000  0.4745470000000  0.4178060000000 1.0
C      1  0.4699220000000  0.5518290000000  0.5227840000000 1.0
C      1  0.4825950000000  0.4441710000000  0.5371560000000 1.0
C      1  0.5172300000000  0.4817540000000  0.4268410000000 1.0
C      1  0.4972640000000  0.5567190000000  0.5306250000000 1.0
C      1  0.5085420000000  0.4500460000000  0.5296820000000 1.0
C      1  0.4318870000000  0.5361490000000  0.4390000000000 1.0
C      1  0.4290750000000  0.5271640000000  0.5630650000000 1.0
C      1  0.4143040000000  0.4496710000000  0.4850270000000 1.0
C      1  0.5834420000000  0.5452090000000  0.4571570000000 1.0
C      1  0.5916590000000  0.5129020000000  0.5547200000000 1.0
C      1  0.5973700000000  0.4451890000000  0.4684210000000 1.0
C      1  0.5498810000000  0.4623820000000  0.3812150000000 1.0
C      1  0.5293620000000  0.6208280000000  0.5490700000000 1.0
C      1  0.5399540000000  0.4034940000000  0.5816730000000 1.0
C      1  0.4549370000000  0.4532610000000  0.3777860000000 1.0
C      1  0.4426950000000  0.5926540000000  0.5396030000000 1.0
C      1  0.4472250000000  0.4245880000000  0.5870890000000 1.0
C      1  0.5408960000000  0.5564400000000  0.3860540000000 1.0
C      1  0.5516770000000  0.6043660000000  0.6280280000000 1.0
C      1  0.5107990000000  0.3673660000000  0.4964770000000 1.0
C      1  0.4659790000000  0.5486240000000  0.3834290000000 1.0
C      1  0.4895920000000  0.5645460000000  0.6212780000000 1.0
C      1  0.4378360000000  0.3829010000000  0.5021850000000 1.0
C      1  0.5156580000000  0.5645130000000  0.3833850000000 1.0
C      1  0.5354310000000  0.5844980000000  0.6350870000000 1.0
C      1  0.4852080000000  0.3659620000000  0.4892980000000 1.0
C      1  0.4892260000000  0.5615450000000  0.3824590000000 1.0
C      1  0.5131200000000  0.5703010000000  0.6322370000000 1.0
C      1  0.4592160000000  0.3712390000000  0.4914530000000 1.0
C      1  0.4974030000000  0.6396730000000  0.5193170000000 1.0
C      1  0.5121850000000  0.4164330000000  0.6185410000000 1.0
C      1  0.5162830000000  0.4291310000000  0.3669910000000 1.0
C      1  0.4722780000000  0.6307890000000  0.5237610000000 1.0
C      1  0.4855550000000  0.4194240000000  0.6180280000000 1.0
C      1  0.4904330000000  0.4224290000000  0.3689990000000 1.0
C      1  0.4667790000000  0.4198650000000  0.4121830000000 1.0
C      1  0.4652770000000  0.5981430000000  0.4915640000000 1.0
C      1  0.4746060000000  0.4625760000000  0.6001690000000 1.0
C      1  0.5341340000000  0.4250990000000  0.4109660000000 1.0
C      1  0.5341580000000  0.6134210000000  0.5000470000000 1.0
C      1  0.5385150000000  0.4505820000000  0.5964730000000 1.0
C      1  0.4127870000000  0.4623280000000  0.5135220000000 1.0
C      1  0.4376490000000  0.5087010000000  0.4418280000000 1.0
C      1  0.4133350000000  0.5438370000000  0.5463200000000 1.0
C      1  0.6032690000000  0.4599000000000  0.4914680000000 1.0
C      1  0.5792170000000  0.5143480000000  0.4503700000000 1.0
C      1  0.5870440000000  0.5216470000000  0.5279490000000 1.0
C      1  0.5183330000000  0.5904820000000  0.4935670000000 1.0
C      1  0.5209000000000  0.4646450000000  0.5787380000000 1.0
C      1  0.5147400000000  0.4304520000000  0.4305200000000 1.0
C      1  0.4907780000000  0.5848690000000  0.4860020000000 1.0
C      1  0.4939220000000  0.4703860000000  0.5815060000000 1.0
C      1  0.4873110000000  0.4244620000000  0.4323320000000 1.0
C      1  0.4278090000000  0.5322980000000  0.5016720000000 1.0
C      1  0.4599910000000  0.4767950000000  0.5113410000000 1.0
C      1  0.4639750000000  0.4775940000000  0.4759340000000 1.0
C      1  0.5386760000000  0.5273830000000  0.5223840000000 1.0
C      1  0.5388870000000  0.4992030000000  0.5142300000000 1.0
C      1  0.5316800000000  0.5032030000000  0.4633490000000 1.0
C      1  0.4645070000000  0.4713010000000  0.4289020000000 1.0
C      1  0.4510260000000  0.5475820000000  0.5013880000000 1.0
C      1  0.4565390000000  0.4599430000000  0.5371770000000 1.0
C      1  0.5477800000000  0.4787710000000  0.4272420000000 1.0
C      1  0.5074360000000  0.5734020000000  0.5505840000000 1.0
C      1  0.5754850000000  0.4559730000000  0.5359810000000 1.0
C      1  0.4360990000000  0.5858350000000  0.4520360000000 1.0
C      1  0.4379060000000  0.4961970000000  0.5996570000000 1.0
C      1  0.4240160000000  0.4244810000000  0.4412130000000 1.0
C      1  0.5775160000000  0.5952010000000  0.4755210000000 1.0
C      1  0.5788590000000  0.4831840000000  0.5962960000000 1.0
C      1  0.5767200000000  0.4169550000000  0.4342410000000 1.0
C      1  0.5332840000000  0.5586000000000  0.4617960000000 1.0
C      1  0.5266210000000  0.5096270000000  0.5659600000000 1.0
C      1  0.5182690000000  0.4348690000000  0.4811700000000 1.0
C      1  0.5082220000000  0.5564280000000  0.4511280000000 1.0
C      1  0.4999900000000  0.5163240000000  0.5652480000000 1.0
C      1  0.4924370000000  0.4263300000000  0.4806520000000 1.0
C      1  0.5489540000000  0.6384100000000  0.5902260000000 1.0
C      1  0.5384060000000  0.3804720000000  0.5378310000000 1.0
C      1  0.5623840000000  0.5100310000000  0.3958020000000 1.0
C      1  0.4550040000000  0.5802000000000  0.5857830000000 1.0
C      1  0.4295140000000  0.4179060000000  0.5404750000000 1.0
C      1  0.4482710000000  0.4999740000000  0.3932240000000 1.0
C      1  0.5196070000000  0.4790760000000  0.5280910000000 1.0
C      1  0.5138740000000  0.4801010000000  0.4573280000000 1.0
C      1  0.5177460000000  0.5457060000000  0.5112630000000 1.0
C      1  0.4899970000000  0.4930440000000  0.5222980000000 1.0
C      1  0.4909530000000  0.4876920000000  0.4742590000000 1.0
C      1  0.4995590000000  0.5336210000000  0.4909840000000 1.0
C      1  0.5799240000000  0.5663030000000  0.4771090000000 1.0
C      1  0.5804760000000  0.4912730000000  0.5692320000000 1.0
C      1  0.5773700000000  0.4405230000000  0.4496050000000 1.0
C      1  0.4413940000000  0.5582280000000  0.4532490000000 1.0
C      1  0.4370130000000  0.5016910000000  0.5719810000000 1.0
C      1  0.4295140000000  0.4443680000000  0.4609710000000 1.0
C      1  0.5347460000000  0.5647820000000  0.4928200000000 1.0
C      1  0.5339240000000  0.4806310000000  0.5568270000000 1.0
C      1  0.5274350000000  0.4511790000000  0.4591370000000 1.0
C      1  0.4880730000000  0.5562850000000  0.4728120000000 1.0
C      1  0.4821940000000  0.4948300000000  0.5567090000000 1.0
C      1  0.4764830000000  0.4319370000000  0.4580400000000 1.0
C      1  0.4504170000000  0.5272500000000  0.3867390000000 1.0
C      1  0.4690090000000  0.5680750000000  0.6048370000000 1.0
C      1  0.4261320000000  0.3991530000000  0.5197550000000 1.0
C      1  0.5590440000000  0.5373130000000  0.3901090000000 1.0
C      1  0.5570130000000  0.6246700000000  0.6116230000000 1.0
C      1  0.5304960000000  0.3734360000000  0.5133430000000 1.0
C      1  0.4592200000000  0.5521280000000  0.4744530000000 1.0
C      1  0.4542370000000  0.4849370000000  0.5565590000000 1.0
C      1  0.4578410000000  0.4556470000000  0.4564890000000 1.0
C      1  0.5637830000000  0.5588840000000  0.5000830000000 1.0
C      1  0.5632880000000  0.4746780000000  0.5531310000000 1.0
C      1  0.5547290000000  0.4574780000000  0.4466760000000 1.0
C      1  0.5613120000000  0.4647120000000  0.6059230000000 1.0
C      1  0.5566470000000  0.4096200000000  0.4179230000000 1.0
C      1  0.5599930000000  0.6129030000000  0.4873160000000 1.0
C      1  0.4568650000000  0.4812730000000  0.6116320000000 1.0
C      1  0.4405890000000  0.4143890000000  0.4222450000000 1.0
C      1  0.4473960000000  0.6027590000000  0.4699630000000 1.0
C      1  0.6054850000000  0.4884840000000  0.4883630000000 1.0
C      1  0.6041680000000  0.4999060000000  0.4616690000000 1.0
C      1  0.5884990000000  0.5020730000000  0.5071400000000 1.0
C      1  0.3885670000000  0.4770790000000  0.5237120000000 1.0
C      1  0.3835350000000  0.5032120000000  0.5301550000000 1.0
C      1  0.3912130000000  0.5288290000000  0.5355550000000 1.0
C      1  0.4774130000000  0.6439200000000  0.5786380000000 1.0
C      1  0.5038660000000  0.4977570000000  0.3528800000000 1.0
C      1  0.4779810000000  0.3713970000000  0.5684100000000 1.0
C      1  0.4950640000000  0.5065190000000  0.4954790000000 1.0
END
