TITL C-3201377-4638-75 170016.603488313 125000 -1187.46423605905 0 0 199 (C1) n - 1
REM
REM in /home/nfs/bkarasulu/CARBON/AIRSS/Generating-Clusters/LCBOP/Higher-Symm/SD-CG/FIRE-CG
REM
REM
REM
REM
REM
REM ./C.cell (b20cbc046b6831c77cfcea5457e17084)
REM AIRSS Version 0.9.1 bugfix July 2018 build 013d7b7c2542+ Fri, 06 Jul 2018 19:26:36 +0100
REM compiler GCC version 9.2.1 20190827 (Red Hat 9.2.1-1)
REM options -cpp -mtune=generic -march=x86-64 -g -O0 -fpre-include=/usr/include/finclude/math-vector-fortran.h
REM seed -564172403 -278559706 1434915553 760270979 1268428497 1480478139 979596832 744964866 1561452946 -479519550 -456734410 1428775685 -36360641 -612708815 2127851492 1489439267 -1280226489 1987373487 55882298 -590681434 341266278 -53268076 1940203282 1674411229 -153422200 47728955 504375384 1681051968 864944357 1397699496 -1681807278 -1840291948 601462258
REM
CELL 1.54180   50.00000   50.00000   50.00000   90.00000   90.00000   90.00000
LATT -1
SFAC C  
C      1  0.5903230000000  0.5581400000000  0.4489230000000 1.0
C      1  0.5101770000000  0.6080510000000  0.4484990000000 1.0
C      1  0.4231660000000  0.5743090000000  0.4492920000000 1.0
C      1  0.3952350000000  0.4843290000000  0.4453150000000 1.0
C      1  0.4526250000000  0.4072400000000  0.4467860000000 1.0
C      1  0.5444430000000  0.4062510000000  0.4204820000000 1.0
C      1  0.5994100000000  0.4664030000000  0.4495380000000 1.0
C      1  0.5120700000000  0.5599990000000  0.5938840000000 1.0
C      1  0.4580420000000  0.5484060000000  0.5960500000000 1.0
C      1  0.4395750000000  0.4992160000000  0.5913890000000 1.0
C      1  0.4622320000000  0.4501350000000  0.5973440000000 1.0
C      1  0.5176980000000  0.4374860000000  0.5986950000000 1.0
C      1  0.5571120000000  0.4730330000000  0.5942960000000 1.0
C      1  0.5561670000000  0.5284350000000  0.5947320000000 1.0
C      1  0.3791830000000  0.5684910000000  0.4285200000000 1.0
C      1  0.3808800000000  0.4387290000000  0.4384510000000 1.0
C      1  0.4720890000000  0.3656430000000  0.4311020000000 1.0
C      1  0.5799970000000  0.3923700000000  0.4501690000000 1.0
C      1  0.6343490000000  0.4984280000000  0.4372020000000 1.0
C      1  0.5876150000000  0.6051150000000  0.4364320000000 1.0
C      1  0.4741220000000  0.6381850000000  0.4336880000000 1.0
C      1  0.5158620000000  0.4437530000000  0.4604810000000 1.0
C      1  0.5533470000000  0.4825430000000  0.4677930000000 1.0
C      1  0.5423660000000  0.5240290000000  0.4590660000000 1.0
C      1  0.5074520000000  0.5577720000000  0.4614320000000 1.0
C      1  0.4635890000000  0.5473680000000  0.4636350000000 1.0
C      1  0.4422050000000  0.5063880000000  0.4624090000000 1.0
C      1  0.4696330000000  0.4555040000000  0.4693450000000 1.0
C      1  0.4691250000000  0.5371420000000  0.4881500000000 1.0
C      1  0.4510970000000  0.4953940000000  0.4865150000000 1.0
C      1  0.4886210000000  0.4652660000000  0.4908790000000 1.0
C      1  0.5151230000000  0.4635150000000  0.4803970000000 1.0
C      1  0.5309130000000  0.4899150000000  0.4859430000000 1.0
C      1  0.5180150000000  0.5144140000000  0.4740250000000 1.0
C      1  0.5034920000000  0.5377550000000  0.4839840000000 1.0
C      1  0.4239580000000  0.5817480000000  0.4787620000000 1.0
C      1  0.3949460000000  0.4993300000000  0.4741250000000 1.0
C      1  0.4452210000000  0.4141210000000  0.4777810000000 1.0
C      1  0.5233350000000  0.3967730000000  0.4835490000000 1.0
C      1  0.5956310000000  0.4575590000000  0.4799500000000 1.0
C      1  0.6009430000000  0.5536300000000  0.4764480000000 1.0
C      1  0.5177950000000  0.6012340000000  0.4795200000000 1.0
C      1  0.4718710000000  0.4249090000000  0.5868880000000 1.0
C      1  0.5416960000000  0.4299670000000  0.5839320000000 1.0
C      1  0.5784350000000  0.4873000000000  0.5810890000000 1.0
C      1  0.5572650000000  0.5532700000000  0.5805110000000 1.0
C      1  0.4931440000000  0.5798500000000  0.5832920000000 1.0
C      1  0.4323530000000  0.5448320000000  0.5827070000000 1.0
C      1  0.4248640000000  0.4771080000000  0.5801210000000 1.0
C      1  0.5390100000000  0.4093640000000  0.5633760000000 1.0
C      1  0.5920070000000  0.4736410000000  0.5587360000000 1.0
C      1  0.5756020000000  0.5540840000000  0.5577870000000 1.0
C      1  0.5037790000000  0.5977920000000  0.5629910000000 1.0
C      1  0.4240180000000  0.5648030000000  0.5627200000000 1.0
C      1  0.4072310000000  0.4835370000000  0.5578990000000 1.0
C      1  0.4548670000000  0.4114790000000  0.5670230000000 1.0
C      1  0.4657410000000  0.4993930000000  0.6062410000000 1.0
C      1  0.4793890000000  0.4722310000000  0.6090470000000 1.0
C      1  0.5100380000000  0.4654500000000  0.6106850000000 1.0
C      1  0.5329150000000  0.4851560000000  0.6088720000000 1.0
C      1  0.5315310000000  0.5159520000000  0.6085480000000 1.0
C      1  0.5066440000000  0.5338560000000  0.6074920000000 1.0
C      1  0.4769390000000  0.5268500000000  0.6081210000000 1.0
C      1  0.5383320000000  0.5585880000000  0.4996890000000 1.0
C      1  0.4588360000000  0.5626520000000  0.5240370000000 1.0
C      1  0.4260640000000  0.5177670000000  0.5209870000000 1.0
C      1  0.4603260000000  0.4410650000000  0.5301290000000 1.0
C      1  0.5073200000000  0.4250140000000  0.5251990000000 1.0
C      1  0.5522910000000  0.4574910000000  0.5156360000000 1.0
C      1  0.5629310000000  0.5136380000000  0.5189160000000 1.0
C      1  0.5753820000000  0.5819670000000  0.4441490000000 1.0
C      1  0.4832180000000  0.6137530000000  0.4412160000000 1.0
C      1  0.4020340000000  0.5577430000000  0.4388340000000 1.0
C      1  0.4009810000000  0.4563890000000  0.4442980000000 1.0
C      1  0.4750910000000  0.3917010000000  0.4387340000000 1.0
C      1  0.5624450000000  0.4115060000000  0.4417420000000 1.0
C      1  0.6086330000000  0.4927680000000  0.4440450000000 1.0
C      1  0.4981960000000  0.4656020000000  0.5666230000000 1.0
C      1  0.5264850000000  0.4748620000000  0.5580160000000 1.0
C      1  0.5334400000000  0.5042090000000  0.5634310000000 1.0
C      1  0.5168280000000  0.5295210000000  0.5544650000000 1.0
C      1  0.4862720000000  0.5347070000000  0.5616880000000 1.0
C      1  0.4650670000000  0.5140420000000  0.5523890000000 1.0
C      1  0.4720590000000  0.4794560000000  0.5571770000000 1.0
C      1  0.4271940000000  0.4468690000000  0.4493540000000 1.0
C      1  0.5005810000000  0.4040330000000  0.4391490000000 1.0
C      1  0.5628300000000  0.4380880000000  0.4518530000000 1.0
C      1  0.5881750000000  0.5120840000000  0.4463250000000 1.0
C      1  0.5475340000000  0.5803150000000  0.4478780000000 1.0
C      1  0.4678030000000  0.5904770000000  0.4433100000000 1.0
C      1  0.4065140000000  0.5300120000000  0.4402210000000 1.0
C      1  0.4167370000000  0.5199110000000  0.4653720000000 1.0
C      1  0.4450490000000  0.4450160000000  0.4726940000000 1.0
C      1  0.5119620000000  0.4147090000000  0.4633180000000 1.0
C      1  0.5639370000000  0.4557690000000  0.4791970000000 1.0
C      1  0.5661080000000  0.5079300000000  0.4632180000000 1.0
C      1  0.5318760000000  0.5734960000000  0.4733120000000 1.0
C      1  0.4796790000000  0.5707220000000  0.4598360000000 1.0
C      1  0.4893900000000  0.5694120000000  0.5139310000000 1.0
C      1  0.4345400000000  0.5469650000000  0.5133360000000 1.0
C      1  0.4301660000000  0.4942550000000  0.5051770000000 1.0
C      1  0.4784220000000  0.4239160000000  0.5156770000000 1.0
C      1  0.5340590000000  0.4304740000000  0.5134330000000 1.0
C      1  0.5770320000000  0.4868900000000  0.5117410000000 1.0
C      1  0.5617790000000  0.5453980000000  0.5034160000000 1.0
C      1  0.4463120000000  0.4589630000000  0.5731930000000 1.0
C      1  0.4979630000000  0.4338500000000  0.5752360000000 1.0
C      1  0.5486460000000  0.4558300000000  0.5700590000000 1.0
C      1  0.5630510000000  0.5104590000000  0.5710630000000 1.0
C      1  0.5300800000000  0.5571380000000  0.5683610000000 1.0
C      1  0.4725580000000  0.5615690000000  0.5724330000000 1.0
C      1  0.4369460000000  0.5189240000000  0.5677670000000 1.0
C      1  0.5683370000000  0.3989160000000  0.5086610000000 1.0
C      1  0.6225540000000  0.4910770000000  0.5086070000000 1.0
C      1  0.5812220000000  0.5883990000000  0.5073200000000 1.0
C      1  0.4808970000000  0.6165320000000  0.5126430000000 1.0
C      1  0.3898950000000  0.5610230000000  0.5107400000000 1.0
C      1  0.3976330000000  0.4568980000000  0.5045750000000 1.0
C      1  0.4655580000000  0.3803670000000  0.5142490000000 1.0
C      1  0.4742000000000  0.5307040000000  0.4349330000000 1.0
C      1  0.4591460000000  0.5018690000000  0.4367850000000 1.0
C      1  0.4757240000000  0.4704580000000  0.4382130000000 1.0
C      1  0.5088290000000  0.4615630000000  0.4346260000000 1.0
C      1  0.5333460000000  0.4832810000000  0.4353760000000 1.0
C      1  0.5315100000000  0.5190420000000  0.4319330000000 1.0
C      1  0.5072110000000  0.5396710000000  0.4338050000000 1.0
C      1  0.4685590000000  0.5210950000000  0.5201270000000 1.0
C      1  0.4713180000000  0.4664780000000  0.5317610000000 1.0
C      1  0.4965890000000  0.4657120000000  0.5195500000000 1.0
C      1  0.5285690000000  0.4748920000000  0.5284600000000 1.0
C      1  0.5347900000000  0.5017840000000  0.5153940000000 1.0
C      1  0.5148250000000  0.5222090000000  0.5242900000000 1.0
C      1  0.5123660000000  0.5483830000000  0.5095570000000 1.0
C      1  0.5396830000000  0.5509790000000  0.3989280000000 1.0
C      1  0.4859120000000  0.5640330000000  0.3992110000000 1.0
C      1  0.4430980000000  0.5290650000000  0.3987810000000 1.0
C      1  0.4428940000000  0.4744490000000  0.4007540000000 1.0
C      1  0.4842660000000  0.4444450000000  0.3973490000000 1.0
C      1  0.5376600000000  0.4549540000000  0.3971540000000 1.0
C      1  0.5625830000000  0.5002330000000  0.4010580000000 1.0
C      1  0.5897100000000  0.4170240000000  0.5141680000000 1.0
C      1  0.6202490000000  0.5194950000000  0.5132520000000 1.0
C      1  0.5579010000000  0.6045250000000  0.5132230000000 1.0
C      1  0.4520630000000  0.6119010000000  0.5150200000000 1.0
C      1  0.3792500000000  0.5344070000000  0.5158800000000 1.0
C      1  0.4079610000000  0.4309620000000  0.5113030000000 1.0
C      1  0.4933830000000  0.3739870000000  0.5206130000000 1.0
C      1  0.4149470000000  0.5628660000000  0.4987810000000 1.0
C      1  0.4067640000000  0.4807480000000  0.4951480000000 1.0
C      1  0.4642010000000  0.4044180000000  0.4997500000000 1.0
C      1  0.5441510000000  0.4081580000000  0.4991090000000 1.0
C      1  0.5998120000000  0.4792920000000  0.4993400000000 1.0
C      1  0.5832270000000  0.5627640000000  0.4969080000000 1.0
C      1  0.4954020000000  0.5958060000000  0.5008530000000 1.0
C      1  0.5543070000000  0.5278730000000  0.4124520000000 1.0
C      1  0.5138480000000  0.5632380000000  0.4124540000000 1.0
C      1  0.4602810000000  0.5504600000000  0.4126370000000 1.0
C      1  0.4366310000000  0.5016170000000  0.4128510000000 1.0
C      1  0.4606040000000  0.4530720000000  0.4140500000000 1.0
C      1  0.5121150000000  0.4426050000000  0.4089820000000 1.0
C      1  0.5554560000000  0.4733200000000  0.4143160000000 1.0
C      1  0.6028410000000  0.4316270000000  0.4937360000000 1.0
C      1  0.6196870000000  0.5366820000000  0.4904370000000 1.0
C      1  0.5398640000000  0.6155680000000  0.4945650000000 1.0
C      1  0.4367090000000  0.6041050000000  0.4922120000000 1.0
C      1  0.3765190000000  0.5167800000000  0.4929950000000 1.0
C      1  0.4182630000000  0.4122500000000  0.4925820000000 1.0
C      1  0.5103490000000  0.3757790000000  0.4979570000000 1.0
C      1  0.4076760000000  0.5043390000000  0.4250700000000 1.0
C      1  0.4440360000000  0.4316990000000  0.4298510000000 1.0
C      1  0.5172500000000  0.4138300000000  0.4176720000000 1.0
C      1  0.5758750000000  0.4577880000000  0.4329200000000 1.0
C      1  0.5835910000000  0.5358350000000  0.4323160000000 1.0
C      1  0.5250050000000  0.5883720000000  0.4301150000000 1.0
C      1  0.4461630000000  0.5764410000000  0.4315280000000 1.0
C      1  0.5758690000000  0.5784790000000  0.5451290000000 1.0
C      1  0.4862620000000  0.6135390000000  0.5482000000000 1.0
C      1  0.3998250000000  0.5594230000000  0.5488790000000 1.0
C      1  0.3992530000000  0.4613190000000  0.5435330000000 1.0
C      1  0.4652910000000  0.3898390000000  0.5525050000000 1.0
C      1  0.5617950000000  0.4047990000000  0.5476140000000 1.0
C      1  0.6118990000000  0.4890990000000  0.5464400000000 1.0
C      1  0.5097670000000  0.4124050000000  0.5535450000000 1.0
C      1  0.5715080000000  0.4528070000000  0.5471630000000 1.0
C      1  0.5777770000000  0.5250960000000  0.5470760000000 1.0
C      1  0.5284850000000  0.5850180000000  0.5543040000000 1.0
C      1  0.4515250000000  0.5749460000000  0.5518240000000 1.0
C      1  0.4128580000000  0.5121650000000  0.5481340000000 1.0
C      1  0.4408090000000  0.4349240000000  0.5524820000000 1.0
C      1  0.5517640000000  0.5941330000000  0.5407650000000 1.0
C      1  0.4533300000000  0.6043600000000  0.5446520000000 1.0
C      1  0.3898310000000  0.5316650000000  0.5449280000000 1.0
C      1  0.4132520000000  0.4359340000000  0.5407050000000 1.0
C      1  0.4940060000000  0.3862870000000  0.5486300000000 1.0
C      1  0.5814100000000  0.4251830000000  0.5418310000000 1.0
C      1  0.6071110000000  0.5176560000000  0.5407870000000 1.0
C      1  0.4902640000000  0.5072730000000  0.5145710000000 1.0
C      1  0.4802390000000  0.4930310000000  0.4890880000000 1.0
C      1  0.4941870000000  0.5006310000000  0.4635410000000 1.0
END
