TITL C-3201376-6384-55 -6.10755941174908e-07 125000 -678.607724695319 0 0 108 (C1) n - 1
REM
REM in /home/nfs/bkarasulu/CARBON/AIRSS/Generating-Clusters/LCBOP/Higher-Symm/SD-CG/FIRE-CG
REM
REM
REM
REM
REM
REM ./C.cell (b20cbc046b6831c77cfcea5457e17084)
REM AIRSS Version 0.9.1 bugfix July 2018 build 013d7b7c2542+ Fri, 06 Jul 2018 19:26:36 +0100
REM compiler GCC version 9.2.1 20190827 (Red Hat 9.2.1-1)
REM options -cpp -mtune=generic -march=x86-64 -g -O0 -fpre-include=/usr/include/finclude/math-vector-fortran.h
REM seed -1771571131 -2013231209 181395642 1757611113 -163124971 1451403469 -78741233 -1222464273 -1920480017 621867176 -457471085 1448056765 627708581 -1116391710 125240374 -1737997945 1967328175 2131889260 -63222392 1727665780 -841127192 -17367469 2006720718 -122067213 1121116879 -711232296 832669671 1076516721 -57481250 181640250 865189362 1826501656 406307040
REM
CELL 1.54180   50.00000   50.00000   50.00000   90.00000   90.00000   90.00000
LATT -1
SFAC C  
C      1  0.4535680000000  0.5695320000000  0.4556040000000 1.0
C      1  0.4447510000000  0.5689470000000  0.5276930000000 1.0
C      1  0.5100770000000  0.5699440000000  0.5586990000000 1.0
C      1  0.5602320000000  0.5716600000000  0.5061370000000 1.0
C      1  0.5253470000000  0.5710670000000  0.4421220000000 1.0
C      1  0.4931210000000  0.4682970000000  0.6064890000000 1.0
C      1  0.6011670000000  0.4629510000000  0.5489590000000 1.0
C      1  0.5642130000000  0.4714470000000  0.4092840000000 1.0
C      1  0.4381910000000  0.4702040000000  0.4189270000000 1.0
C      1  0.3954000000000  0.4675350000000  0.5270060000000 1.0
C      1  0.5590040000000  0.4377280000000  0.4912010000000 1.0
C      1  0.5048620000000  0.4333480000000  0.4651800000000 1.0
C      1  0.4782010000000  0.4349950000000  0.4752560000000 1.0
C      1  0.4761160000000  0.4355890000000  0.5236580000000 1.0
C      1  0.5000200000000  0.4361830000000  0.5371820000000 1.0
C      1  0.5245810000000  0.5176460000000  0.4793150000000 1.0
C      1  0.4791260000000  0.5224920000000  0.4849900000000 1.0
C      1  0.4794900000000  0.5129570000000  0.5111860000000 1.0
C      1  0.5053130000000  0.5108520000000  0.5228210000000 1.0
C      1  0.5293750000000  0.5107140000000  0.5065430000000 1.0
C      1  0.4104790000000  0.4637310000000  0.4818090000000 1.0
C      1  0.4516580000000  0.4670310000000  0.5816280000000 1.0
C      1  0.5567400000000  0.4616890000000  0.5700850000000 1.0
C      1  0.5791560000000  0.4679930000000  0.4543970000000 1.0
C      1  0.4845280000000  0.4683700000000  0.4071170000000 1.0
C      1  0.4917520000000  0.4419400000000  0.4198420000000 1.0
C      1  0.4294240000000  0.4389300000000  0.4831660000000 1.0
C      1  0.4535200000000  0.4407080000000  0.5663860000000 1.0
C      1  0.5409180000000  0.4358240000000  0.5625210000000 1.0
C      1  0.5629390000000  0.4430150000000  0.4624080000000 1.0
C      1  0.4881370000000  0.5989510000000  0.4754770000000 1.0
C      1  0.4734890000000  0.5984800000000  0.5006360000000 1.0
C      1  0.4928820000000  0.5987090000000  0.5223550000000 1.0
C      1  0.5194970000000  0.5991360000000  0.5106840000000 1.0
C      1  0.5166120000000  0.5994180000000  0.4817070000000 1.0
C      1  0.4449150000000  0.5228710000000  0.4527630000000 1.0
C      1  0.4401190000000  0.5226250000000  0.5362740000000 1.0
C      1  0.5163940000000  0.5238530000000  0.5676150000000 1.0
C      1  0.5737980000000  0.5257970000000  0.5037920000000 1.0
C      1  0.5273280000000  0.5239120000000  0.4329870000000 1.0
C      1  0.4466340000000  0.4774920000000  0.5234910000000 1.0
C      1  0.5086100000000  0.4780390000000  0.5570260000000 1.0
C      1  0.5677480000000  0.4799940000000  0.5147030000000 1.0
C      1  0.5284410000000  0.4783880000000  0.4456690000000 1.0
C      1  0.4619290000000  0.4802140000000  0.4654250000000 1.0
C      1  0.4651830000000  0.5078600000000  0.4659190000000 1.0
C      1  0.4553780000000  0.5038570000000  0.5219300000000 1.0
C      1  0.5061660000000  0.5045740000000  0.5499330000000 1.0
C      1  0.5567070000000  0.5053970000000  0.5128180000000 1.0
C      1  0.5296530000000  0.5051240000000  0.4543910000000 1.0
C      1  0.4228230000000  0.5207360000000  0.4722910000000 1.0
C      1  0.4507420000000  0.5221460000000  0.5633540000000 1.0
C      1  0.5455940000000  0.5216180000000  0.5639790000000 1.0
C      1  0.5764100000000  0.5238280000000  0.4745540000000 1.0
C      1  0.5011620000000  0.5220280000000  0.4199680000000 1.0
C      1  0.4498730000000  0.5833430000000  0.5031750000000 1.0
C      1  0.4883000000000  0.5839700000000  0.5458780000000 1.0
C      1  0.5404960000000  0.5846670000000  0.5226340000000 1.0
C      1  0.5348910000000  0.5853360000000  0.4655360000000 1.0
C      1  0.4785250000000  0.5842590000000  0.4534160000000 1.0
C      1  0.4481660000000  0.4954060000000  0.5748400000000 1.0
C      1  0.5536560000000  0.4925300000000  0.5687920000000 1.0
C      1  0.5806880000000  0.4957790000000  0.4651390000000 1.0
C      1  0.4945730000000  0.4955650000000  0.4100250000000 1.0
C      1  0.4136120000000  0.4928530000000  0.4754180000000 1.0
C      1  0.4253090000000  0.5431850000000  0.4912780000000 1.0
C      1  0.4694590000000  0.5444930000000  0.5666550000000 1.0
C      1  0.5549210000000  0.5450190000000  0.5472250000000 1.0
C      1  0.5633550000000  0.5464800000000  0.4607760000000 1.0
C      1  0.4835320000000  0.5443250000000  0.4268320000000 1.0
C      1  0.4662410000000  0.4650730000000  0.6064240000000 1.0
C      1  0.5853800000000  0.4564430000000  0.5699860000000 1.0
C      1  0.5851420000000  0.4675160000000  0.4261810000000 1.0
C      1  0.4568730000000  0.4685230000000  0.3994020000000 1.0
C      1  0.3892900000000  0.4609580000000  0.5013530000000 1.0
C      1  0.5361830000000  0.5690380000000  0.5469510000000 1.0
C      1  0.5571100000000  0.5706670000000  0.4776430000000 1.0
C      1  0.4971990000000  0.5694110000000  0.4364700000000 1.0
C      1  0.4392870000000  0.5680650000000  0.4805810000000 1.0
C      1  0.4637270000000  0.5686330000000  0.5492260000000 1.0
C      1  0.4761250000000  0.4638680000000  0.4859170000000 1.0
C      1  0.4642480000000  0.4587390000000  0.5123820000000 1.0
C      1  0.5124780000000  0.4611010000000  0.5347950000000 1.0
C      1  0.5500050000000  0.4611350000000  0.5047500000000 1.0
C      1  0.5164510000000  0.4599420000000  0.4632240000000 1.0
C      1  0.5699320000000  0.5483440000000  0.5206360000000 1.0
C      1  0.5422530000000  0.5474090000000  0.4389040000000 1.0
C      1  0.4560910000000  0.5452180000000  0.4394390000000 1.0
C      1  0.4307840000000  0.5442770000000  0.5208280000000 1.0
C      1  0.4992190000000  0.5459010000000  0.5709790000000 1.0
C      1  0.5532150000000  0.4209000000000  0.5398780000000 1.0
C      1  0.5440480000000  0.4312810000000  0.4408500000000 1.0
C      1  0.4668970000000  0.4281890000000  0.4328860000000 1.0
C      1  0.4312640000000  0.4277500000000  0.5140620000000 1.0
C      1  0.4789130000000  0.4254540000000  0.5744450000000 1.0
C      1  0.5082000000000  0.4721020000000  0.5846080000000 1.0
C      1  0.5926970000000  0.4736870000000  0.5257820000000 1.0
C      1  0.5393750000000  0.4745660000000  0.4195190000000 1.0
C      1  0.4441950000000  0.4715240000000  0.4451040000000 1.0
C      1  0.4206150000000  0.4737960000000  0.5342220000000 1.0
C      1  0.5202410000000  0.4320040000000  0.4248010000000 1.0
C      1  0.4549530000000  0.4286540000000  0.4604600000000 1.0
C      1  0.4373430000000  0.4302720000000  0.5421260000000 1.0
C      1  0.5060450000000  0.4265950000000  0.5629660000000 1.0
C      1  0.5597330000000  0.4184240000000  0.5130720000000 1.0
C      1  0.5227440000000  0.4660230000000  0.5096240000000 1.0
C      1  0.5057950000000  0.4708310000000  0.4878040000000 1.0
C      1  0.5026000000000  0.5352520000000  0.4777500000000 1.0
END
