TITL C-3201376-6384-1288 -6.51980886373334e-08 125000 -289.229215095757 0 0 52 (C1) n - 1
REM
REM in /home/nfs/bkarasulu/CARBON/AIRSS/Generating-Clusters/LCBOP/Higher-Symm/SD-CG/FIRE-CG
REM
REM
REM
REM
REM
REM ./C.cell (b20cbc046b6831c77cfcea5457e17084)
REM AIRSS Version 0.9.1 bugfix July 2018 build 013d7b7c2542+ Fri, 06 Jul 2018 19:26:36 +0100
REM compiler GCC version 9.2.1 20190827 (Red Hat 9.2.1-1)
REM options -cpp -mtune=generic -march=x86-64 -g -O0 -fpre-include=/usr/include/finclude/math-vector-fortran.h
REM seed 934212064 875152311 1490730703 -1505062422 -2044040878 197068872 -1910300302 -1745172106 -1363699870 -716558342 717827700 171754617 -629262966 123000077 -587642246 -1284524954 -820822148 -1508192309 140743573 8929635 1397668838 2041835708 -1916440628 -157894179 -1675206455 1157794290 305866672 322667074 1716735066 -11596783 -2027676447 -718625082 825080604
REM
CELL 1.54180   50.00000   50.00000   50.00000   90.00000   90.00000   90.00000
LATT -1
SFAC C  
C      1  0.4993420000000  0.4768660000000  0.4778590000000 1.0
C      1  0.4923970000000  0.5018190000000  0.5289800000000 1.0
C      1  0.4831870000000  0.5334980000000  0.4911900000000 1.0
C      1  0.5282140000000  0.4701670000000  0.5204740000000 1.0
C      1  0.5257740000000  0.4578980000000  0.4352100000000 1.0
C      1  0.5290260000000  0.5438170000000  0.5288830000000 1.0
C      1  0.4908110000000  0.4782000000000  0.5674270000000 1.0
C      1  0.4726500000000  0.5725240000000  0.4737960000000 1.0
C      1  0.4801270000000  0.4456950000000  0.4453620000000 1.0
C      1  0.4980920000000  0.4624680000000  0.4299050000000 1.0
C      1  0.4744980000000  0.5788950000000  0.5006490000000 1.0
C      1  0.4984410000000  0.4551030000000  0.5534670000000 1.0
C      1  0.5280210000000  0.5438180000000  0.4668760000000 1.0
C      1  0.5244010000000  0.4335540000000  0.4979610000000 1.0
C      1  0.5452990000000  0.5124240000000  0.5648120000000 1.0
C      1  0.4718840000000  0.5285980000000  0.5566200000000 1.0
C      1  0.4648170000000  0.4427250000000  0.4962230000000 1.0
C      1  0.4699360000000  0.5291710000000  0.4431570000000 1.0
C      1  0.4789100000000  0.5569260000000  0.5497180000000 1.0
C      1  0.4816810000000  0.5134060000000  0.4215080000000 1.0
C      1  0.4769340000000  0.4289670000000  0.5187440000000 1.0
C      1  0.5112500000000  0.5574090000000  0.4480750000000 1.0
C      1  0.5200560000000  0.5165420000000  0.5750360000000 1.0
C      1  0.5055810000000  0.4238250000000  0.4802880000000 1.0
C      1  0.4820210000000  0.5555320000000  0.4516210000000 1.0
C      1  0.4801310000000  0.4351580000000  0.4720640000000 1.0
C      1  0.4919450000000  0.5083560000000  0.5716640000000 1.0
C      1  0.4778640000000  0.5734890000000  0.5274910000000 1.0
C      1  0.5009320000000  0.4375410000000  0.5302040000000 1.0
C      1  0.4900140000000  0.4875490000000  0.4184780000000 1.0
C      1  0.4755980000000  0.4823520000000  0.5211030000000 1.0
C      1  0.4632250000000  0.5329460000000  0.5090800000000 1.0
C      1  0.4783290000000  0.4886470000000  0.4663920000000 1.0
C      1  0.5441840000000  0.4544040000000  0.4545990000000 1.0
C      1  0.5468760000000  0.5538600000000  0.5104060000000 1.0
C      1  0.5453220000000  0.4718230000000  0.5411050000000 1.0
C      1  0.4526360000000  0.5221140000000  0.5339180000000 1.0
C      1  0.4586320000000  0.5086260000000  0.4612940000000 1.0
C      1  0.4559160000000  0.4689370000000  0.5046000000000 1.0
C      1  0.5521020000000  0.5413400000000  0.4845350000000 1.0
C      1  0.5584950000000  0.4967170000000  0.5445070000000 1.0
C      1  0.5492240000000  0.4551470000000  0.4826250000000 1.0
C      1  0.5643410000000  0.4785520000000  0.4919580000000 1.0
C      1  0.5716260000000  0.5026650000000  0.5202020000000 1.0
C      1  0.5663050000000  0.5163100000000  0.4873050000000 1.0
C      1  0.4346410000000  0.4886690000000  0.5016010000000 1.0
C      1  0.4351100000000  0.5034320000000  0.4766660000000 1.0
C      1  0.4316030000000  0.5039810000000  0.5263790000000 1.0
C      1  0.5090420000000  0.5275860000000  0.4814750000000 1.0
C      1  0.5148200000000  0.5193460000000  0.5246630000000 1.0
C      1  0.5185960000000  0.4826250000000  0.4969500000000 1.0
C      1  0.5221840000000  0.5099400000000  0.4984410000000 1.0
END
