TITL C-3201375-1262-1496 4.98051909510454 125000 -553.951375587518 0 0 93 (C1) n - 1
REM
REM in /home/nfs/bkarasulu/CARBON/AIRSS/Generating-Clusters/LCBOP/Higher-Symm/SD-CG/FIRE-CG
REM
REM
REM
REM
REM
REM ./C.cell (b20cbc046b6831c77cfcea5457e17084)
REM AIRSS Version 0.9.1 bugfix July 2018 build 013d7b7c2542+ Fri, 06 Jul 2018 19:26:36 +0100
REM compiler GCC version 9.2.1 20190827 (Red Hat 9.2.1-1)
REM options -cpp -mtune=generic -march=x86-64 -g -O0 -fpre-include=/usr/include/finclude/math-vector-fortran.h
REM seed -1262465132 -1025191775 -1998056670 -544222513 -2019052978 -1813304901 -807012653 1313384428 -788099846 -691897285 832235290 -1745672393 -739678176 645421757 853212013 1677854572 -1152082806 -1582739794 596123925 -1019925980 164397055 961977105 -852026402 -958334588 549220491 1682480575 1592042488 -1411303915 1569551599 -2060961108 -1507995155 1785401725 -701263269
REM
CELL 1.54180   50.00000   50.00000   50.00000   90.00000   90.00000   90.00000
LATT -1
SFAC C  
C      1  0.5563810000000  0.4679970000000  0.5681370000000 1.0
C      1  0.5865060000000  0.5237920000000  0.5485730000000 1.0
C      1  0.5261890000000  0.5981880000000  0.4970760000000 1.0
C      1  0.5571380000000  0.4356350000000  0.4651140000000 1.0
C      1  0.4781100000000  0.4120600000000  0.4928570000000 1.0
C      1  0.4321250000000  0.5290050000000  0.5546620000000 1.0
C      1  0.4560880000000  0.5150870000000  0.5606790000000 1.0
C      1  0.4833820000000  0.4285480000000  0.4207910000000 1.0
C      1  0.4624430000000  0.4327280000000  0.4412700000000 1.0
C      1  0.4723510000000  0.4980550000000  0.4816220000000 1.0
C      1  0.6031830000000  0.5035880000000  0.5018490000000 1.0
C      1  0.4854480000000  0.4665960000000  0.5815780000000 1.0
C      1  0.4163640000000  0.5013560000000  0.4661100000000 1.0
C      1  0.5138450000000  0.4480910000000  0.5154670000000 1.0
C      1  0.4911320000000  0.4424620000000  0.3973030000000 1.0
C      1  0.5011620000000  0.5642220000000  0.5506530000000 1.0
C      1  0.5050450000000  0.4812870000000  0.5938760000000 1.0
C      1  0.4714240000000  0.4599070000000  0.5567200000000 1.0
C      1  0.4715890000000  0.5394730000000  0.4132310000000 1.0
C      1  0.5019020000000  0.5955410000000  0.5122820000000 1.0
C      1  0.5339560000000  0.4029760000000  0.4910440000000 1.0
C      1  0.4135210000000  0.4887730000000  0.5360840000000 1.0
C      1  0.4947560000000  0.4489760000000  0.4735570000000 1.0
C      1  0.4411630000000  0.5483160000000  0.4525050000000 1.0
C      1  0.5305420000000  0.5217100000000  0.4955960000000 1.0
C      1  0.5535650000000  0.4948620000000  0.5784280000000 1.0
C      1  0.5668890000000  0.5922700000000  0.5237600000000 1.0
C      1  0.5479600000000  0.4219390000000  0.5083180000000 1.0
C      1  0.5445440000000  0.4971500000000  0.4940660000000 1.0
C      1  0.4548170000000  0.4807900000000  0.4391700000000 1.0
C      1  0.4729640000000  0.4302590000000  0.4690210000000 1.0
C      1  0.5905250000000  0.4945250000000  0.4510900000000 1.0
C      1  0.5499510000000  0.6087970000000  0.5085060000000 1.0
C      1  0.5192230000000  0.4839880000000  0.5449460000000 1.0
C      1  0.4957970000000  0.4959600000000  0.5411050000000 1.0
C      1  0.4754460000000  0.5291240000000  0.5752140000000 1.0
C      1  0.4661120000000  0.4853640000000  0.5394450000000 1.0
C      1  0.4381640000000  0.4373640000000  0.5063540000000 1.0
C      1  0.5377170000000  0.4652460000000  0.4016110000000 1.0
C      1  0.4343110000000  0.5568990000000  0.5451030000000 1.0
C      1  0.4626220000000  0.4246140000000  0.5159690000000 1.0
C      1  0.4372490000000  0.5801970000000  0.5584010000000 1.0
C      1  0.6002630000000  0.5001590000000  0.4754210000000 1.0
C      1  0.5531780000000  0.4673890000000  0.4254420000000 1.0
C      1  0.5131440000000  0.5611310000000  0.4621570000000 1.0
C      1  0.5225050000000  0.5364440000000  0.4726910000000 1.0
C      1  0.4697800000000  0.5805180000000  0.4731780000000 1.0
C      1  0.5583910000000  0.4451470000000  0.4931300000000 1.0
C      1  0.4556050000000  0.5390450000000  0.5061390000000 1.0
C      1  0.4382630000000  0.4793830000000  0.5318170000000 1.0
C      1  0.5817110000000  0.5750100000000  0.5376420000000 1.0
C      1  0.4252000000000  0.5734120000000  0.4932810000000 1.0
C      1  0.5986670000000  0.5089720000000  0.5277320000000 1.0
C      1  0.5128900000000  0.4522510000000  0.4500450000000 1.0
C      1  0.4151580000000  0.4765720000000  0.4775640000000 1.0
C      1  0.4060180000000  0.5333130000000  0.5170270000000 1.0
C      1  0.4546670000000  0.5193920000000  0.4861520000000 1.0
C      1  0.4793040000000  0.5534100000000  0.5106660000000 1.0
C      1  0.4236060000000  0.4545440000000  0.4910640000000 1.0
C      1  0.4967480000000  0.4610800000000  0.4984020000000 1.0
C      1  0.5563040000000  0.6351490000000  0.5046800000000 1.0
C      1  0.5402430000000  0.5265090000000  0.5439250000000 1.0
C      1  0.5288290000000  0.4951300000000  0.5940540000000 1.0
C      1  0.4789930000000  0.4817200000000  0.5035580000000 1.0
C      1  0.4669780000000  0.5498110000000  0.4379690000000 1.0
C      1  0.5904150000000  0.5518620000000  0.5477970000000 1.0
C      1  0.5025790000000  0.4804800000000  0.4426590000000 1.0
C      1  0.4859550000000  0.5652180000000  0.4536670000000 1.0
C      1  0.5240680000000  0.5319760000000  0.5216350000000 1.0
C      1  0.5504670000000  0.4072580000000  0.4664190000000 1.0
C      1  0.5211180000000  0.4382750000000  0.5413600000000 1.0
C      1  0.5052650000000  0.4001360000000  0.4842650000000 1.0
C      1  0.5033600000000  0.5910770000000  0.5409440000000 1.0
C      1  0.4289190000000  0.5530670000000  0.5146320000000 1.0
C      1  0.4811260000000  0.5800080000000  0.4993190000000 1.0
C      1  0.4994760000000  0.4223810000000  0.5503330000000 1.0
C      1  0.5066740000000  0.4236250000000  0.4373040000000 1.0
C      1  0.4102280000000  0.5161560000000  0.5398120000000 1.0
C      1  0.5062030000000  0.4005800000000  0.4543630000000 1.0
C      1  0.5428550000000  0.4523230000000  0.4473490000000 1.0
C      1  0.5008690000000  0.5469040000000  0.5273680000000 1.0
C      1  0.4909840000000  0.5512270000000  0.5734140000000 1.0
C      1  0.5265670000000  0.5842010000000  0.4723420000000 1.0
C      1  0.5553340000000  0.4727840000000  0.4976060000000 1.0
C      1  0.4774870000000  0.4902590000000  0.4536920000000 1.0
C      1  0.4736040000000  0.4332550000000  0.5427860000000 1.0
C      1  0.4461640000000  0.4553240000000  0.4360660000000 1.0
C      1  0.5611510000000  0.5155730000000  0.5594750000000 1.0
C      1  0.5747350000000  0.4842820000000  0.4319480000000 1.0
C      1  0.4344980000000  0.5233600000000  0.4658770000000 1.0
C      1  0.5141510000000  0.4560030000000  0.3918450000000 1.0
C      1  0.5340970000000  0.4605540000000  0.5527510000000 1.0
C      1  0.4416000000000  0.5726450000000  0.4700940000000 1.0
END
