TITL C-3201375-1262-45 -3.14522895469998e-06 125000 -1034.8240205423 0 0 167 (C1) n - 1
REM
REM in /home/nfs/bkarasulu/CARBON/AIRSS/Generating-Clusters/LCBOP/Higher-Symm/SD-CG/FIRE-CG
REM
REM
REM
REM
REM
REM ./C.cell (b20cbc046b6831c77cfcea5457e17084)
REM AIRSS Version 0.9.1 bugfix July 2018 build 013d7b7c2542+ Fri, 06 Jul 2018 19:26:36 +0100
REM compiler GCC version 9.2.1 20190827 (Red Hat 9.2.1-1)
REM options -cpp -mtune=generic -march=x86-64 -g -O0 -fpre-include=/usr/include/finclude/math-vector-fortran.h
REM seed 1750641364 401399136 -728454906 -72996356 2082249036 1198395982 710245477 40340032 -877398844 1598373456 -1713312081 -1934092369 -992088989 -1481493847 -533456976 865279118 636185394 -1916423527 1266076791 1307366143 2024368650 -245246288 1923822559 1322696181 1138521477 -460060135 1231147082 1744809509 -2029645386 53904375 2066186858 1445041698 262114527
REM
CELL 1.54180   50.00000   50.00000   50.00000   90.00000   90.00000   90.00000
LATT -1
SFAC C  
C      1  0.5350010000000  0.5354710000000  0.6233920000000 1.0
C      1  0.4639010000000  0.4642340000000  0.6245980000000 1.0
C      1  0.4639030000000  0.5359810000000  0.6245870000000 1.0
C      1  0.5349970000000  0.4646430000000  0.6233840000000 1.0
C      1  0.5708020000000  0.5262370000000  0.5595640000000 1.0
C      1  0.4290570000000  0.4739820000000  0.5601650000000 1.0
C      1  0.4290430000000  0.5262220000000  0.5601530000000 1.0
C      1  0.5708050000000  0.4738770000000  0.5595500000000 1.0
C      1  0.5551620000000  0.4864990000000  0.3703330000000 1.0
C      1  0.4410220000000  0.5135860000000  0.3725340000000 1.0
C      1  0.4410960000000  0.4863470000000  0.3724880000000 1.0
C      1  0.5551230000000  0.5137320000000  0.3703350000000 1.0
C      1  0.5523580000000  0.4679120000000  0.4571680000000 1.0
C      1  0.4478500000000  0.5319480000000  0.4591720000000 1.0
C      1  0.4479670000000  0.4681950000000  0.4591190000000 1.0
C      1  0.5523080000000  0.5322530000000  0.4571590000000 1.0
C      1  0.4331930000000  0.5414230000000  0.4130430000000 1.0
C      1  0.5639320000000  0.4579260000000  0.4101960000000 1.0
C      1  0.5638580000000  0.5422870000000  0.4102040000000 1.0
C      1  0.4333260000000  0.4585430000000  0.4130220000000 1.0
C      1  0.6271940000000  0.4852730000000  0.5066490000000 1.0
C      1  0.3742030000000  0.5144800000000  0.5040060000000 1.0
C      1  0.3742100000000  0.4855330000000  0.5041660000000 1.0
C      1  0.6271870000000  0.5148920000000  0.5066630000000 1.0
C      1  0.4602750000000  0.5927180000000  0.4430190000000 1.0
C      1  0.5471350000000  0.4089620000000  0.4447850000000 1.0
C      1  0.5472080000000  0.5912690000000  0.4448840000000 1.0
C      1  0.4601200000000  0.4076510000000  0.4429300000000 1.0
C      1  0.3672790000000  0.5379640000000  0.4597510000000 1.0
C      1  0.6348970000000  0.4678420000000  0.4607180000000 1.0
C      1  0.6349100000000  0.5323990000000  0.4607620000000 1.0
C      1  0.3658350000000  0.4617670000000  0.4601060000000 1.0
C      1  0.5510270000000  0.5747640000000  0.4997290000000 1.0
C      1  0.4498780000000  0.4253710000000  0.5009280000000 1.0
C      1  0.4498470000000  0.5747280000000  0.5010140000000 1.0
C      1  0.5510700000000  0.4253620000000  0.4997460000000 1.0
C      1  0.5133290000000  0.4705860000000  0.4288430000000 1.0
C      1  0.4854140000000  0.5296010000000  0.4292310000000 1.0
C      1  0.4855080000000  0.4704510000000  0.4291850000000 1.0
C      1  0.5132450000000  0.5295260000000  0.4288600000000 1.0
C      1  0.4502950000000  0.4724510000000  0.3953820000000 1.0
C      1  0.5466860000000  0.5276730000000  0.3934790000000 1.0
C      1  0.5467540000000  0.4725320000000  0.3934700000000 1.0
C      1  0.4501600000000  0.5274750000000  0.3954570000000 1.0
C      1  0.3808680000000  0.5630990000000  0.4580850000000 1.0
C      1  0.6239480000000  0.4413340000000  0.4613380000000 1.0
C      1  0.6239780000000  0.5589100000000  0.4614300000000 1.0
C      1  0.3806580000000  0.4373950000000  0.4580840000000 1.0
C      1  0.4078040000000  0.4487440000000  0.4996160000000 1.0
C      1  0.5940800000000  0.5516340000000  0.4988370000000 1.0
C      1  0.5941030000000  0.4485180000000  0.4988030000000 1.0
C      1  0.4077300000000  0.5515080000000  0.4996840000000 1.0
C      1  0.5389010000000  0.5139890000000  0.5025810000000 1.0
C      1  0.4624840000000  0.4861500000000  0.5042430000000 1.0
C      1  0.4624500000000  0.5140120000000  0.5042490000000 1.0
C      1  0.5389050000000  0.4861440000000  0.5025820000000 1.0
C      1  0.4053660000000  0.5712390000000  0.4686350000000 1.0
C      1  0.5996010000000  0.4332150000000  0.4734920000000 1.0
C      1  0.5996150000000  0.5669920000000  0.4735730000000 1.0
C      1  0.4052450000000  0.4293730000000  0.4685200000000 1.0
C      1  0.5591960000000  0.5786310000000  0.5687720000000 1.0
C      1  0.4404720000000  0.4215320000000  0.5691880000000 1.0
C      1  0.4404810000000  0.5786710000000  0.5691600000000 1.0
C      1  0.5591900000000  0.4214860000000  0.5687420000000 1.0
C      1  0.5274680000000  0.4198480000000  0.4861710000000 1.0
C      1  0.4730870000000  0.5802910000000  0.4868570000000 1.0
C      1  0.4731400000000  0.4198050000000  0.4868040000000 1.0
C      1  0.5274060000000  0.5802630000000  0.4861790000000 1.0
C      1  0.4097310000000  0.5149980000000  0.5383940000000 1.0
C      1  0.5901470000000  0.4850810000000  0.5379380000000 1.0
C      1  0.5901410000000  0.5150460000000  0.5379460000000 1.0
C      1  0.4097800000000  0.4851980000000  0.5383900000000 1.0
C      1  0.5251460000000  0.4783180000000  0.5773860000000 1.0
C      1  0.4757300000000  0.5226390000000  0.5785490000000 1.0
C      1  0.4757320000000  0.4775670000000  0.5785570000000 1.0
C      1  0.5251310000000  0.5217880000000  0.5773990000000 1.0
C      1  0.4612810000000  0.5935160000000  0.5766960000000 1.0
C      1  0.5384260000000  0.4066930000000  0.5764750000000 1.0
C      1  0.5384400000000  0.5934380000000  0.5765020000000 1.0
C      1  0.4612660000000  0.4066750000000  0.5767190000000 1.0
C      1  0.6433740000000  0.5202430000000  0.4844510000000 1.0
C      1  0.3583480000000  0.4708370000000  0.4858840000000 1.0
C      1  0.3586480000000  0.5288650000000  0.4851650000000 1.0
C      1  0.6433750000000  0.4799490000000  0.4844270000000 1.0
C      1  0.5714150000000  0.4440310000000  0.5614120000000 1.0
C      1  0.4282900000000  0.5560540000000  0.5619920000000 1.0
C      1  0.4282910000000  0.4441520000000  0.5620180000000 1.0
C      1  0.5714100000000  0.5560830000000  0.5614370000000 1.0
C      1  0.5548380000000  0.5292200000000  0.4851850000000 1.0
C      1  0.4464450000000  0.4710020000000  0.4870670000000 1.0
C      1  0.4463290000000  0.5291300000000  0.4871200000000 1.0
C      1  0.5548610000000  0.4709230000000  0.4851980000000 1.0
C      1  0.5322740000000  0.4726850000000  0.5267530000000 1.0
C      1  0.4685350000000  0.5275540000000  0.5283930000000 1.0
C      1  0.4685340000000  0.4726170000000  0.5284040000000 1.0
C      1  0.5322820000000  0.5274400000000  0.5267610000000 1.0
C      1  0.6222380000000  0.4854330000000  0.4427880000000 1.0
C      1  0.3767570000000  0.5176050000000  0.4431120000000 1.0
C      1  0.3718810000000  0.4820490000000  0.4423150000000 1.0
C      1  0.6222400000000  0.5148520000000  0.4427980000000 1.0
C      1  0.5415820000000  0.5154070000000  0.5515490000000 1.0
C      1  0.4581810000000  0.4845770000000  0.5528320000000 1.0
C      1  0.4581760000000  0.5156140000000  0.5528230000000 1.0
C      1  0.5415830000000  0.4847040000000  0.5515430000000 1.0
C      1  0.4715290000000  0.5143900000000  0.4097260000000 1.0
C      1  0.5262860000000  0.4857530000000  0.4087450000000 1.0
C      1  0.5262420000000  0.5144050000000  0.4087480000000 1.0
C      1  0.4716100000000  0.4856220000000  0.4096690000000 1.0
C      1  0.5186550000000  0.5957760000000  0.4385160000000 1.0
C      1  0.4890830000000  0.4041210000000  0.4379010000000 1.0
C      1  0.4892170000000  0.5961790000000  0.4380020000000 1.0
C      1  0.5185470000000  0.4044830000000  0.4384170000000 1.0
C      1  0.4350600000000  0.4487440000000  0.5003520000000 1.0
C      1  0.5659810000000  0.5515390000000  0.4985470000000 1.0
C      1  0.5660030000000  0.4486010000000  0.4985570000000 1.0
C      1  0.4349750000000  0.5513900000000  0.5004240000000 1.0
C      1  0.4858860000000  0.4399300000000  0.4699060000000 1.0
C      1  0.5143130000000  0.5601260000000  0.4695400000000 1.0
C      1  0.5143860000000  0.4400010000000  0.4695450000000 1.0
C      1  0.4858100000000  0.5601860000000  0.4699160000000 1.0
C      1  0.6048130000000  0.4703860000000  0.5162380000000 1.0
C      1  0.3961270000000  0.5293490000000  0.5157710000000 1.0
C      1  0.3962680000000  0.4708310000000  0.5157900000000 1.0
C      1  0.6047960000000  0.5297590000000  0.5162560000000 1.0
C      1  0.4338680000000  0.5851950000000  0.4534870000000 1.0
C      1  0.5728990000000  0.4173380000000  0.4561530000000 1.0
C      1  0.5729450000000  0.5828820000000  0.4562390000000 1.0
C      1  0.4337080000000  0.4152690000000  0.4533870000000 1.0
C      1  0.4863450000000  0.5411570000000  0.6381750000000 1.0
C      1  0.5130440000000  0.4592150000000  0.6376160000000 1.0
C      1  0.5130500000000  0.5409320000000  0.6376160000000 1.0
C      1  0.4863380000000  0.4590280000000  0.6381820000000 1.0
C      1  0.5137600000000  0.6043050000000  0.4917800000000 1.0
C      1  0.4869200000000  0.3957660000000  0.4920360000000 1.0
C      1  0.4868640000000  0.6043290000000  0.4921070000000 1.0
C      1  0.5138180000000  0.3957990000000  0.4917290000000 1.0
C      1  0.4295820000000  0.4854320000000  0.5896230000000 1.0
C      1  0.5698790000000  0.5147170000000  0.5890190000000 1.0
C      1  0.5698820000000  0.4853870000000  0.5890130000000 1.0
C      1  0.4295760000000  0.5147840000000  0.5896180000000 1.0
C      1  0.4865490000000  0.3997320000000  0.5813740000000 1.0
C      1  0.5131930000000  0.6004040000000  0.5813170000000 1.0
C      1  0.5131760000000  0.3997480000000  0.5813060000000 1.0
C      1  0.4865660000000  0.6004410000000  0.5813670000000 1.0
C      1  0.4275350000000  0.5314440000000  0.4391000000000 1.0
C      1  0.5716240000000  0.4674500000000  0.4358990000000 1.0
C      1  0.5715850000000  0.5327750000000  0.4359000000000 1.0
C      1  0.4277260000000  0.4688490000000  0.4389670000000 1.0
C      1  0.4553580000000  0.4737950000000  0.5998430000000 1.0
C      1  0.5437030000000  0.5258930000000  0.5988030000000 1.0
C      1  0.5437060000000  0.4742070000000  0.5987940000000 1.0
C      1  0.4553530000000  0.5264260000000  0.5998310000000 1.0
C      1  0.4774450000000  0.5536010000000  0.5318000000000 1.0
C      1  0.5235320000000  0.4465540000000  0.5298900000000 1.0
C      1  0.5235670000000  0.5535780000000  0.5299180000000 1.0
C      1  0.4774070000000  0.4465560000000  0.5318080000000 1.0
C      1  0.4730900000000  0.5418800000000  0.4515510000000 1.0
C      1  0.5265310000000  0.4583300000000  0.4507220000000 1.0
C      1  0.5264620000000  0.5418020000000  0.4507230000000 1.0
C      1  0.4731890000000  0.4582180000000  0.4515210000000 1.0
C      1  0.4055350000000  0.5149100000000  0.4407540000000 1.0
C      1  0.5957790000000  0.4801560000000  0.4363910000000 1.0
C      1  0.5957820000000  0.5201430000000  0.4363960000000 1.0
C      1  0.4064050000000  0.4860410000000  0.4402560000000 1.0
C      1  0.5006170000000  0.4340980000000  0.5344590000000 1.0
C      1  0.5006570000000  0.5660440000000  0.5344860000000 1.0
C      1  0.4969380000000  0.5000910000000  0.5804180000000 1.0
END
