TITL C-3201373-1215-215 0.0621896881576026 125000 -741.353649284757 0 0 123 (C1) n - 1
REM
REM in /home/nfs/bkarasulu/CARBON/AIRSS/Generating-Clusters/LCBOP/Higher-Symm/SD-CG/FIRE-CG
REM
REM
REM
REM
REM
REM ./C.cell (b20cbc046b6831c77cfcea5457e17084)
REM AIRSS Version 0.9.1 bugfix July 2018 build 013d7b7c2542+ Fri, 06 Jul 2018 19:26:36 +0100
REM compiler GCC version 9.2.1 20190827 (Red Hat 9.2.1-1)
REM options -cpp -mtune=generic -march=x86-64 -g -O0 -fpre-include=/usr/include/finclude/math-vector-fortran.h
REM seed -2048701288 -1376267360 470556226 502593019 -512474924 -2105387433 -1936741266 1114036553 1669839598 -1269108767 -559840975 506176332 915576098 -1024318079 818694740 1332202113 -696008681 1430435425 -402414084 1503079547 1727398290 1227153514 -1159063383 -459489123 1434521366 -382881824 1777823056 -1826954481 1769089751 717737048 -577555671 -1097195108 1605358042
REM
CELL 1.54180   50.00000   50.00000   50.00000   90.00000   90.00000   90.00000
LATT -1
SFAC C  
C      1  0.5263640000000  0.5873770000000  0.4716020000000 1.0
C      1  0.4680320000000  0.4130840000000  0.4548860000000 1.0
C      1  0.5925150000000  0.5042170000000  0.4735700000000 1.0
C      1  0.5465240000000  0.5016100000000  0.5741500000000 1.0
C      1  0.5199140000000  0.4400530000000  0.4835660000000 1.0
C      1  0.4735210000000  0.4359870000000  0.5078740000000 1.0
C      1  0.4614120000000  0.5907630000000  0.5560450000000 1.0
C      1  0.5442500000000  0.5745870000000  0.5196590000000 1.0
C      1  0.4771580000000  0.5512590000000  0.5323670000000 1.0
C      1  0.4285970000000  0.4329910000000  0.5356620000000 1.0
C      1  0.4449140000000  0.4274950000000  0.5120380000000 1.0
C      1  0.4455130000000  0.5145510000000  0.5414890000000 1.0
C      1  0.6520140000000  0.4730340000000  0.4487900000000 1.0
C      1  0.5632470000000  0.5440390000000  0.5476400000000 1.0
C      1  0.4535300000000  0.4343850000000  0.5779140000000 1.0
C      1  0.4829920000000  0.5911700000000  0.4499180000000 1.0
C      1  0.5063810000000  0.5413860000000  0.4095160000000 1.0
C      1  0.5361890000000  0.4631870000000  0.4796700000000 1.0
C      1  0.6657440000000  0.4944180000000  0.5567660000000 1.0
C      1  0.4781150000000  0.4609570000000  0.5252800000000 1.0
C      1  0.5846320000000  0.5623300000000  0.5008390000000 1.0
C      1  0.4577280000000  0.5997820000000  0.4939810000000 1.0
C      1  0.4656400000000  0.5849400000000  0.4716580000000 1.0
C      1  0.5401290000000  0.4335350000000  0.4310840000000 1.0
C      1  0.4794290000000  0.4391410000000  0.4594230000000 1.0
C      1  0.5346350000000  0.5528430000000  0.5017700000000 1.0
C      1  0.4086120000000  0.4886270000000  0.5156950000000 1.0
C      1  0.5121890000000  0.4727560000000  0.4350130000000 1.0
C      1  0.5514120000000  0.5933890000000  0.4626120000000 1.0
C      1  0.5019060000000  0.5836080000000  0.4318830000000 1.0
C      1  0.5654930000000  0.5705290000000  0.4522080000000 1.0
C      1  0.5053520000000  0.5504730000000  0.5384920000000 1.0
C      1  0.4966810000000  0.5150300000000  0.4125650000000 1.0
C      1  0.4986440000000  0.4481540000000  0.5766150000000 1.0
C      1  0.4080470000000  0.4404330000000  0.4795050000000 1.0
C      1  0.4276780000000  0.4249140000000  0.4894840000000 1.0
C      1  0.5455810000000  0.4742700000000  0.5042000000000 1.0
C      1  0.5637840000000  0.4429070000000  0.4402650000000 1.0
C      1  0.4365290000000  0.5509910000000  0.4327030000000 1.0
C      1  0.5447880000000  0.5680310000000  0.5483800000000 1.0
C      1  0.4739320000000  0.5186430000000  0.4824290000000 1.0
C      1  0.5208610000000  0.5602380000000  0.4780660000000 1.0
C      1  0.6433870000000  0.5026560000000  0.5451530000000 1.0
C      1  0.4476080000000  0.4900190000000  0.4636690000000 1.0
C      1  0.5842320000000  0.5036760000000  0.5008790000000 1.0
C      1  0.5452610000000  0.5210620000000  0.5536490000000 1.0
C      1  0.6265820000000  0.4765200000000  0.4532880000000 1.0
C      1  0.4471520000000  0.5316800000000  0.4854770000000 1.0
C      1  0.4013470000000  0.4423670000000  0.5298180000000 1.0
C      1  0.4712820000000  0.5048470000000  0.4207990000000 1.0
C      1  0.5809450000000  0.4614550000000  0.4494070000000 1.0
C      1  0.4647650000000  0.3905120000000  0.5489680000000 1.0
C      1  0.4919310000000  0.4364080000000  0.4853250000000 1.0
C      1  0.5170950000000  0.4954870000000  0.4148230000000 1.0
C      1  0.4540880000000  0.4759960000000  0.5146180000000 1.0
C      1  0.5117030000000  0.5365670000000  0.4642410000000 1.0
C      1  0.5280180000000  0.4493310000000  0.3881750000000 1.0
C      1  0.4800140000000  0.5450170000000  0.5917500000000 1.0
C      1  0.4670320000000  0.3815080000000  0.5236060000000 1.0
C      1  0.4377820000000  0.5176820000000  0.5687950000000 1.0
C      1  0.4728400000000  0.4745360000000  0.6049540000000 1.0
C      1  0.4870660000000  0.4972960000000  0.5954790000000 1.0
C      1  0.5568450000000  0.5002280000000  0.5060440000000 1.0
C      1  0.4346210000000  0.4524100000000  0.4221690000000 1.0
C      1  0.5386570000000  0.4792490000000  0.5872460000000 1.0
C      1  0.4649630000000  0.4867090000000  0.4419770000000 1.0
C      1  0.4337000000000  0.4467760000000  0.5616000000000 1.0
C      1  0.5200520000000  0.5228710000000  0.5347760000000 1.0
C      1  0.5177470000000  0.5650850000000  0.5601560000000 1.0
C      1  0.4583910000000  0.4433060000000  0.4116560000000 1.0
C      1  0.5197890000000  0.5633520000000  0.4217310000000 1.0
C      1  0.5162860000000  0.4460870000000  0.4163720000000 1.0
C      1  0.4661160000000  0.3915750000000  0.4715540000000 1.0
C      1  0.4741350000000  0.4500380000000  0.5906430000000 1.0
C      1  0.5845670000000  0.5437530000000  0.5252820000000 1.0
C      1  0.4840150000000  0.4653110000000  0.4461370000000 1.0
C      1  0.4795670000000  0.5903870000000  0.5760770000000 1.0
C      1  0.6210920000000  0.5108090000000  0.5334100000000 1.0
C      1  0.4842420000000  0.5318010000000  0.4565130000000 1.0
C      1  0.4163560000000  0.4637050000000  0.4394660000000 1.0
C      1  0.5274010000000  0.4535280000000  0.5827140000000 1.0
C      1  0.4176160000000  0.5751770000000  0.4988380000000 1.0
C      1  0.4076040000000  0.4907660000000  0.4857260000000 1.0
C      1  0.4150660000000  0.5608790000000  0.4476340000000 1.0
C      1  0.4527850000000  0.5379900000000  0.5830020000000 1.0
C      1  0.4617890000000  0.5472620000000  0.4461880000000 1.0
C      1  0.6877340000000  0.4863150000000  0.5681860000000 1.0
C      1  0.4940550000000  0.4960740000000  0.5680510000000 1.0
C      1  0.4220800000000  0.4952340000000  0.5769370000000 1.0
C      1  0.4600300000000  0.4075860000000  0.5694110000000 1.0
C      1  0.5994060000000  0.4807900000000  0.4587550000000 1.0
C      1  0.4987950000000  0.4837170000000  0.5190900000000 1.0
C      1  0.5687320000000  0.5848490000000  0.5094760000000 1.0
C      1  0.5925770000000  0.5304750000000  0.4630450000000 1.0
C      1  0.5373160000000  0.4940270000000  0.3951300000000 1.0
C      1  0.5233060000000  0.4453410000000  0.5381340000000 1.0
C      1  0.4709140000000  0.5235280000000  0.5349990000000 1.0
C      1  0.5265030000000  0.4837990000000  0.4617940000000 1.0
C      1  0.4961030000000  0.5675350000000  0.5807050000000 1.0
C      1  0.4908430000000  0.5231050000000  0.6062980000000 1.0
C      1  0.4855400000000  0.4385680000000  0.4101470000000 1.0
C      1  0.5253330000000  0.4689680000000  0.5226450000000 1.0
C      1  0.5478760000000  0.5613540000000  0.4301910000000 1.0
C      1  0.4161450000000  0.4710600000000  0.5627190000000 1.0
C      1  0.4089720000000  0.5690840000000  0.4732930000000 1.0
C      1  0.5347780000000  0.5219890000000  0.5057850000000 1.0
C      1  0.4537310000000  0.5582590000000  0.4726010000000 1.0
C      1  0.4958240000000  0.5051210000000  0.5401060000000 1.0
C      1  0.5979480000000  0.5188210000000  0.5204930000000 1.0
C      1  0.5192440000000  0.5105130000000  0.4792120000000 1.0
C      1  0.4356030000000  0.4945090000000  0.5248760000000 1.0
C      1  0.4418700000000  0.5842020000000  0.5121320000000 1.0
C      1  0.4670180000000  0.3813170000000  0.4965820000000 1.0
C      1  0.4950920000000  0.4468100000000  0.5476850000000 1.0
C      1  0.5406510000000  0.4718180000000  0.3801180000000 1.0
C      1  0.3992660000000  0.4705200000000  0.5368870000000 1.0
C      1  0.4581320000000  0.5735990000000  0.5335660000000 1.0
C      1  0.4527670000000  0.4731110000000  0.4862100000000 1.0
C      1  0.4935560000000  0.5005490000000  0.4934960000000 1.0
C      1  0.5826950000000  0.5558520000000  0.4713960000000 1.0
C      1  0.4063180000000  0.4660470000000  0.4670850000000 1.0
C      1  0.5404290000000  0.4398820000000  0.5602540000000 1.0
C      1  0.4286790000000  0.5098830000000  0.4754590000000 1.0
END
