TITL C-3201376-6384-772 -6.86407372131082e-08 125000 -18.9723641415035 0 0 4 (D(inf)h) n - 1
REM
REM in /home/nfs/bkarasulu/CARBON/AIRSS/Generating-Clusters/LCBOP/Higher-Symm/SD-CG/FIRE-CG
REM
REM
REM
REM
REM
REM ./C.cell (b20cbc046b6831c77cfcea5457e17084)
REM AIRSS Version 0.9.1 bugfix July 2018 build 013d7b7c2542+ Fri, 06 Jul 2018 19:26:36 +0100
REM compiler GCC version 9.2.1 20190827 (Red Hat 9.2.1-1)
REM options -cpp -mtune=generic -march=x86-64 -g -O0 -fpre-include=/usr/include/finclude/math-vector-fortran.h
REM seed 1104374743 1484410315 1365260340 -1573699505 849480199 -263825191 -538145372 824847038 -793625472 -649001941 -331713463 1933127623 668146478 894152754 -921202273 -837254161 -1710588599 842173891 -1040228966 1027238640 1308301300 -932262966 -1804805050 -565365379 1431290185 502151539 -175132516 1448459382 -264594704 -2007817837 239837943 1992021688 1979791765
REM
CELL 1.54180   50.00000   50.00000   50.00000   90.00000   90.00000   90.00000
LATT -1
SFAC C  
C      1  0.4996940000000  0.4867430000000  0.5021310000000 1.0
C      1  0.4996940000000  0.4606730000000  0.5021310000000 1.0
C      1  0.4996940000000  0.5393270000000  0.5021310000000 1.0
C      1  0.4996940000000  0.5132570000000  0.5021310000000 1.0
END
