TITL C-3201373-1215-1891 -23.5537374984411 125000 -556.065446647699 0 0 91 (C1) n - 1
REM
REM in /home/nfs/bkarasulu/CARBON/AIRSS/Generating-Clusters/LCBOP/Higher-Symm/SD-CG/FIRE-CG
REM
REM
REM
REM
REM
REM ./C.cell (b20cbc046b6831c77cfcea5457e17084)
REM AIRSS Version 0.9.1 bugfix July 2018 build 013d7b7c2542+ Fri, 06 Jul 2018 19:26:36 +0100
REM compiler GCC version 9.2.1 20190827 (Red Hat 9.2.1-1)
REM options -cpp -mtune=generic -march=x86-64 -g -O0 -fpre-include=/usr/include/finclude/math-vector-fortran.h
REM seed -126282857 724686777 1315468047 263045760 -395153228 -554848540 -626930281 -1436558092 73887238 981948002 -888726044 747297380 1291354349 45802199 1485821069 -953101291 1306337554 856320332 2130706867 -653711043 -2058684329 -925566890 1721262725 -1209528137 1412059463 -132484446 -434574836 -78452032 -1250409659 562176415 -1617911143 904934666 34320724
REM
CELL 1.54180   50.00000   50.00000   50.00000   90.00000   90.00000   90.00000
LATT -1
SFAC C  
C      1  0.5164520000000  0.5159910000000  0.4927030000000 1.0
C      1  0.5242560000000  0.5406550000000  0.5335270000000 1.0
C      1  0.4803660000000  0.5022580000000  0.5229250000000 1.0
C      1  0.4765210000000  0.5500800000000  0.5164070000000 1.0
C      1  0.4785210000000  0.4456860000000  0.6121500000000 1.0
C      1  0.4813390000000  0.5136600000000  0.3800420000000 1.0
C      1  0.5319790000000  0.4426580000000  0.6055090000000 1.0
C      1  0.5342550000000  0.5136930000000  0.3899190000000 1.0
C      1  0.4738090000000  0.4701470000000  0.3962980000000 1.0
C      1  0.4781080000000  0.4928160000000  0.6150280000000 1.0
C      1  0.5343550000000  0.4706490000000  0.4092350000000 1.0
C      1  0.5385390000000  0.4893850000000  0.6084220000000 1.0
C      1  0.5515180000000  0.4411400000000  0.5322120000000 1.0
C      1  0.5551570000000  0.5491050000000  0.4541630000000 1.0
C      1  0.4448520000000  0.4461780000000  0.5439210000000 1.0
C      1  0.4469110000000  0.5443330000000  0.4401570000000 1.0
C      1  0.4684750000000  0.4352980000000  0.5878480000000 1.0
C      1  0.4716510000000  0.5343260000000  0.3967130000000 1.0
C      1  0.5360080000000  0.4319980000000  0.5796740000000 1.0
C      1  0.5391640000000  0.5346670000000  0.4081880000000 1.0
C      1  0.4338150000000  0.4928870000000  0.5338170000000 1.0
C      1  0.4365310000000  0.5413260000000  0.4883380000000 1.0
C      1  0.5518820000000  0.4858910000000  0.5137360000000 1.0
C      1  0.5654380000000  0.5514120000000  0.5028260000000 1.0
C      1  0.4014790000000  0.4909820000000  0.4687710000000 1.0
C      1  0.4010770000000  0.4710410000000  0.4865850000000 1.0
C      1  0.6046120000000  0.5022190000000  0.4780810000000 1.0
C      1  0.6027860000000  0.4771800000000  0.4874010000000 1.0
C      1  0.5634000000000  0.4708960000000  0.5702280000000 1.0
C      1  0.5602910000000  0.5021230000000  0.4370140000000 1.0
C      1  0.4442740000000  0.4768090000000  0.5831990000000 1.0
C      1  0.4406050000000  0.5018510000000  0.4142700000000 1.0
C      1  0.5423520000000  0.5105810000000  0.5058610000000 1.0
C      1  0.5487220000000  0.5354720000000  0.5188430000000 1.0
C      1  0.4527010000000  0.5116620000000  0.5256730000000 1.0
C      1  0.4511700000000  0.5365650000000  0.5114810000000 1.0
C      1  0.4595910000000  0.4205470000000  0.5020870000000 1.0
C      1  0.4613580000000  0.5859770000000  0.4659410000000 1.0
C      1  0.5271390000000  0.4150310000000  0.4954370000000 1.0
C      1  0.5286930000000  0.5872090000000  0.4757270000000 1.0
C      1  0.5125270000000  0.4133200000000  0.5404950000000 1.0
C      1  0.5167430000000  0.5704720000000  0.4332120000000 1.0
C      1  0.4823260000000  0.4145860000000  0.5430300000000 1.0
C      1  0.4867260000000  0.5707810000000  0.4293090000000 1.0
C      1  0.5524730000000  0.4464820000000  0.5607510000000 1.0
C      1  0.5536540000000  0.5293630000000  0.4328010000000 1.0
C      1  0.4505660000000  0.4515060000000  0.5719350000000 1.0
C      1  0.4511100000000  0.5282070000000  0.4162810000000 1.0
C      1  0.5110510000000  0.4990110000000  0.4706770000000 1.0
C      1  0.5225280000000  0.5584840000000  0.5552540000000 1.0
C      1  0.4812800000000  0.4776440000000  0.5080800000000 1.0
C      1  0.4751220000000  0.5719080000000  0.5350170000000 1.0
C      1  0.4929900000000  0.4884720000000  0.3864270000000 1.0
C      1  0.4934670000000  0.4692380000000  0.6178970000000 1.0
C      1  0.5207980000000  0.4886480000000  0.3921410000000 1.0
C      1  0.5215780000000  0.4675930000000  0.6145370000000 1.0
C      1  0.5218040000000  0.5563840000000  0.4079890000000 1.0
C      1  0.5168850000000  0.4145760000000  0.5694980000000 1.0
C      1  0.4883290000000  0.5559420000000  0.4004390000000 1.0
C      1  0.4831560000000  0.4154610000000  0.5755620000000 1.0
C      1  0.4651850000000  0.5649660000000  0.5610120000000 1.0
C      1  0.4617200000000  0.4765780000000  0.4869220000000 1.0
C      1  0.5077550000000  0.5508960000000  0.5783630000000 1.0
C      1  0.4876610000000  0.5012600000000  0.4550970000000 1.0
C      1  0.5948490000000  0.5267540000000  0.4736620000000 1.0
C      1  0.5884010000000  0.4591750000000  0.5012930000000 1.0
C      1  0.4113960000000  0.5137870000000  0.4588930000000 1.0
C      1  0.4103890000000  0.4597780000000  0.5090660000000 1.0
C      1  0.5349100000000  0.5696860000000  0.4546350000000 1.0
C      1  0.5321840000000  0.4220450000000  0.5223040000000 1.0
C      1  0.4634630000000  0.5676500000000  0.4446410000000 1.0
C      1  0.4605300000000  0.4263870000000  0.5297000000000 1.0
C      1  0.5640430000000  0.4605770000000  0.5153310000000 1.0
C      1  0.5734970000000  0.5451570000000  0.4760660000000 1.0
C      1  0.4281830000000  0.4652550000000  0.5301780000000 1.0
C      1  0.4304080000000  0.5344460000000  0.4616610000000 1.0
C      1  0.5191890000000  0.5857380000000  0.5471960000000 1.0
C      1  0.5174180000000  0.4719190000000  0.4780400000000 1.0
C      1  0.4953520000000  0.5919200000000  0.5354370000000 1.0
C      1  0.5048620000000  0.4637300000000  0.5009920000000 1.0
C      1  0.4559220000000  0.4947440000000  0.5996220000000 1.0
C      1  0.4501730000000  0.4775280000000  0.4073810000000 1.0
C      1  0.5571100000000  0.4894790000000  0.5887250000000 1.0
C      1  0.5522480000000  0.4779310000000  0.4282190000000 1.0
C      1  0.5046540000000  0.4110810000000  0.4810910000000 1.0
C      1  0.5063780000000  0.5998200000000  0.4837460000000 1.0
C      1  0.4779990000000  0.4135830000000  0.4836830000000 1.0
C      1  0.4797860000000  0.5994930000000  0.4801190000000 1.0
C      1  0.4808840000000  0.5545510000000  0.5806690000000 1.0
C      1  0.4649370000000  0.4884530000000  0.4627400000000 1.0
C      1  0.4993660000000  0.5283700000000  0.5165760000000 1.0
END
