TITL C-3201372-1405-1055 -1.56091614668985e-06 125000 -1066.05503491637 0 0 170 (C1) n - 1
REM
REM in /home/nfs/bkarasulu/CARBON/AIRSS/Generating-Clusters/LCBOP/Higher-Symm/SD-CG/FIRE-CG
REM
REM
REM
REM
REM
REM ./C.cell (b20cbc046b6831c77cfcea5457e17084)
REM AIRSS Version 0.9.1 bugfix July 2018 build 013d7b7c2542+ Fri, 06 Jul 2018 19:26:36 +0100
REM compiler GCC version 9.2.1 20190827 (Red Hat 9.2.1-1)
REM options -cpp -mtune=generic -march=x86-64 -g -O0 -fpre-include=/usr/include/finclude/math-vector-fortran.h
REM seed 928081854 -214518412 1524354751 1029714385 -1183416621 1390243728 -1093263010 977475734 -1819606277 957703468 2027706092 -2137730389 916398232 1681009001 1759344846 1789801258 440993965 1301692611 -1815744870 2040635036 -246383000 -2104677413 -1700525016 1749315057 1853221221 -240862060 -1449393345 -956046841 598206968 -1142152316 -858134567 -835569769 -929715124
REM
CELL 1.54180   50.00000   50.00000   50.00000   90.00000   90.00000   90.00000
LATT -1
SFAC C  
C      1  0.5274760000000  0.3997490000000  0.5153460000000 1.0
C      1  0.5409960000000  0.5546860000000  0.5775780000000 1.0
C      1  0.5358090000000  0.5392820000000  0.4134180000000 1.0
C      1  0.6056850000000  0.4896090000000  0.4983750000000 1.0
C      1  0.6057630000000  0.4592670000000  0.5020030000000 1.0
C      1  0.6070090000000  0.5088150000000  0.5223650000000 1.0
C      1  0.4534540000000  0.4514830000000  0.4683260000000 1.0
C      1  0.4625300000000  0.5076890000000  0.5559710000000 1.0
C      1  0.4556230000000  0.5476280000000  0.4749780000000 1.0
C      1  0.5269770000000  0.4582080000000  0.5525500000000 1.0
C      1  0.5371040000000  0.5633320000000  0.5014180000000 1.0
C      1  0.5307910000000  0.4700910000000  0.4469560000000 1.0
C      1  0.3963400000000  0.4514180000000  0.4609440000000 1.0
C      1  0.4045710000000  0.5010640000000  0.5640930000000 1.0
C      1  0.3780410000000  0.5316440000000  0.4636090000000 1.0
C      1  0.5153880000000  0.5171290000000  0.5564550000000 1.0
C      1  0.5057520000000  0.5375910000000  0.4509960000000 1.0
C      1  0.5037930000000  0.4359070000000  0.4905150000000 1.0
C      1  0.5875700000000  0.4513400000000  0.5232570000000 1.0
C      1  0.5987440000000  0.5369780000000  0.5183670000000 1.0
C      1  0.5898800000000  0.4991950000000  0.4750570000000 1.0
C      1  0.5026300000000  0.4922680000000  0.5641890000000 1.0
C      1  0.5015740000000  0.5534600000000  0.4740160000000 1.0
C      1  0.4987630000000  0.4455080000000  0.4639740000000 1.0
C      1  0.4523790000000  0.5208230000000  0.4693090000000 1.0
C      1  0.4515400000000  0.4633560000000  0.4935480000000 1.0
C      1  0.4606850000000  0.5187640000000  0.5307480000000 1.0
C      1  0.4505420000000  0.4247760000000  0.4298650000000 1.0
C      1  0.4384280000000  0.4903470000000  0.5945290000000 1.0
C      1  0.4483120000000  0.5921950000000  0.4772540000000 1.0
C      1  0.4363890000000  0.4170710000000  0.5222520000000 1.0
C      1  0.4542940000000  0.5754250000000  0.5704880000000 1.0
C      1  0.4461950000000  0.5195190000000  0.4134130000000 1.0
C      1  0.5316490000000  0.4162800000000  0.4479640000000 1.0
C      1  0.5333030000000  0.4883770000000  0.5970570000000 1.0
C      1  0.5266660000000  0.5895830000000  0.4572850000000 1.0
C      1  0.5198750000000  0.4430820000000  0.4453160000000 1.0
C      1  0.5189000000000  0.4723580000000  0.5767880000000 1.0
C      1  0.5215020000000  0.5719170000000  0.4792670000000 1.0
C      1  0.5849510000000  0.4225350000000  0.4434920000000 1.0
C      1  0.5843650000000  0.4782170000000  0.5855120000000 1.0
C      1  0.5598220000000  0.6243570000000  0.4443750000000 1.0
C      1  0.4696940000000  0.5624890000000  0.5891100000000 1.0
C      1  0.4542480000000  0.5454060000000  0.4172870000000 1.0
C      1  0.4506250000000  0.4045090000000  0.5023730000000 1.0
C      1  0.5797070000000  0.5641450000000  0.4102580000000 1.0
C      1  0.5792170000000  0.3968370000000  0.4993280000000 1.0
C      1  0.5909710000000  0.5354010000000  0.5849060000000 1.0
C      1  0.5337730000000  0.5796430000000  0.5628390000000 1.0
C      1  0.5340160000000  0.5113260000000  0.4027780000000 1.0
C      1  0.5172670000000  0.4019880000000  0.5437270000000 1.0
C      1  0.4784880000000  0.5554950000000  0.4891580000000 1.0
C      1  0.4766220000000  0.4588730000000  0.4539320000000 1.0
C      1  0.4769460000000  0.4841580000000  0.5583690000000 1.0
C      1  0.3789020000000  0.4283900000000  0.4664550000000 1.0
C      1  0.4123190000000  0.5044410000000  0.5918450000000 1.0
C      1  0.3631770000000  0.5317920000000  0.4401230000000 1.0
C      1  0.4452790000000  0.4257760000000  0.4592910000000 1.0
C      1  0.4565000000000  0.5188250000000  0.5792490000000 1.0
C      1  0.4440440000000  0.5684090000000  0.4596900000000 1.0
C      1  0.5644550000000  0.5429240000000  0.4198000000000 1.0
C      1  0.5569460000000  0.3992360000000  0.5163820000000 1.0
C      1  0.5702680000000  0.5523460000000  0.5764690000000 1.0
C      1  0.4753910000000  0.5729300000000  0.5123800000000 1.0
C      1  0.4747950000000  0.4660580000000  0.4253070000000 1.0
C      1  0.4649950000000  0.4580060000000  0.5618500000000 1.0
C      1  0.4037300000000  0.5186030000000  0.4594160000000 1.0
C      1  0.4047770000000  0.4589590000000  0.4885800000000 1.0
C      1  0.4166530000000  0.5229720000000  0.5485870000000 1.0
C      1  0.5705210000000  0.4768360000000  0.3951090000000 1.0
C      1  0.5433850000000  0.3980580000000  0.5870890000000 1.0
C      1  0.5632920000000  0.6166230000000  0.5445220000000 1.0
C      1  0.5637430000000  0.4657730000000  0.5217830000000 1.0
C      1  0.5829590000000  0.5453320000000  0.4966590000000 1.0
C      1  0.5623750000000  0.4927140000000  0.4782150000000 1.0
C      1  0.5090490000000  0.5813210000000  0.4350400000000 1.0
C      1  0.5114260000000  0.3997330000000  0.4640130000000 1.0
C      1  0.5171210000000  0.5134690000000  0.6031250000000 1.0
C      1  0.6097990000000  0.4365450000000  0.4836010000000 1.0
C      1  0.6107040000000  0.5019050000000  0.5508210000000 1.0
C      1  0.5857920000000  0.6142320000000  0.4040850000000 1.0
C      1  0.4156750000000  0.4584050000000  0.5490650000000 1.0
C      1  0.4261650000000  0.5713620000000  0.5250250000000 1.0
C      1  0.4267580000000  0.4698230000000  0.4222950000000 1.0
C      1  0.4262730000000  0.4743830000000  0.4983950000000 1.0
C      1  0.4328200000000  0.5170620000000  0.5246600000000 1.0
C      1  0.4259230000000  0.5136720000000  0.4756050000000 1.0
C      1  0.4698700000000  0.6053940000000  0.4613150000000 1.0
C      1  0.4720590000000  0.4046770000000  0.4292190000000 1.0
C      1  0.4675020000000  0.4927480000000  0.6144250000000 1.0
C      1  0.4804030000000  0.5886160000000  0.4380400000000 1.0
C      1  0.4826310000000  0.3968160000000  0.4561070000000 1.0
C      1  0.4882300000000  0.5145240000000  0.6104490000000 1.0
C      1  0.5518360000000  0.6024570000000  0.4596060000000 1.0
C      1  0.5591000000000  0.4226220000000  0.4553770000000 1.0
C      1  0.5593990000000  0.4915260000000  0.5840250000000 1.0
C      1  0.4765990000000  0.4715460000000  0.5044340000000 1.0
C      1  0.4857330000000  0.5169300000000  0.5173680000000 1.0
C      1  0.4771580000000  0.5062560000000  0.4711160000000 1.0
C      1  0.5530070000000  0.4977640000000  0.5560190000000 1.0
C      1  0.5694900000000  0.5890350000000  0.4777140000000 1.0
C      1  0.5582610000000  0.4445030000000  0.4744860000000 1.0
C      1  0.4174960000000  0.5462540000000  0.5660420000000 1.0
C      1  0.4032880000000  0.5108590000000  0.4307610000000 1.0
C      1  0.3961790000000  0.4386140000000  0.5083800000000 1.0
C      1  0.5098620000000  0.5273430000000  0.5300690000000 1.0
C      1  0.4992390000000  0.5107730000000  0.4538580000000 1.0
C      1  0.4967360000000  0.4529080000000  0.5113130000000 1.0
C      1  0.5154630000000  0.5526880000000  0.4283170000000 1.0
C      1  0.5138040000000  0.4088280000000  0.4921950000000 1.0
C      1  0.5241060000000  0.5320830000000  0.5801730000000 1.0
C      1  0.4153460000000  0.4357450000000  0.5296600000000 1.0
C      1  0.4317700000000  0.5682090000000  0.5544180000000 1.0
C      1  0.4266980000000  0.4992170000000  0.4197660000000 1.0
C      1  0.4027090000000  0.5533390000000  0.5159620000000 1.0
C      1  0.4023910000000  0.4581150000000  0.4335770000000 1.0
C      1  0.3967840000000  0.4819320000000  0.5442060000000 1.0
C      1  0.5189660000000  0.5533210000000  0.5218600000000 1.0
C      1  0.5118080000000  0.4899790000000  0.4399770000000 1.0
C      1  0.5047490000000  0.4484320000000  0.5377070000000 1.0
C      1  0.5764830000000  0.5169200000000  0.4261970000000 1.0
C      1  0.5646390000000  0.4097960000000  0.5427660000000 1.0
C      1  0.5795880000000  0.5699690000000  0.5549380000000 1.0
C      1  0.3841330000000  0.5011460000000  0.5239600000000 1.0
C      1  0.3873620000000  0.5291170000000  0.5170880000000 1.0
C      1  0.3825550000000  0.4525050000000  0.4150810000000 1.0
C      1  0.5669130000000  0.4614960000000  0.3734830000000 1.0
C      1  0.5304370000000  0.3865580000000  0.6074790000000 1.0
C      1  0.5527770000000  0.6412180000000  0.5442830000000 1.0
C      1  0.4477250000000  0.5840210000000  0.5075180000000 1.0
C      1  0.4500200000000  0.4525880000000  0.4183380000000 1.0
C      1  0.4377710000000  0.4633390000000  0.5697880000000 1.0
C      1  0.4911640000000  0.4088240000000  0.5555410000000 1.0
C      1  0.5084330000000  0.5885280000000  0.5519850000000 1.0
C      1  0.5109660000000  0.4951640000000  0.3946030000000 1.0
C      1  0.4125870000000  0.5344440000000  0.5929340000000 1.0
C      1  0.3778580000000  0.5194090000000  0.4200910000000 1.0
C      1  0.3788100000000  0.4215210000000  0.4932870000000 1.0
C      1  0.6035630000000  0.4785660000000  0.5659180000000 1.0
C      1  0.5737760000000  0.6298690000000  0.4222310000000 1.0
C      1  0.6062220000000  0.4356050000000  0.4551900000000 1.0
C      1  0.5089990000000  0.4854140000000  0.3683880000000 1.0
C      1  0.4783440000000  0.3912460000000  0.5732190000000 1.0
C      1  0.4983430000000  0.6139540000000  0.5580550000000 1.0
C      1  0.5461350000000  0.4753010000000  0.5401050000000 1.0
C      1  0.5645380000000  0.5661910000000  0.4942040000000 1.0
C      1  0.5498140000000  0.4706330000000  0.4676010000000 1.0
C      1  0.5875950000000  0.5877600000000  0.4009650000000 1.0
C      1  0.6019570000000  0.4108440000000  0.4944970000000 1.0
C      1  0.6103600000000  0.5232230000000  0.5703270000000 1.0
C      1  0.4963820000000  0.4827870000000  0.4162170000000 1.0
C      1  0.4833550000000  0.4367470000000  0.5538080000000 1.0
C      1  0.4987940000000  0.5735950000000  0.5296020000000 1.0
C      1  0.4725110000000  0.5350530000000  0.5956140000000 1.0
C      1  0.4577130000000  0.5689470000000  0.4333520000000 1.0
C      1  0.4588960000000  0.4044090000000  0.4747970000000 1.0
C      1  0.5054600000000  0.3777210000000  0.6118990000000 1.0
C      1  0.5286900000000  0.6517300000000  0.5498520000000 1.0
C      1  0.5478900000000  0.4585690000000  0.3547500000000 1.0
C      1  0.5055410000000  0.6397250000000  0.5563960000000 1.0
C      1  0.5234440000000  0.4694940000000  0.3523130000000 1.0
C      1  0.4833420000000  0.3792580000000  0.5966890000000 1.0
C      1  0.5931700000000  0.5103490000000  0.4486160000000 1.0
C      1  0.5854500000000  0.4291120000000  0.5411110000000 1.0
C      1  0.5988000000000  0.5578250000000  0.5380990000000 1.0
C      1  0.5606660000000  0.4989670000000  0.4090190000000 1.0
C      1  0.5421520000000  0.4047390000000  0.5600470000000 1.0
C      1  0.5593070000000  0.5900750000000  0.5519260000000 1.0
C      1  0.4843420000000  0.4976250000000  0.4971230000000 1.0
C      1  0.4248730000000  0.5021670000000  0.5012940000000 1.0
END
