TITL C-3201378-2706-1300 206901.133390353 125000 -1046.70707267217 0 0 173 (C1) n - 1
REM
REM in /home/nfs/bkarasulu/CARBON/AIRSS/Generating-Clusters/LCBOP/Higher-Symm/SD-CG/FIRE-CG
REM
REM
REM
REM
REM
REM ./C.cell (b20cbc046b6831c77cfcea5457e17084)
REM AIRSS Version 0.9.1 bugfix July 2018 build 013d7b7c2542+ Fri, 06 Jul 2018 19:26:36 +0100
REM compiler GCC version 9.2.1 20190827 (Red Hat 9.2.1-1)
REM options -cpp -mtune=generic -march=x86-64 -g -O0 -fpre-include=/usr/include/finclude/math-vector-fortran.h
REM seed 1200439991 -1540693036 -25748393 -196494322 2137515180 -1026880793 2099810354 -526962241 -878940880 -1376394113 1083597033 -327571277 -816730170 1866238619 1509751313 -1970047726 1642746438 -1155817659 -2011790053 -75639766 -508554047 1710835148 787435571 1106901880 -402468842 1217443189 -1656429142 574589988 -1933482393 1847903934 -1689102606 730538188 73226609
REM
CELL 1.54180   50.00000   50.00000   50.00000   90.00000   90.00000   90.00000
LATT -1
SFAC C  
C      1  0.4836320000000  0.5902590000000  0.5782560000000 1.0
C      1  0.4873930000000  0.4129290000000  0.4234380000000 1.0
C      1  0.5099350000000  0.5875080000000  0.5754750000000 1.0
C      1  0.5136530000000  0.4100730000000  0.4205680000000 1.0
C      1  0.4848750000000  0.5871340000000  0.4240570000000 1.0
C      1  0.4895690000000  0.4099510000000  0.5787180000000 1.0
C      1  0.5116020000000  0.5861470000000  0.4236330000000 1.0
C      1  0.5162170000000  0.4099150000000  0.5789620000000 1.0
C      1  0.3857880000000  0.5122400000000  0.5184090000000 1.0
C      1  0.3858340000000  0.4787990000000  0.4894790000000 1.0
C      1  0.6152740000000  0.5210660000000  0.5144170000000 1.0
C      1  0.6154750000000  0.4789540000000  0.4928590000000 1.0
C      1  0.3833290000000  0.5190540000000  0.4917930000000 1.0
C      1  0.3875060000000  0.4825960000000  0.5165890000000 1.0
C      1  0.6161870000000  0.5179000000000  0.4884440000000 1.0
C      1  0.6141650000000  0.4823690000000  0.5191750000000 1.0
C      1  0.5123230000000  0.4333250000000  0.3738390000000 1.0
C      1  0.5142230000000  0.5671510000000  0.6248290000000 1.0
C      1  0.4852350000000  0.4338180000000  0.3744070000000 1.0
C      1  0.4871250000000  0.5671840000000  0.6253540000000 1.0
C      1  0.5111940000000  0.4410670000000  0.6360030000000 1.0
C      1  0.5164160000000  0.5589190000000  0.3673270000000 1.0
C      1  0.4839460000000  0.4415680000000  0.6345810000000 1.0
C      1  0.4892340000000  0.5598360000000  0.3661950000000 1.0
C      1  0.5539390000000  0.4672520000000  0.6247270000000 1.0
C      1  0.5569900000000  0.5309230000000  0.3802040000000 1.0
C      1  0.4431760000000  0.4689190000000  0.6204830000000 1.0
C      1  0.4465010000000  0.5337840000000  0.3768280000000 1.0
C      1  0.5577580000000  0.4579250000000  0.3796450000000 1.0
C      1  0.5584780000000  0.5403600000000  0.6199510000000 1.0
C      1  0.4412720000000  0.4607320000000  0.3799400000000 1.0
C      1  0.4419000000000  0.5419380000000  0.6201290000000 1.0
C      1  0.5162440000000  0.5222040000000  0.6052040000000 1.0
C      1  0.5164970000000  0.4768440000000  0.3962780000000 1.0
C      1  0.4834580000000  0.5227140000000  0.6046830000000 1.0
C      1  0.4835980000000  0.4782970000000  0.3953590000000 1.0
C      1  0.5151590000000  0.5307420000000  0.4063380000000 1.0
C      1  0.5141140000000  0.4675460000000  0.5965460000000 1.0
C      1  0.4861310000000  0.5328530000000  0.4056270000000 1.0
C      1  0.4853650000000  0.4688810000000  0.5953870000000 1.0
C      1  0.4706230000000  0.4894520000000  0.4212950000000 1.0
C      1  0.4709800000000  0.5130810000000  0.5773720000000 1.0
C      1  0.5293670000000  0.4858130000000  0.4237020000000 1.0
C      1  0.5288790000000  0.5109420000000  0.5791260000000 1.0
C      1  0.4722610000000  0.4833230000000  0.5742190000000 1.0
C      1  0.4692500000000  0.5186790000000  0.4236320000000 1.0
C      1  0.5295930000000  0.4816170000000  0.5774450000000 1.0
C      1  0.5300580000000  0.5154190000000  0.4257520000000 1.0
C      1  0.4665780000000  0.4279410000000  0.4301670000000 1.0
C      1  0.4596820000000  0.5788680000000  0.5755970000000 1.0
C      1  0.5374620000000  0.4216270000000  0.4233870000000 1.0
C      1  0.5314160000000  0.5731360000000  0.5693740000000 1.0
C      1  0.4666280000000  0.4210610000000  0.5709320000000 1.0
C      1  0.4602040000000  0.5787410000000  0.4302590000000 1.0
C      1  0.5391530000000  0.4210670000000  0.5711000000000 1.0
C      1  0.5358970000000  0.5762420000000  0.4289570000000 1.0
C      1  0.4589160000000  0.5327360000000  0.5584860000000 1.0
C      1  0.4604580000000  0.4742600000000  0.4437330000000 1.0
C      1  0.5389340000000  0.5267060000000  0.5566700000000 1.0
C      1  0.5413440000000  0.4666980000000  0.4435540000000 1.0
C      1  0.4536010000000  0.5329000000000  0.4434570000000 1.0
C      1  0.4635270000000  0.4662510000000  0.5528410000000 1.0
C      1  0.5446970000000  0.5309380000000  0.4447780000000 1.0
C      1  0.5413970000000  0.4668530000000  0.5560860000000 1.0
C      1  0.5180740000000  0.5232840000000  0.5125790000000 1.0
C      1  0.5254000000000  0.4564270000000  0.4901370000000 1.0
C      1  0.4736280000000  0.5441780000000  0.5122700000000 1.0
C      1  0.4851630000000  0.4851480000000  0.4845640000000 1.0
C      1  0.5213100000000  0.5311990000000  0.4859700000000 1.0
C      1  0.5163030000000  0.4687080000000  0.5141410000000 1.0
C      1  0.4757020000000  0.5402340000000  0.4845580000000 1.0
C      1  0.4896100000000  0.4772590000000  0.5112370000000 1.0
C      1  0.4177160000000  0.4438420000000  0.5173240000000 1.0
C      1  0.4096850000000  0.5581500000000  0.4857340000000 1.0
C      1  0.5813510000000  0.4338760000000  0.5073060000000 1.0
C      1  0.5842530000000  0.5562090000000  0.4847090000000 1.0
C      1  0.4158990000000  0.4440590000000  0.4843230000000 1.0
C      1  0.4120230000000  0.5559640000000  0.5212770000000 1.0
C      1  0.5855390000000  0.4409020000000  0.4786690000000 1.0
C      1  0.5842320000000  0.5577090000000  0.5159420000000 1.0
C      1  0.5915330000000  0.5217360000000  0.4731090000000 1.0
C      1  0.5904370000000  0.4823060000000  0.5342120000000 1.0
C      1  0.4074230000000  0.5282750000000  0.4775970000000 1.0
C      1  0.4142190000000  0.4734050000000  0.5295190000000 1.0
C      1  0.5888990000000  0.5290550000000  0.5272900000000 1.0
C      1  0.5923110000000  0.4711260000000  0.4745940000000 1.0
C      1  0.4108190000000  0.5223520000000  0.5324010000000 1.0
C      1  0.4113480000000  0.4737790000000  0.4754050000000 1.0
C      1  0.5349170000000  0.3857670000000  0.5105640000000 1.0
C      1  0.5345370000000  0.6089400000000  0.4864600000000 1.0
C      1  0.4620580000000  0.3865950000000  0.5116330000000 1.0
C      1  0.4598760000000  0.6100080000000  0.4876490000000 1.0
C      1  0.5357530000000  0.3879960000000  0.4819790000000 1.0
C      1  0.5342740000000  0.6098910000000  0.5150540000000 1.0
C      1  0.4623530000000  0.3885110000000  0.4831000000000 1.0
C      1  0.4602640000000  0.6099430000000  0.5162530000000 1.0
C      1  0.4532080000000  0.4392380000000  0.5540870000000 1.0
C      1  0.4440120000000  0.5604200000000  0.4449310000000 1.0
C      1  0.5511310000000  0.4393910000000  0.5529220000000 1.0
C      1  0.5525450000000  0.5587220000000  0.4437960000000 1.0
C      1  0.4523350000000  0.4461040000000  0.4465070000000 1.0
C      1  0.4459910000000  0.5594110000000  0.5603890000000 1.0
C      1  0.5521190000000  0.4397030000000  0.4390990000000 1.0
C      1  0.5467580000000  0.5550470000000  0.5538760000000 1.0
C      1  0.4854580000000  0.3801440000000  0.4694750000000 1.0
C      1  0.4840750000000  0.6182690000000  0.5286610000000 1.0
C      1  0.5121930000000  0.3804840000000  0.4685240000000 1.0
C      1  0.5108230000000  0.6186060000000  0.5278470000000 1.0
C      1  0.4850340000000  0.3763750000000  0.5241090000000 1.0
C      1  0.4837930000000  0.6163390000000  0.4742160000000 1.0
C      1  0.5117210000000  0.3758000000000  0.5229170000000 1.0
C      1  0.5105580000000  0.6157250000000  0.4734020000000 1.0
C      1  0.4432070000000  0.4052120000000  0.4713280000000 1.0
C      1  0.4396350000000  0.5959340000000  0.5292380000000 1.0
C      1  0.5566310000000  0.4022810000000  0.4694140000000 1.0
C      1  0.5544990000000  0.5954720000000  0.5279950000000 1.0
C      1  0.4427770000000  0.4017010000000  0.5252750000000 1.0
C      1  0.4379230000000  0.5975450000000  0.4754160000000 1.0
C      1  0.5538670000000  0.3998170000000  0.5254350000000 1.0
C      1  0.5561870000000  0.5954990000000  0.4745180000000 1.0
C      1  0.4769590000000  0.4963830000000  0.3705310000000 1.0
C      1  0.4749610000000  0.5042550000000  0.6285500000000 1.0
C      1  0.5250400000000  0.4959810000000  0.3728160000000 1.0
C      1  0.5232350000000  0.5046920000000  0.6303230000000 1.0
C      1  0.4847940000000  0.4978910000000  0.6529200000000 1.0
C      1  0.4886710000000  0.5030280000000  0.3471160000000 1.0
C      1  0.5117860000000  0.4982000000000  0.6539150000000 1.0
C      1  0.5156460000000  0.5028200000000  0.3483950000000 1.0
C      1  0.4722450000000  0.5444320000000  0.3828140000000 1.0
C      1  0.4689830000000  0.4576480000000  0.6165230000000 1.0
C      1  0.5312820000000  0.5422630000000  0.3848360000000 1.0
C      1  0.5282130000000  0.4563620000000  0.6192060000000 1.0
C      1  0.4694110000000  0.5478880000000  0.6147530000000 1.0
C      1  0.4684230000000  0.4535930000000  0.3856120000000 1.0
C      1  0.5312520000000  0.5472160000000  0.6142720000000 1.0
C      1  0.5302780000000  0.4519480000000  0.3852250000000 1.0
C      1  0.5428080000000  0.5220390000000  0.4711850000000 1.0
C      1  0.5386770000000  0.4809400000000  0.5302150000000 1.0
C      1  0.4568630000000  0.5213550000000  0.4706480000000 1.0
C      1  0.4659890000000  0.4760540000000  0.5266980000000 1.0
C      1  0.5385470000000  0.5120500000000  0.5303760000000 1.0
C      1  0.5424400000000  0.4700930000000  0.4723590000000 1.0
C      1  0.4597750000000  0.5281040000000  0.5302770000000 1.0
C      1  0.4608590000000  0.4900040000000  0.4693390000000 1.0
C      1  0.4366160000000  0.5153850000000  0.5173990000000 1.0
C      1  0.4374990000000  0.4822000000000  0.4857300000000 1.0
C      1  0.5637460000000  0.5184490000000  0.5144200000000 1.0
C      1  0.5660190000000  0.4815680000000  0.4869730000000 1.0
C      1  0.4333280000000  0.5216120000000  0.4886390000000 1.0
C      1  0.4400030000000  0.4849310000000  0.5152080000000 1.0
C      1  0.5656240000000  0.5114080000000  0.4857020000000 1.0
C      1  0.5665330000000  0.4760180000000  0.5178420000000 1.0
C      1  0.4277220000000  0.5187690000000  0.6216350000000 1.0
C      1  0.4285940000000  0.4846240000000  0.3770160000000 1.0
C      1  0.5713400000000  0.5165990000000  0.6232330000000 1.0
C      1  0.5720980000000  0.4810060000000  0.3782630000000 1.0
C      1  0.4309960000000  0.5115760000000  0.3759430000000 1.0
C      1  0.4285940000000  0.4917110000000  0.6215010000000 1.0
C      1  0.5714590000000  0.5080740000000  0.3786990000000 1.0
C      1  0.5692110000000  0.4896460000000  0.6248990000000 1.0
C      1  0.5639890000000  0.4261360000000  0.5293900000000 1.0
C      1  0.5668990000000  0.5704050000000  0.4666990000000 1.0
C      1  0.4361270000000  0.4278960000000  0.5331750000000 1.0
C      1  0.4281920000000  0.5721020000000  0.4675820000000 1.0
C      1  0.5676530000000  0.4270790000000  0.4603610000000 1.0
C      1  0.5631970000000  0.5690870000000  0.5333580000000 1.0
C      1  0.4358220000000  0.4320590000000  0.4667030000000 1.0
C      1  0.4300300000000  0.5706890000000  0.5379250000000 1.0
C      1  0.5893530000000  0.5075630000000  0.5499900000000 1.0
C      1  0.4133110000000  0.4969120000000  0.5526000000000 1.0
C      1  0.5954680000000  0.4956120000000  0.4533440000000 1.0
C      1  0.4075450000000  0.5017360000000  0.4542270000000 1.0
C      1  0.5006950000000  0.5451100000000  0.4738580000000 1.0
END
