TITL C-3201378-2706-121 -8.9919523232537e-07 125000 -808.712131360823 0 0 132 (C1) n - 1
REM
REM in /home/nfs/bkarasulu/CARBON/AIRSS/Generating-Clusters/LCBOP/Higher-Symm/SD-CG/FIRE-CG
REM
REM
REM
REM
REM
REM ./C.cell (b20cbc046b6831c77cfcea5457e17084)
REM AIRSS Version 0.9.1 bugfix July 2018 build 013d7b7c2542+ Fri, 06 Jul 2018 19:26:36 +0100
REM compiler GCC version 9.2.1 20190827 (Red Hat 9.2.1-1)
REM options -cpp -mtune=generic -march=x86-64 -g -O0 -fpre-include=/usr/include/finclude/math-vector-fortran.h
REM seed -1172067465 -1669189862 1200739690 -622194193 -1301189107 1617815883 -1852401903 895201490 -773913165 2134886121 -1669216810 -2137031438 -324333372 905878871 533931926 -1984620566 -397751418 -1250114319 1521179399 -1543492 727660300 700477404 1195746201 -1699723110 -599239663 -653877497 -1057207400 1892923447 -1741662868 -1692343381 -1237989447 1759030834 -193442090
REM
CELL 1.54180   50.00000   50.00000   50.00000   90.00000   90.00000   90.00000
LATT -1
SFAC C  
C      1  0.5266660000000  0.5787370000000  0.4557610000000 1.0
C      1  0.4729620000000  0.4171380000000  0.4569520000000 1.0
C      1  0.5368260000000  0.4423320000000  0.5276920000000 1.0
C      1  0.4612840000000  0.5597630000000  0.5301740000000 1.0
C      1  0.5533540000000  0.4976950000000  0.4041080000000 1.0
C      1  0.4466090000000  0.5032820000000  0.3985300000000 1.0
C      1  0.5728430000000  0.5375420000000  0.5402130000000 1.0
C      1  0.4300370000000  0.4624530000000  0.5396390000000 1.0
C      1  0.4264150000000  0.5560820000000  0.4456810000000 1.0
C      1  0.5589280000000  0.4449010000000  0.4565410000000 1.0
C      1  0.4900350000000  0.5659520000000  0.5250340000000 1.0
C      1  0.5109250000000  0.4289620000000  0.5273470000000 1.0
C      1  0.5100020000000  0.4622190000000  0.4013070000000 1.0
C      1  0.4901150000000  0.5382480000000  0.4023930000000 1.0
C      1  0.4535280000000  0.5531780000000  0.5025260000000 1.0
C      1  0.5387720000000  0.4530640000000  0.5004440000000 1.0
C      1  0.4977130000000  0.5608570000000  0.4965830000000 1.0
C      1  0.5058800000000  0.4172610000000  0.5015250000000 1.0
C      1  0.4822160000000  0.5235050000000  0.5486120000000 1.0
C      1  0.5166620000000  0.4765710000000  0.5484110000000 1.0
C      1  0.6079890000000  0.5111860000000  0.4357720000000 1.0
C      1  0.3974190000000  0.4856080000000  0.4357840000000 1.0
C      1  0.5167670000000  0.5071280000000  0.5998520000000 1.0
C      1  0.4844250000000  0.4924870000000  0.6002220000000 1.0
C      1  0.5034160000000  0.4861700000000  0.4435880000000 1.0
C      1  0.5016100000000  0.5130710000000  0.4422710000000 1.0
C      1  0.5594600000000  0.4986760000000  0.5720420000000 1.0
C      1  0.4414160000000  0.5010350000000  0.5728240000000 1.0
C      1  0.4818000000000  0.4638950000000  0.5946540000000 1.0
C      1  0.5192770000000  0.5357050000000  0.5943600000000 1.0
C      1  0.5464670000000  0.5964240000000  0.4954020000000 1.0
C      1  0.4555510000000  0.3996430000000  0.4981010000000 1.0
C      1  0.4632760000000  0.3966910000000  0.5253950000000 1.0
C      1  0.5370960000000  0.6000830000000  0.5219520000000 1.0
C      1  0.4895810000000  0.4399460000000  0.5424530000000 1.0
C      1  0.5105410000000  0.5591880000000  0.5433590000000 1.0
C      1  0.5968060000000  0.5582920000000  0.5044340000000 1.0
C      1  0.4061470000000  0.4409570000000  0.5045110000000 1.0
C      1  0.5419640000000  0.5460700000000  0.4934650000000 1.0
C      1  0.4587830000000  0.4492240000000  0.4918430000000 1.0
C      1  0.6006800000000  0.5271380000000  0.5453300000000 1.0
C      1  0.4019030000000  0.4729890000000  0.5443500000000 1.0
C      1  0.4939260000000  0.5110960000000  0.4868990000000 1.0
C      1  0.4909660000000  0.4844870000000  0.4972400000000 1.0
C      1  0.5293020000000  0.5176120000000  0.5299220000000 1.0
C      1  0.4743630000000  0.4833990000000  0.5228250000000 1.0
C      1  0.4557830000000  0.5251820000000  0.5031370000000 1.0
C      1  0.5363500000000  0.4804960000000  0.5021990000000 1.0
C      1  0.5534500000000  0.4556610000000  0.4297030000000 1.0
C      1  0.4414600000000  0.5446000000000  0.4237660000000 1.0
C      1  0.4479660000000  0.4165590000000  0.5415430000000 1.0
C      1  0.5526140000000  0.5820750000000  0.5398120000000 1.0
C      1  0.4351840000000  0.5499340000000  0.5431150000000 1.0
C      1  0.5632150000000  0.4519840000000  0.5390590000000 1.0
C      1  0.6168590000000  0.5107550000000  0.5318640000000 1.0
C      1  0.3855880000000  0.4889800000000  0.5306140000000 1.0
C      1  0.5505230000000  0.5318300000000  0.5181660000000 1.0
C      1  0.4503820000000  0.4667240000000  0.5157900000000 1.0
C      1  0.5186340000000  0.5324740000000  0.4542330000000 1.0
C      1  0.4819170000000  0.4705350000000  0.4527120000000 1.0
C      1  0.4619970000000  0.4842250000000  0.4120740000000 1.0
C      1  0.5405370000000  0.5207120000000  0.4141620000000 1.0
C      1  0.5598070000000  0.5274060000000  0.5663190000000 1.0
C      1  0.4424420000000  0.4727000000000  0.5656040000000 1.0
C      1  0.5165170000000  0.4208620000000  0.4755630000000 1.0
C      1  0.4844290000000  0.5769810000000  0.4766490000000 1.0
C      1  0.5946800000000  0.4860180000000  0.4933260000000 1.0
C      1  0.4068560000000  0.5152840000000  0.4929700000000 1.0
C      1  0.3917060000000  0.4924760000000  0.5037510000000 1.0
C      1  0.6114880000000  0.5073920000000  0.5048550000000 1.0
C      1  0.4807970000000  0.6116780000000  0.5244270000000 1.0
C      1  0.5196480000000  0.3846540000000  0.5295180000000 1.0
C      1  0.4641000000000  0.5090890000000  0.5891620000000 1.0
C      1  0.5367410000000  0.4904960000000  0.5880840000000 1.0
C      1  0.4532620000000  0.6059560000000  0.5225330000000 1.0
C      1  0.5462320000000  0.3934320000000  0.5242960000000 1.0
C      1  0.4981000000000  0.5805490000000  0.4524120000000 1.0
C      1  0.5009940000000  0.4174900000000  0.4521600000000 1.0
C      1  0.4159070000000  0.5624730000000  0.5220380000000 1.0
C      1  0.5812890000000  0.4387880000000  0.5190090000000 1.0
C      1  0.4911090000000  0.3856180000000  0.5309330000000 1.0
C      1  0.5089200000000  0.6100090000000  0.5253510000000 1.0
C      1  0.5843370000000  0.4454080000000  0.4694910000000 1.0
C      1  0.4132960000000  0.5570370000000  0.4696180000000 1.0
C      1  0.4482340000000  0.5026290000000  0.4607770000000 1.0
C      1  0.5565330000000  0.5061570000000  0.4616880000000 1.0
C      1  0.5689900000000  0.4757850000000  0.5552220000000 1.0
C      1  0.4305430000000  0.5248270000000  0.5579920000000 1.0
C      1  0.4288860000000  0.5916020000000  0.5200820000000 1.0
C      1  0.5687880000000  0.4098450000000  0.5185390000000 1.0
C      1  0.4289650000000  0.5208900000000  0.4117970000000 1.0
C      1  0.5690500000000  0.4782880000000  0.4180840000000 1.0
C      1  0.4805950000000  0.4644140000000  0.4797320000000 1.0
C      1  0.5128700000000  0.5364000000000  0.4841980000000 1.0
C      1  0.5342190000000  0.5670470000000  0.5573510000000 1.0
C      1  0.4666800000000  0.4322250000000  0.5578920000000 1.0
C      1  0.5902440000000  0.4566050000000  0.4956680000000 1.0
C      1  0.4087230000000  0.5450130000000  0.4961600000000 1.0
C      1  0.5085110000000  0.5306310000000  0.5423880000000 1.0
C      1  0.4913180000000  0.4681770000000  0.5412260000000 1.0
C      1  0.5246330000000  0.4686700000000  0.5747620000000 1.0
C      1  0.4754800000000  0.5311630000000  0.5755440000000 1.0
C      1  0.5278150000000  0.4467620000000  0.4174270000000 1.0
C      1  0.4697250000000  0.5527490000000  0.4170600000000 1.0
C      1  0.5166330000000  0.5314100000000  0.4017430000000 1.0
C      1  0.4847320000000  0.4718760000000  0.4000080000000 1.0
C      1  0.4216840000000  0.5017340000000  0.4706920000000 1.0
C      1  0.5825040000000  0.5012560000000  0.4706440000000 1.0
C      1  0.4574290000000  0.5719990000000  0.4819810000000 1.0
C      1  0.5381260000000  0.4390470000000  0.4756770000000 1.0
C      1  0.4817820000000  0.5753310000000  0.4299580000000 1.0
C      1  0.5147780000000  0.4238150000000  0.4284470000000 1.0
C      1  0.3979070000000  0.4665070000000  0.4885630000000 1.0
C      1  0.6079320000000  0.5336720000000  0.4888410000000 1.0
C      1  0.5443500000000  0.5247840000000  0.4430560000000 1.0
C      1  0.4590360000000  0.4835710000000  0.4410860000000 1.0
C      1  0.5784960000000  0.5665040000000  0.5296390000000 1.0
C      1  0.4232530000000  0.4328490000000  0.5305280000000 1.0
C      1  0.5952850000000  0.4892350000000  0.4243220000000 1.0
C      1  0.4052980000000  0.5072900000000  0.4209150000000 1.0
C      1  0.5408600000000  0.5462780000000  0.5773130000000 1.0
C      1  0.4605030000000  0.4535550000000  0.5773490000000 1.0
C      1  0.4934780000000  0.5471870000000  0.5904090000000 1.0
C      1  0.5074800000000  0.4524640000000  0.5902590000000 1.0
C      1  0.4661690000000  0.5158010000000  0.4785490000000 1.0
C      1  0.5383780000000  0.4940140000000  0.4786440000000 1.0
C      1  0.6017110000000  0.5217670000000  0.4618930000000 1.0
C      1  0.4056160000000  0.4780970000000  0.4621650000000 1.0
C      1  0.5432150000000  0.5732520000000  0.4792810000000 1.0
C      1  0.4579850000000  0.4221020000000  0.4810600000000 1.0
C      1  0.4669770000000  0.5118070000000  0.5273290000000 1.0
C      1  0.5297810000000  0.4904530000000  0.5277200000000 1.0
END
