TITL C-3201376-6384-939 -2.14375838558505e-08 125000 -476.930271811928 0 0 80 (C1) n - 1
REM
REM in /home/nfs/bkarasulu/CARBON/AIRSS/Generating-Clusters/LCBOP/Higher-Symm/SD-CG/FIRE-CG
REM
REM
REM
REM
REM
REM ./C.cell (b20cbc046b6831c77cfcea5457e17084)
REM AIRSS Version 0.9.1 bugfix July 2018 build 013d7b7c2542+ Fri, 06 Jul 2018 19:26:36 +0100
REM compiler GCC version 9.2.1 20190827 (Red Hat 9.2.1-1)
REM options -cpp -mtune=generic -march=x86-64 -g -O0 -fpre-include=/usr/include/finclude/math-vector-fortran.h
REM seed -622940691 1687646278 1012996865 2062169222 -457007962 1658206250 -1420948390 2144904689 1069983071 -1509981808 1374903519 926513379 -1264435339 1222533382 659322453 -3100992 -1173090304 -1156848232 1313088031 -569663849 -369959995 1997196540 1723982986 437219546 -1064754012 -846640702 -1770901716 -212453433 -1990181974 -1405393182 -2076979502 -872658343 354311452
REM
CELL 1.54180   50.00000   50.00000   50.00000   90.00000   90.00000   90.00000
LATT -1
SFAC C  
C      1  0.4585350000000  0.4476860000000  0.4608370000000 1.0
C      1  0.5097220000000  0.5308320000000  0.4880750000000 1.0
C      1  0.5552690000000  0.5540050000000  0.4835280000000 1.0
C      1  0.5591180000000  0.4598490000000  0.4711940000000 1.0
C      1  0.5890790000000  0.5315150000000  0.5105110000000 1.0
C      1  0.5074400000000  0.5597810000000  0.4891020000000 1.0
C      1  0.4574520000000  0.4011210000000  0.5000880000000 1.0
C      1  0.4926140000000  0.4714950000000  0.4380810000000 1.0
C      1  0.4814780000000  0.4675570000000  0.5011770000000 1.0
C      1  0.6018440000000  0.4527830000000  0.5410510000000 1.0
C      1  0.4790950000000  0.4959200000000  0.5580780000000 1.0
C      1  0.5251500000000  0.5880180000000  0.4559270000000 1.0
C      1  0.4126320000000  0.5062730000000  0.5191750000000 1.0
C      1  0.5393270000000  0.4652910000000  0.4515140000000 1.0
C      1  0.3972420000000  0.4711610000000  0.4821620000000 1.0
C      1  0.5549770000000  0.5512510000000  0.5347390000000 1.0
C      1  0.4245220000000  0.4729460000000  0.5858750000000 1.0
C      1  0.5066320000000  0.4758980000000  0.4859050000000 1.0
C      1  0.5388830000000  0.4568850000000  0.5134920000000 1.0
C      1  0.3998410000000  0.5511000000000  0.5065830000000 1.0
C      1  0.5845020000000  0.5052840000000  0.5210280000000 1.0
C      1  0.5925960000000  0.5125630000000  0.4437500000000 1.0
C      1  0.4317870000000  0.4093230000000  0.5028970000000 1.0
C      1  0.4740420000000  0.5984890000000  0.4632100000000 1.0
C      1  0.5852910000000  0.4613420000000  0.5606190000000 1.0
C      1  0.5758610000000  0.4826660000000  0.4784470000000 1.0
C      1  0.4796050000000  0.4167010000000  0.4919800000000 1.0
C      1  0.5893240000000  0.4829740000000  0.5037650000000 1.0
C      1  0.5577070000000  0.5895660000000  0.4153130000000 1.0
C      1  0.4629590000000  0.4962570000000  0.6058690000000 1.0
C      1  0.4880130000000  0.5498900000000  0.5557600000000 1.0
C      1  0.4765210000000  0.4377290000000  0.5468080000000 1.0
C      1  0.4347380000000  0.4488050000000  0.5755280000000 1.0
C      1  0.4589270000000  0.5622750000000  0.4952830000000 1.0
C      1  0.5274640000000  0.4814700000000  0.5045030000000 1.0
C      1  0.4103760000000  0.4813940000000  0.5059300000000 1.0
C      1  0.4787900000000  0.5331280000000  0.4334050000000 1.0
C      1  0.4547700000000  0.4371180000000  0.5622520000000 1.0
C      1  0.5742680000000  0.5079210000000  0.4637090000000 1.0
C      1  0.4621760000000  0.4906710000000  0.4905930000000 1.0
C      1  0.5313710000000  0.5713260000000  0.4783980000000 1.0
C      1  0.4786250000000  0.4999720000000  0.5844350000000 1.0
C      1  0.5327770000000  0.4186780000000  0.4863960000000 1.0
C      1  0.3999650000000  0.4435040000000  0.4799620000000 1.0
C      1  0.4387590000000  0.4845200000000  0.6073740000000 1.0
C      1  0.4161260000000  0.4324700000000  0.5015610000000 1.0
C      1  0.4444000000000  0.5369660000000  0.4944790000000 1.0
C      1  0.4981300000000  0.5459640000000  0.4203890000000 1.0
C      1  0.4191100000000  0.5314980000000  0.5068920000000 1.0
C      1  0.6030490000000  0.4612920000000  0.5154400000000 1.0
C      1  0.5234150000000  0.4522150000000  0.5371460000000 1.0
C      1  0.4560400000000  0.5832990000000  0.4764590000000 1.0
C      1  0.5125920000000  0.4723310000000  0.4577560000000 1.0
C      1  0.5370300000000  0.4649710000000  0.5590080000000 1.0
C      1  0.5487910000000  0.4416820000000  0.4918180000000 1.0
C      1  0.5001270000000  0.6016290000000  0.4572970000000 1.0
C      1  0.5209370000000  0.5603180000000  0.4137110000000 1.0
C      1  0.4847850000000  0.5626630000000  0.5077180000000 1.0
C      1  0.4954480000000  0.4499590000000  0.5306500000000 1.0
C      1  0.5346750000000  0.5808210000000  0.4305660000000 1.0
C      1  0.4207720000000  0.4564110000000  0.5179140000000 1.0
C      1  0.5226390000000  0.5023570000000  0.5224210000000 1.0
C      1  0.4644260000000  0.5218880000000  0.4528110000000 1.0
C      1  0.4097510000000  0.4901540000000  0.5693030000000 1.0
C      1  0.5626260000000  0.4784380000000  0.5584740000000 1.0
C      1  0.5371030000000  0.5585870000000  0.3895490000000 1.0
C      1  0.4562510000000  0.5157430000000  0.4790130000000 1.0
C      1  0.4683410000000  0.4599210000000  0.4389490000000 1.0
C      1  0.5560270000000  0.5293800000000  0.5514050000000 1.0
C      1  0.4084490000000  0.5048510000000  0.5470630000000 1.0
C      1  0.5067570000000  0.5239080000000  0.5159970000000 1.0
C      1  0.5681840000000  0.5512680000000  0.5092250000000 1.0
C      1  0.5586540000000  0.5760500000000  0.3910890000000 1.0
C      1  0.5070360000000  0.4104200000000  0.4885630000000 1.0
C      1  0.5679050000000  0.5039400000000  0.5453860000000 1.0
C      1  0.5269350000000  0.5201010000000  0.4688480000000 1.0
C      1  0.4917190000000  0.5445070000000  0.5294890000000 1.0
C      1  0.4714450000000  0.4434410000000  0.4857450000000 1.0
C      1  0.4739980000000  0.4876930000000  0.5344420000000 1.0
C      1  0.5542600000000  0.5279340000000  0.4691170000000 1.0
END
