TITL C-3201372-1405-934 12.2729757224181 125000 -327.00981230007 0 0 56 (C1) n - 1
REM
REM in /home/nfs/bkarasulu/CARBON/AIRSS/Generating-Clusters/LCBOP/Higher-Symm/SD-CG/FIRE-CG
REM
REM
REM
REM
REM
REM ./C.cell (b20cbc046b6831c77cfcea5457e17084)
REM AIRSS Version 0.9.1 bugfix July 2018 build 013d7b7c2542+ Fri, 06 Jul 2018 19:26:36 +0100
REM compiler GCC version 9.2.1 20190827 (Red Hat 9.2.1-1)
REM options -cpp -mtune=generic -march=x86-64 -g -O0 -fpre-include=/usr/include/finclude/math-vector-fortran.h
REM seed -508513096 298826194 -1393274766 853220130 599787378 1899105113 1073809507 1904494321 -457668700 -1740527105 1268288012 -1661631024 -1351103887 1708671918 -1111442960 -394201214 -1093032337 -1325844421 -798038624 278663124 878857648 1077081174 979765494 1739067112 1477803545 -234887636 1601634651 -960949781 1144369242 1598206795 -1754538282 -981207783 1952219767
REM
CELL 1.54180   50.00000   50.00000   50.00000   90.00000   90.00000   90.00000
LATT -1
SFAC C  
C      1  0.4635400000000  0.5403970000000  0.5782320000000 1.0
C      1  0.4088990000000  0.4132740000000  0.4532300000000 1.0
C      1  0.4785150000000  0.5500480000000  0.4786350000000 1.0
C      1  0.5018360000000  0.4877920000000  0.5241570000000 1.0
C      1  0.5643510000000  0.5124280000000  0.4375250000000 1.0
C      1  0.5785680000000  0.4094330000000  0.5031360000000 1.0
C      1  0.4360520000000  0.5510340000000  0.6531930000000 1.0
C      1  0.4937550000000  0.4636160000000  0.4826220000000 1.0
C      1  0.4171250000000  0.4266010000000  0.4315140000000 1.0
C      1  0.4289360000000  0.4334620000000  0.4932970000000 1.0
C      1  0.5834600000000  0.6195660000000  0.3851390000000 1.0
C      1  0.5048160000000  0.5155950000000  0.5230530000000 1.0
C      1  0.4988720000000  0.5701900000000  0.4746230000000 1.0
C      1  0.4706400000000  0.5453990000000  0.5053890000000 1.0
C      1  0.4454570000000  0.5473950000000  0.6275440000000 1.0
C      1  0.5277270000000  0.5337830000000  0.4814370000000 1.0
C      1  0.4664890000000  0.4663650000000  0.4747330000000 1.0
C      1  0.4471410000000  0.4525870000000  0.4897210000000 1.0
C      1  0.5670090000000  0.5388700000000  0.4386120000000 1.0
C      1  0.4544960000000  0.5438970000000  0.6028930000000 1.0
C      1  0.4831260000000  0.5262760000000  0.4627010000000 1.0
C      1  0.4246130000000  0.5703370000000  0.6946140000000 1.0
C      1  0.5764800000000  0.6019060000000  0.4036310000000 1.0
C      1  0.4167780000000  0.5436170000000  0.6955320000000 1.0
C      1  0.4134910000000  0.4165270000000  0.4794650000000 1.0
C      1  0.4587270000000  0.4820700000000  0.4525000000000 1.0
C      1  0.5536420000000  0.4883630000000  0.4413600000000 1.0
C      1  0.4645730000000  0.5108360000000  0.4490030000000 1.0
C      1  0.4507490000000  0.5184970000000  0.4248600000000 1.0
C      1  0.4665580000000  0.4171290000000  0.5545320000000 1.0
C      1  0.4823410000000  0.5327280000000  0.5278500000000 1.0
C      1  0.5000610000000  0.4634270000000  0.5104920000000 1.0
C      1  0.4383820000000  0.4966660000000  0.4134100000000 1.0
C      1  0.5933150000000  0.3897580000000  0.5164440000000 1.0
C      1  0.4855790000000  0.4274200000000  0.5399890000000 1.0
C      1  0.4424270000000  0.4730010000000  0.4295000000000 1.0
C      1  0.5903250000000  0.6369370000000  0.3669510000000 1.0
C      1  0.4361720000000  0.5754010000000  0.6696440000000 1.0
C      1  0.5488340000000  0.5758080000000  0.4656110000000 1.0
C      1  0.5883830000000  0.4211010000000  0.4804240000000 1.0
C      1  0.5298950000000  0.4263310000000  0.5203830000000 1.0
C      1  0.4309310000000  0.4482960000000  0.4245240000000 1.0
C      1  0.5536610000000  0.4170660000000  0.5132920000000 1.0
C      1  0.5583130000000  0.5977610000000  0.4789170000000 1.0
C      1  0.4233140000000  0.5315500000000  0.6711510000000 1.0
C      1  0.5269600000000  0.5257010000000  0.5084640000000 1.0
C      1  0.5619960000000  0.5662480000000  0.4421180000000 1.0
C      1  0.5359270000000  0.4706670000000  0.4504090000000 1.0
C      1  0.6208060000000  0.3527410000000  0.5416840000000 1.0
C      1  0.5694970000000  0.5843320000000  0.4221770000000 1.0
C      1  0.5051840000000  0.4388980000000  0.5237650000000 1.0
C      1  0.5263140000000  0.5618720000000  0.4751740000000 1.0
C      1  0.4725950000000  0.5368580000000  0.5535940000000 1.0
C      1  0.5106020000000  0.5187390000000  0.4640590000000 1.0
C      1  0.5145900000000  0.4623010000000  0.4639300000000 1.0
C      1  0.6071750000000  0.3711000000000  0.5291630000000 1.0
END
