TITL C-3201379-3821-1244 -5.53140422881013e-07 125000 -225.543686575683 0 0 40 (C1) n - 1
REM
REM in /home/nfs/bkarasulu/CARBON/AIRSS/Generating-Clusters/LCBOP/Higher-Symm/SD-CG/FIRE-CG
REM
REM
REM
REM
REM
REM ./C.cell (b20cbc046b6831c77cfcea5457e17084)
REM AIRSS Version 0.9.1 bugfix July 2018 build 013d7b7c2542+ Fri, 06 Jul 2018 19:26:36 +0100
REM compiler GCC version 9.2.1 20190827 (Red Hat 9.2.1-1)
REM options -cpp -mtune=generic -march=x86-64 -g -O0 -fpre-include=/usr/include/finclude/math-vector-fortran.h
REM seed 1256012866 -325089872 -956849125 -791901552 665550918 984018937 -1059651183 788524121 -119867553 820512049 2005602688 -774948079 1319476568 405397499 -705973042 -1435466623 -1144550525 -1148645043 2058619993 1719688413 -410245133 -2129367949 -2028963212 1499487521 1050662219 -476592818 -1955491695 -169865260 1923026986 -1633660532 -148620338 -104734572 1051253242
REM
CELL 1.54180   50.00000   50.00000   50.00000   90.00000   90.00000   90.00000
LATT -1
SFAC C  
C      1  0.4650530000000  0.5032480000000  0.4728940000000 1.0
C      1  0.5196950000000  0.5302590000000  0.4749780000000 1.0
C      1  0.5156850000000  0.4709550000000  0.4753270000000 1.0
C      1  0.5631020000000  0.5235200000000  0.5085100000000 1.0
C      1  0.4890110000000  0.4361670000000  0.5086400000000 1.0
C      1  0.4493800000000  0.5440800000000  0.5088740000000 1.0
C      1  0.4538030000000  0.4746900000000  0.5351650000000 1.0
C      1  0.5015460000000  0.5550280000000  0.5333110000000 1.0
C      1  0.5473250000000  0.4735880000000  0.5335010000000 1.0
C      1  0.5267210000000  0.5648000000000  0.5195990000000 1.0
C      1  0.5431010000000  0.4473270000000  0.5190570000000 1.0
C      1  0.4405770000000  0.4916540000000  0.5135920000000 1.0
C      1  0.4896380000000  0.4603970000000  0.4663030000000 1.0
C      1  0.4701280000000  0.5313440000000  0.4661900000000 1.0
C      1  0.5418590000000  0.5127220000000  0.4663240000000 1.0
C      1  0.4637430000000  0.4189120000000  0.4699920000000 1.0
C      1  0.4428770000000  0.5721910000000  0.4686690000000 1.0
C      1  0.5908100000000  0.5120600000000  0.4693860000000 1.0
C      1  0.4782550000000  0.4846060000000  0.4548040000000 1.0
C      1  0.4973640000000  0.5293470000000  0.4560860000000 1.0
C      1  0.5265160000000  0.4903000000000  0.4560790000000 1.0
C      1  0.4687290000000  0.4975400000000  0.5487290000000 1.0
C      1  0.5136570000000  0.5327600000000  0.5493130000000 1.0
C      1  0.5220880000000  0.4738340000000  0.5495870000000 1.0
C      1  0.5662900000000  0.5158870000000  0.4806930000000 1.0
C      1  0.4801140000000  0.4377850000000  0.4809770000000 1.0
C      1  0.4537500000000  0.5501040000000  0.4804940000000 1.0
C      1  0.5512120000000  0.5513080000000  0.5137210000000 1.0
C      1  0.5192130000000  0.4327970000000  0.5131360000000 1.0
C      1  0.4296450000000  0.5202050000000  0.5160410000000 1.0
C      1  0.5146390000000  0.5246450000000  0.5022390000000 1.0
C      1  0.5133450000000  0.4779460000000  0.5026810000000 1.0
C      1  0.4656000000000  0.4994810000000  0.5005570000000 1.0
C      1  0.5501550000000  0.5027840000000  0.5257830000000 1.0
C      1  0.4777040000000  0.4569950000000  0.5270010000000 1.0
C      1  0.4754330000000  0.5425360000000  0.5240320000000 1.0
C      1  0.4777430000000  0.5133890000000  0.5250370000000 1.0
C      1  0.5243150000000  0.5160100000000  0.5286010000000 1.0
C      1  0.5019290000000  0.4732890000000  0.5292410000000 1.0
C      1  0.5009130000000  0.5015360000000  0.4440790000000 1.0
END
