TITL C-3201377-4638-747 0.153068481244322 125000 -468.980185745953 0 0 77 (C1) n - 1
REM
REM in /home/nfs/bkarasulu/CARBON/AIRSS/Generating-Clusters/LCBOP/Higher-Symm/SD-CG/FIRE-CG
REM
REM
REM
REM
REM
REM ./C.cell (b20cbc046b6831c77cfcea5457e17084)
REM AIRSS Version 0.9.1 bugfix July 2018 build 013d7b7c2542+ Fri, 06 Jul 2018 19:26:36 +0100
REM compiler GCC version 9.2.1 20190827 (Red Hat 9.2.1-1)
REM options -cpp -mtune=generic -march=x86-64 -g -O0 -fpre-include=/usr/include/finclude/math-vector-fortran.h
REM seed -1925627283 -342020437 1859927501 -572772659 -435418692 -81017979 11432801 -2106234888 -303845861 56299240 -1077928889 -1669324834 -1906638624 -166379636 -1149308369 -701263465 -1892685936 1352078570 37090777 -1546168391 1190049561 -1827967470 -1575981800 -465992996 1710975549 1377073735 -392490703 2068390458 -924388892 1841123377 104255493 2068485904 -679207996
REM
CELL 1.54180   50.00000   50.00000   50.00000   90.00000   90.00000   90.00000
LATT -1
SFAC C  
C      1  0.4250260000000  0.4687510000000  0.4618720000000 1.0
C      1  0.5126120000000  0.5725250000000  0.4671870000000 1.0
C      1  0.5626230000000  0.4540870000000  0.4600590000000 1.0
C      1  0.4291800000000  0.5269860000000  0.5270220000000 1.0
C      1  0.5489460000000  0.5444100000000  0.5340080000000 1.0
C      1  0.5072340000000  0.4350600000000  0.5346170000000 1.0
C      1  0.5757120000000  0.5473610000000  0.5252090000000 1.0
C      1  0.5179830000000  0.4126810000000  0.5215280000000 1.0
C      1  0.4102540000000  0.5417080000000  0.5121490000000 1.0
C      1  0.3878870000000  0.4449490000000  0.5183230000000 1.0
C      1  0.5012350000000  0.6246790000000  0.5151760000000 1.0
C      1  0.6052900000000  0.4299250000000  0.5069740000000 1.0
C      1  0.4793300000000  0.6085400000000  0.5080860000000 1.0
C      1  0.5976350000000  0.4569000000000  0.5093670000000 1.0
C      1  0.4124040000000  0.4323290000000  0.5128250000000 1.0
C      1  0.6292610000000  0.4210860000000  0.5165970000000 1.0
C      1  0.3687580000000  0.4329700000000  0.5336560000000 1.0
C      1  0.4977460000000  0.6484270000000  0.5281800000000 1.0
C      1  0.4376330000000  0.4325930000000  0.5042880000000 1.0
C      1  0.4676210000000  0.5860280000000  0.5000140000000 1.0
C      1  0.5826740000000  0.4788330000000  0.5074420000000 1.0
C      1  0.5354050000000  0.5315720000000  0.4398070000000 1.0
C      1  0.5075180000000  0.4746190000000  0.4517320000000 1.0
C      1  0.4678140000000  0.5046450000000  0.4457410000000 1.0
C      1  0.4686340000000  0.5585950000000  0.4945830000000 1.0
C      1  0.5610710000000  0.4949030000000  0.4994880000000 1.0
C      1  0.4605210000000  0.4471200000000  0.4971890000000 1.0
C      1  0.5125910000000  0.4122420000000  0.4937990000000 1.0
C      1  0.4135420000000  0.5394500000000  0.4841920000000 1.0
C      1  0.5776530000000  0.5532350000000  0.4976730000000 1.0
C      1  0.4989370000000  0.4497560000000  0.4636490000000 1.0
C      1  0.4534890000000  0.5253900000000  0.4590620000000 1.0
C      1  0.5525280000000  0.5290690000000  0.4624420000000 1.0
C      1  0.4147600000000  0.4929100000000  0.4722980000000 1.0
C      1  0.5381530000000  0.5746520000000  0.4789220000000 1.0
C      1  0.5481330000000  0.4313940000000  0.4684620000000 1.0
C      1  0.5192950000000  0.4305840000000  0.4729920000000 1.0
C      1  0.4268590000000  0.5192950000000  0.4692540000000 1.0
C      1  0.5573870000000  0.5530760000000  0.4778270000000 1.0
C      1  0.4752390000000  0.5406430000000  0.5157120000000 1.0
C      1  0.5391260000000  0.4992340000000  0.5171100000000 1.0
C      1  0.4715330000000  0.4647950000000  0.5166130000000 1.0
C      1  0.5415070000000  0.5972400000000  0.4953210000000 1.0
C      1  0.5648090000000  0.4115240000000  0.4797080000000 1.0
C      1  0.3935260000000  0.4889900000000  0.4904850000000 1.0
C      1  0.4698700000000  0.4490900000000  0.4697060000000 1.0
C      1  0.4702500000000  0.5478970000000  0.4676430000000 1.0
C      1  0.5587080000000  0.5023150000000  0.4715990000000 1.0
C      1  0.5298180000000  0.5267610000000  0.5239260000000 1.0
C      1  0.4993740000000  0.4597690000000  0.5250080000000 1.0
C      1  0.4555210000000  0.5192230000000  0.5219560000000 1.0
C      1  0.3332920000000  0.6004570000000  0.5572460000000 1.0
C      1  0.5996790000000  0.4661570000000  0.5718090000000 1.0
C      1  0.5899330000000  0.4414110000000  0.5710800000000 1.0
C      1  0.5097300000000  0.5391950000000  0.4354950000000 1.0
C      1  0.5316130000000  0.4793160000000  0.4383690000000 1.0
C      1  0.4571640000000  0.4816520000000  0.4331710000000 1.0
C      1  0.4677300000000  0.4935490000000  0.5160510000000 1.0
C      1  0.5018420000000  0.5292880000000  0.5170220000000 1.0
C      1  0.5157570000000  0.4822150000000  0.5174760000000 1.0
C      1  0.3902910000000  0.5569970000000  0.5238800000000 1.0
C      1  0.5960880000000  0.5360540000000  0.5405990000000 1.0
C      1  0.5389360000000  0.3995350000000  0.5345740000000 1.0
C      1  0.3520870000000  0.5861280000000  0.5462440000000 1.0
C      1  0.6055060000000  0.4915120000000  0.5662280000000 1.0
C      1  0.5769120000000  0.4193880000000  0.5637580000000 1.0
C      1  0.3840360000000  0.4705100000000  0.5072630000000 1.0
C      1  0.5268720000000  0.6153830000000  0.5083420000000 1.0
C      1  0.5873590000000  0.4124480000000  0.4941400000000 1.0
C      1  0.6052260000000  0.5157420000000  0.5552180000000 1.0
C      1  0.5598420000000  0.4037080000000  0.5506440000000 1.0
C      1  0.3711980000000  0.5715580000000  0.5350590000000 1.0
C      1  0.4501250000000  0.4608080000000  0.4514800000000 1.0
C      1  0.4950240000000  0.5546480000000  0.4541360000000 1.0
C      1  0.5552930000000  0.4801650000000  0.4534490000000 1.0
C      1  0.4953090000000  0.5017180000000  0.5105720000000 1.0
C      1  0.4928310000000  0.4979720000000  0.4563550000000 1.0
END
