TITL C-3201378-2706-1197 8070.23494855511 125000 -796.605159198351 0 0 130 (C1) n - 1
REM
REM in /home/nfs/bkarasulu/CARBON/AIRSS/Generating-Clusters/LCBOP/Higher-Symm/SD-CG/FIRE-CG
REM
REM
REM
REM
REM
REM ./C.cell (b20cbc046b6831c77cfcea5457e17084)
REM AIRSS Version 0.9.1 bugfix July 2018 build 013d7b7c2542+ Fri, 06 Jul 2018 19:26:36 +0100
REM compiler GCC version 9.2.1 20190827 (Red Hat 9.2.1-1)
REM options -cpp -mtune=generic -march=x86-64 -g -O0 -fpre-include=/usr/include/finclude/math-vector-fortran.h
REM seed 1592826420 1441704510 1841978216 2066983635 -2021496496 -987721983 1038152860 2125854594 1878050436 1918642320 -117993600 -106730742 26955507 -215522419 -243298313 701056383 732809589 461541899 -1402559959 2018612074 -1815441830 -1322266511 194611554 1083933399 2006633158 636640501 1208558475 151100151 418126335 599894740 1325776229 -1637943377 1984452223
REM
CELL 1.54180   50.00000   50.00000   50.00000   90.00000   90.00000   90.00000
LATT -1
SFAC C  
C      1  0.4988150000000  0.5299720000000  0.4049620000000 1.0
C      1  0.4051180000000  0.5295080000000  0.5002980000000 1.0
C      1  0.5046330000000  0.5278650000000  0.5926840000000 1.0
C      1  0.5958260000000  0.5253440000000  0.4921830000000 1.0
C      1  0.4975820000000  0.4708450000000  0.3999900000000 1.0
C      1  0.4064140000000  0.4706250000000  0.5002270000000 1.0
C      1  0.5108090000000  0.4714910000000  0.5965420000000 1.0
C      1  0.5944060000000  0.4657000000000  0.4942200000000 1.0
C      1  0.4724660000000  0.4710670000000  0.4417840000000 1.0
C      1  0.4455900000000  0.4772930000000  0.5281910000000 1.0
C      1  0.5417760000000  0.4680370000000  0.5583420000000 1.0
C      1  0.5502340000000  0.4692550000000  0.4713930000000 1.0
C      1  0.4689250000000  0.5264890000000  0.4435770000000 1.0
C      1  0.4330380000000  0.5316460000000  0.5424570000000 1.0
C      1  0.5321630000000  0.5261030000000  0.5520740000000 1.0
C      1  0.5566150000000  0.5232280000000  0.4679200000000 1.0
C      1  0.4168310000000  0.5244270000000  0.4504430000000 1.0
C      1  0.4517550000000  0.5201000000000  0.5915050000000 1.0
C      1  0.5858950000000  0.5241520000000  0.5416420000000 1.0
C      1  0.5489160000000  0.5241490000000  0.4149940000000 1.0
C      1  0.4145350000000  0.4731780000000  0.4482180000000 1.0
C      1  0.4620210000000  0.4672340000000  0.6079110000000 1.0
C      1  0.5877640000000  0.4726060000000  0.5428670000000 1.0
C      1  0.5454670000000  0.4725100000000  0.4151510000000 1.0
C      1  0.4946340000000  0.4136820000000  0.5261020000000 1.0
C      1  0.5400900000000  0.4195110000000  0.5075580000000 1.0
C      1  0.5030540000000  0.4081580000000  0.4796390000000 1.0
C      1  0.4592760000000  0.4220250000000  0.4936340000000 1.0
C      1  0.4896270000000  0.5762670000000  0.5435600000000 1.0
C      1  0.5197570000000  0.5877450000000  0.5067040000000 1.0
C      1  0.5047220000000  0.5780790000000  0.4611900000000 1.0
C      1  0.4729340000000  0.5852650000000  0.4988100000000 1.0
C      1  0.5230270000000  0.5144220000000  0.4009450000000 1.0
C      1  0.4026950000000  0.5140660000000  0.4758400000000 1.0
C      1  0.4813590000000  0.5116840000000  0.5987610000000 1.0
C      1  0.6006680000000  0.5118150000000  0.5169120000000 1.0
C      1  0.5225250000000  0.4850100000000  0.3990410000000 1.0
C      1  0.4029870000000  0.4846340000000  0.4752700000000 1.0
C      1  0.4860650000000  0.4835570000000  0.6050270000000 1.0
C      1  0.6010320000000  0.4823600000000  0.5171620000000 1.0
C      1  0.4562880000000  0.4482050000000  0.5877340000000 1.0
C      1  0.5893420000000  0.4440980000000  0.5502970000000 1.0
C      1  0.5511460000000  0.4441950000000  0.4182160000000 1.0
C      1  0.4165780000000  0.4445070000000  0.4427040000000 1.0
C      1  0.4460840000000  0.5494730000000  0.5924990000000 1.0
C      1  0.5840310000000  0.5534260000000  0.5455150000000 1.0
C      1  0.5537730000000  0.5529530000000  0.4165240000000 1.0
C      1  0.4168820000000  0.5529520000000  0.4436360000000 1.0
C      1  0.5072610000000  0.4467670000000  0.5829570000000 1.0
C      1  0.5868220000000  0.4382830000000  0.4986400000000 1.0
C      1  0.4981470000000  0.4425700000000  0.4042130000000 1.0
C      1  0.4136430000000  0.4430240000000  0.4974620000000 1.0
C      1  0.4995430000000  0.5554970000000  0.5878160000000 1.0
C      1  0.5838350000000  0.5513810000000  0.4943740000000 1.0
C      1  0.5010130000000  0.5573050000000  0.4135530000000 1.0
C      1  0.4076880000000  0.5576810000000  0.4985070000000 1.0
C      1  0.4655110000000  0.4456880000000  0.5614950000000 1.0
C      1  0.5676330000000  0.4286230000000  0.5423450000000 1.0
C      1  0.5343380000000  0.4309910000000  0.4360720000000 1.0
C      1  0.4378680000000  0.4320550000000  0.4552820000000 1.0
C      1  0.4545280000000  0.5652040000000  0.5707100000000 1.0
C      1  0.5608820000000  0.5641030000000  0.5342150000000 1.0
C      1  0.5418770000000  0.5662020000000  0.4377710000000 1.0
C      1  0.4343780000000  0.5681320000000  0.4587780000000 1.0
C      1  0.4334370000000  0.5051500000000  0.6097620000000 1.0
C      1  0.5974230000000  0.5131370000000  0.5667170000000 1.0
C      1  0.5726390000000  0.5106130000000  0.4036170000000 1.0
C      1  0.4036520000000  0.5129940000000  0.4257740000000 1.0
C      1  0.4399090000000  0.4806360000000  0.6193280000000 1.0
C      1  0.5987810000000  0.4862620000000  0.5672050000000 1.0
C      1  0.5715140000000  0.4837070000000  0.4057970000000 1.0
C      1  0.4008110000000  0.4862340000000  0.4254850000000 1.0
C      1  0.4658880000000  0.5732250000000  0.5248720000000 1.0
C      1  0.5161840000000  0.5755260000000  0.5336770000000 1.0
C      1  0.5272550000000  0.5756450000000  0.4808370000000 1.0
C      1  0.4785570000000  0.5746850000000  0.4716780000000 1.0
C      1  0.4681530000000  0.4269290000000  0.5201590000000 1.0
C      1  0.5221260000000  0.4238630000000  0.5312820000000 1.0
C      1  0.5288350000000  0.4203790000000  0.4818260000000 1.0
C      1  0.4797180000000  0.4225300000000  0.4715730000000 1.0
C      1  0.4151850000000  0.5165160000000  0.5239990000000 1.0
C      1  0.5279830000000  0.5147320000000  0.5800550000000 1.0
C      1  0.5830710000000  0.5090750000000  0.4719320000000 1.0
C      1  0.4757070000000  0.5152320000000  0.4154320000000 1.0
C      1  0.4168860000000  0.4865250000000  0.5229070000000 1.0
C      1  0.5309860000000  0.4854700000000  0.5808880000000 1.0
C      1  0.5800240000000  0.4796130000000  0.4731010000000 1.0
C      1  0.4769440000000  0.4851270000000  0.4143300000000 1.0
C      1  0.4537970000000  0.4474780000000  0.5356680000000 1.0
C      1  0.5408740000000  0.4384910000000  0.5505960000000 1.0
C      1  0.5395460000000  0.4376340000000  0.4632640000000 1.0
C      1  0.4666850000000  0.4392100000000  0.4505730000000 1.0
C      1  0.4453850000000  0.5585840000000  0.5427390000000 1.0
C      1  0.5357760000000  0.5585000000000  0.5459290000000 1.0
C      1  0.5468750000000  0.5580960000000  0.4651750000000 1.0
C      1  0.4612070000000  0.5600110000000  0.4559450000000 1.0
C      1  0.4807550000000  0.5286720000000  0.4981990000000 1.0
C      1  0.4957650000000  0.5336290000000  0.5211930000000 1.0
C      1  0.5290970000000  0.5366690000000  0.5027000000000 1.0
C      1  0.5019530000000  0.5294610000000  0.4786350000000 1.0
C      1  0.4719880000000  0.4672040000000  0.4898200000000 1.0
C      1  0.5013240000000  0.4692390000000  0.5363940000000 1.0
C      1  0.5141950000000  0.4706400000000  0.5092300000000 1.0
C      1  0.4989270000000  0.4708790000000  0.4849470000000 1.0
C      1  0.4332560000000  0.4277610000000  0.4837790000000 1.0
C      1  0.4938740000000  0.4495580000000  0.5580930000000 1.0
C      1  0.5676570000000  0.4235620000000  0.5137820000000 1.0
C      1  0.5094720000000  0.4262460000000  0.4229540000000 1.0
C      1  0.4226670000000  0.5747860000000  0.4837770000000 1.0
C      1  0.4828900000000  0.5705200000000  0.5705530000000 1.0
C      1  0.5595060000000  0.5587300000000  0.5069810000000 1.0
C      1  0.5135570000000  0.5719180000000  0.4344140000000 1.0
C      1  0.5442130000000  0.5126290000000  0.4438450000000 1.0
C      1  0.4460010000000  0.5130000000000  0.4569380000000 1.0
C      1  0.4466660000000  0.5140460000000  0.5615320000000 1.0
C      1  0.5562560000000  0.5128230000000  0.5361270000000 1.0
C      1  0.5346130000000  0.4843760000000  0.4470800000000 1.0
C      1  0.4443640000000  0.4837280000000  0.4497410000000 1.0
C      1  0.4612650000000  0.4939830000000  0.5483030000000 1.0
C      1  0.5575160000000  0.4822760000000  0.5363310000000 1.0
C      1  0.4952620000000  0.5156430000000  0.4573840000000 1.0
C      1  0.4583390000000  0.5123540000000  0.4906170000000 1.0
C      1  0.5041720000000  0.5180380000000  0.5407290000000 1.0
C      1  0.5429500000000  0.5143360000000  0.4999990000000 1.0
C      1  0.5022480000000  0.4834650000000  0.4570980000000 1.0
C      1  0.4570730000000  0.4867290000000  0.5020130000000 1.0
C      1  0.4896060000000  0.4944030000000  0.5445270000000 1.0
C      1  0.5413210000000  0.4797540000000  0.5039150000000 1.0
C      1  0.4975340000000  0.3939500000000  0.5043500000000 1.0
C      1  0.4955050000000  0.6035130000000  0.5030800000000 1.0
END
