TITL C-3201373-1215-1563 3.66412191111696e-07 125000 -346.475295116215 0 0 58 (Ci) n - 1
REM
REM in /home/nfs/bkarasulu/CARBON/AIRSS/Generating-Clusters/LCBOP/Higher-Symm/SD-CG/FIRE-CG
REM
REM
REM
REM
REM
REM ./C.cell (b20cbc046b6831c77cfcea5457e17084)
REM AIRSS Version 0.9.1 bugfix July 2018 build 013d7b7c2542+ Fri, 06 Jul 2018 19:26:36 +0100
REM compiler GCC version 9.2.1 20190827 (Red Hat 9.2.1-1)
REM options -cpp -mtune=generic -march=x86-64 -g -O0 -fpre-include=/usr/include/finclude/math-vector-fortran.h
REM seed -2088901743 -561431612 -1685879922 646594842 1337661419 -973708249 1662430074 -871245263 1434752753 1994763492 -187208955 1178554175 -145819415 -62913023 -2035897981 -1044232345 -530057684 -1559860499 1943538065 1658957069 -1654949072 1207003462 -1333448698 48937746 -795214639 902592100 1052342518 696637186 -283980831 -527800473 51455454 -292485349 -985734302
REM
CELL 1.54180   50.00000   50.00000   50.00000   90.00000   90.00000   90.00000
LATT -1
SFAC C  
C      1  0.5127300000000  0.5394850000000  0.5558430000000 1.0
C      1  0.4872700000000  0.4605150000000  0.4441570000000 1.0
C      1  0.5035030000000  0.4097100000000  0.4789860000000 1.0
C      1  0.4964970000000  0.5902900000000  0.5210140000000 1.0
C      1  0.4952130000000  0.4221680000000  0.5011500000000 1.0
C      1  0.5047870000000  0.5778320000000  0.4988500000000 1.0
C      1  0.4614200000000  0.4646840000000  0.4498490000000 1.0
C      1  0.5385800000000  0.5353160000000  0.5501510000000 1.0
C      1  0.4465020000000  0.5166820000000  0.4603850000000 1.0
C      1  0.5534980000000  0.4833180000000  0.5396150000000 1.0
C      1  0.5509290000000  0.5697430000000  0.4693430000000 1.0
C      1  0.4490710000000  0.4302570000000  0.5306570000000 1.0
C      1  0.5149060000000  0.5449060000000  0.4431530000000 1.0
C      1  0.4850940000000  0.4550940000000  0.5568470000000 1.0
C      1  0.5092140000000  0.5424290000000  0.4165380000000 1.0
C      1  0.4907860000000  0.4575710000000  0.5834620000000 1.0
C      1  0.5115530000000  0.4208050000000  0.4558840000000 1.0
C      1  0.4884470000000  0.5791950000000  0.5441160000000 1.0
C      1  0.5757080000000  0.5163600000000  0.4760050000000 1.0
C      1  0.4242920000000  0.4836400000000  0.5239950000000 1.0
C      1  0.4376590000000  0.4307480000000  0.5060310000000 1.0
C      1  0.5623410000000  0.5692520000000  0.4939690000000 1.0
C      1  0.4793540000000  0.4702560000000  0.5004950000000 1.0
C      1  0.5206460000000  0.5297440000000  0.4995050000000 1.0
C      1  0.5076220000000  0.5522350000000  0.4882160000000 1.0
C      1  0.4923780000000  0.4477650000000  0.5117840000000 1.0
C      1  0.4637160000000  0.5374910000000  0.5449990000000 1.0
C      1  0.5362840000000  0.4625090000000  0.4550010000000 1.0
C      1  0.5057850000000  0.4553030000000  0.5364960000000 1.0
C      1  0.4942150000000  0.5446970000000  0.4635040000000 1.0
C      1  0.5514260000000  0.4709030000000  0.4336980000000 1.0
C      1  0.4485740000000  0.5290970000000  0.5663020000000 1.0
C      1  0.5602820000000  0.5261050000000  0.4560860000000 1.0
C      1  0.4397180000000  0.4738950000000  0.5439140000000 1.0
C      1  0.5600230000000  0.5317760000000  0.5318460000000 1.0
C      1  0.4399770000000  0.4682240000000  0.4681540000000 1.0
C      1  0.5139100000000  0.5024560000000  0.4993880000000 1.0
C      1  0.4860900000000  0.4975440000000  0.5006120000000 1.0
C      1  0.4711400000000  0.5211250000000  0.4981360000000 1.0
C      1  0.5288600000000  0.4788750000000  0.5018640000000 1.0
C      1  0.4329160000000  0.4459630000000  0.4843050000000 1.0
C      1  0.5670840000000  0.5540370000000  0.5156950000000 1.0
C      1  0.4327380000000  0.4953900000000  0.4752040000000 1.0
C      1  0.5672620000000  0.5046100000000  0.5247960000000 1.0
C      1  0.4576340000000  0.4520950000000  0.5470840000000 1.0
C      1  0.5423660000000  0.5479050000000  0.4529160000000 1.0
C      1  0.4271570000000  0.5288660000000  0.5114450000000 1.0
C      1  0.5728430000000  0.4711340000000  0.4885550000000 1.0
C      1  0.5301470000000  0.4695570000000  0.5298460000000 1.0
C      1  0.4698530000000  0.5304430000000  0.4701540000000 1.0
C      1  0.5768960000000  0.4981730000000  0.4977480000000 1.0
C      1  0.4231040000000  0.5018270000000  0.5022520000000 1.0
C      1  0.4078800000000  0.5479440000000  0.5129320000000 1.0
C      1  0.5921200000000  0.4520560000000  0.4870680000000 1.0
C      1  0.4547340000000  0.5323720000000  0.5183090000000 1.0
C      1  0.5452660000000  0.4676280000000  0.4816910000000 1.0
C      1  0.5121220000000  0.4483200000000  0.4495780000000 1.0
C      1  0.4878780000000  0.5516800000000  0.5504220000000 1.0
END
