TITL C-3201378-2706-2123 0.0205050159587689 125000 -374.043299166777 0 0 63 (C1) n - 1
REM
REM in /home/nfs/bkarasulu/CARBON/AIRSS/Generating-Clusters/LCBOP/Higher-Symm/SD-CG/FIRE-CG
REM
REM
REM
REM
REM
REM ./C.cell (b20cbc046b6831c77cfcea5457e17084)
REM AIRSS Version 0.9.1 bugfix July 2018 build 013d7b7c2542+ Fri, 06 Jul 2018 19:26:36 +0100
REM compiler GCC version 9.2.1 20190827 (Red Hat 9.2.1-1)
REM options -cpp -mtune=generic -march=x86-64 -g -O0 -fpre-include=/usr/include/finclude/math-vector-fortran.h
REM seed 333370941 1901784082 1079708753 -1551109530 326505517 1431237452 -1245291923 1364326962 -477411950 -1233665386 -1605540650 -659713180 -1415410295 -1665154775 -540881706 -8427645 -1673378391 2095063205 204107033 -1426503114 -2115643814 1328045602 -884992299 495584985 266523039 1287808705 -742005932 -202930827 467543895 -1396594671 392395954 -1124779572 1596185755
REM
CELL 1.54180   50.00000   50.00000   50.00000   90.00000   90.00000   90.00000
LATT -1
SFAC C  
C      1  0.5450620000000  0.4223310000000  0.4347560000000 1.0
C      1  0.5655630000000  0.5596810000000  0.5128830000000 1.0
C      1  0.5444630000000  0.5265490000000  0.4711080000000 1.0
C      1  0.4564540000000  0.5196500000000  0.5592390000000 1.0
C      1  0.4618090000000  0.5348820000000  0.4908680000000 1.0
C      1  0.4800180000000  0.5128600000000  0.4522850000000 1.0
C      1  0.5387390000000  0.4520880000000  0.4788920000000 1.0
C      1  0.5818770000000  0.4668130000000  0.4852790000000 1.0
C      1  0.5251890000000  0.4130920000000  0.5057020000000 1.0
C      1  0.4723660000000  0.5432640000000  0.5516740000000 1.0
C      1  0.5134840000000  0.5511950000000  0.5198580000000 1.0
C      1  0.4885080000000  0.4994440000000  0.5318890000000 1.0
C      1  0.5421360000000  0.4715020000000  0.4262160000000 1.0
C      1  0.5072990000000  0.3928200000000  0.5094560000000 1.0
C      1  0.4548210000000  0.5646260000000  0.5432120000000 1.0
C      1  0.4510580000000  0.4798980000000  0.4747010000000 1.0
C      1  0.5141260000000  0.4795190000000  0.4231260000000 1.0
C      1  0.4268410000000  0.5139030000000  0.4532980000000 1.0
C      1  0.5286870000000  0.4253690000000  0.4804860000000 1.0
C      1  0.4451100000000  0.4951940000000  0.5467870000000 1.0
C      1  0.4445440000000  0.5274990000000  0.5111790000000 1.0
C      1  0.4973870000000  0.4987430000000  0.4338100000000 1.0
C      1  0.5300200000000  0.4746850000000  0.5692450000000 1.0
C      1  0.4753620000000  0.4660970000000  0.4786290000000 1.0
C      1  0.4811970000000  0.4673390000000  0.5667800000000 1.0
C      1  0.5790240000000  0.4792890000000  0.5095580000000 1.0
C      1  0.5650310000000  0.4537260000000  0.4659800000000 1.0
C      1  0.4286210000000  0.5667210000000  0.5309770000000 1.0
C      1  0.5667180000000  0.4890680000000  0.5340880000000 1.0
C      1  0.4972550000000  0.4946900000000  0.5080530000000 1.0
C      1  0.5533260000000  0.4939380000000  0.4399080000000 1.0
C      1  0.5225080000000  0.5270280000000  0.5624540000000 1.0
C      1  0.5583880000000  0.5491310000000  0.4673880000000 1.0
C      1  0.4163250000000  0.5275910000000  0.4316510000000 1.0
C      1  0.4065160000000  0.5412430000000  0.4111760000000 1.0
C      1  0.4131380000000  0.5098430000000  0.4790560000000 1.0
C      1  0.4301030000000  0.4887990000000  0.4936270000000 1.0
C      1  0.4392740000000  0.4997710000000  0.5189920000000 1.0
C      1  0.5407090000000  0.4230610000000  0.5268950000000 1.0
C      1  0.5679340000000  0.5173910000000  0.5407630000000 1.0
C      1  0.4529080000000  0.5012460000000  0.4542450000000 1.0
C      1  0.4910750000000  0.4932310000000  0.5584470000000 1.0
C      1  0.4535090000000  0.4699040000000  0.5590190000000 1.0
C      1  0.5387790000000  0.5643880000000  0.5212570000000 1.0
C      1  0.5509460000000  0.4697010000000  0.5498530000000 1.0
C      1  0.5517700000000  0.4428930000000  0.5407800000000 1.0
C      1  0.5791540000000  0.5374580000000  0.5243080000000 1.0
C      1  0.3968770000000  0.5547110000000  0.3910420000000 1.0
C      1  0.5409070000000  0.4998120000000  0.4649140000000 1.0
C      1  0.5703850000000  0.5648470000000  0.4856330000000 1.0
C      1  0.5504070000000  0.5290280000000  0.5598380000000 1.0
C      1  0.4997610000000  0.4779860000000  0.4865700000000 1.0
C      1  0.5258940000000  0.4772960000000  0.4768580000000 1.0
C      1  0.5023460000000  0.5423390000000  0.5459870000000 1.0
C      1  0.5070020000000  0.4551270000000  0.5736750000000 1.0
C      1  0.5308530000000  0.4116200000000  0.4555560000000 1.0
C      1  0.5157790000000  0.5005380000000  0.5695790000000 1.0
C      1  0.5564740000000  0.4484370000000  0.4374160000000 1.0
C      1  0.5053840000000  0.5425750000000  0.4932920000000 1.0
C      1  0.4853490000000  0.5312590000000  0.4753990000000 1.0
C      1  0.4218780000000  0.5448860000000  0.5139030000000 1.0
C      1  0.4035630000000  0.5325420000000  0.4949490000000 1.0
C      1  0.4120110000000  0.5878420000000  0.5355580000000 1.0
END
