TITL C-3201375-1262-36 -618.937644239438 125000 -284.941761936101 0 0 50 (C1) n - 1
REM
REM in /home/nfs/bkarasulu/CARBON/AIRSS/Generating-Clusters/LCBOP/Higher-Symm/SD-CG/FIRE-CG
REM
REM
REM
REM
REM
REM ./C.cell (b20cbc046b6831c77cfcea5457e17084)
REM AIRSS Version 0.9.1 bugfix July 2018 build 013d7b7c2542+ Fri, 06 Jul 2018 19:26:36 +0100
REM compiler GCC version 9.2.1 20190827 (Red Hat 9.2.1-1)
REM options -cpp -mtune=generic -march=x86-64 -g -O0 -fpre-include=/usr/include/finclude/math-vector-fortran.h
REM seed -1103403705 1199258224 -1334019601 -806551123 995587832 1316948248 -1267636041 -394299544 -236534754 1753958334 -1953193475 -2117040051 -241479572 -837450896 112598777 1518412693 -1776277664 821112577 -457917695 998896459 -78752149 -666635656 -523755186 326706474 877784503 299847268 638214893 347473825 -979497378 -53561716 220752402 1948044320 -1072776715
REM
CELL 1.54180   50.00000   50.00000   50.00000   90.00000   90.00000   90.00000
LATT -1
SFAC C  
C      1  0.4992140000000  0.5093510000000  0.4790070000000 1.0
C      1  0.4775660000000  0.5221120000000  0.4867760000000 1.0
C      1  0.4770020000000  0.5274420000000  0.5137200000000 1.0
C      1  0.5028940000000  0.5225380000000  0.5238740000000 1.0
C      1  0.5287450000000  0.5150510000000  0.5217490000000 1.0
C      1  0.5348230000000  0.4935210000000  0.5044110000000 1.0
C      1  0.5095580000000  0.4871430000000  0.4922560000000 1.0
C      1  0.4464910000000  0.4748040000000  0.4726960000000 1.0
C      1  0.4411860000000  0.5028450000000  0.4653420000000 1.0
C      1  0.4275650000000  0.5183510000000  0.4860350000000 1.0
C      1  0.4314440000000  0.5237960000000  0.5143490000000 1.0
C      1  0.4306840000000  0.4999590000000  0.5308970000000 1.0
C      1  0.4221730000000  0.4763320000000  0.5171700000000 1.0
C      1  0.4411140000000  0.4634010000000  0.5003680000000 1.0
C      1  0.5989280000000  0.4993940000000  0.4649040000000 1.0
C      1  0.6204580000000  0.4844770000000  0.4716370000000 1.0
C      1  0.6220930000000  0.4664210000000  0.4917470000000 1.0
C      1  0.6025250000000  0.4596630000000  0.5091490000000 1.0
C      1  0.5771430000000  0.4685520000000  0.5112460000000 1.0
C      1  0.5611160000000  0.4872350000000  0.4971970000000 1.0
C      1  0.5742600000000  0.5004110000000  0.4757750000000 1.0
C      1  0.4732060000000  0.4651520000000  0.4674520000000 1.0
C      1  0.4582590000000  0.5185130000000  0.4460230000000 1.0
C      1  0.4582780000000  0.5472210000000  0.4496570000000 1.0
C      1  0.4528940000000  0.5415530000000  0.5212450000000 1.0
C      1  0.4532090000000  0.4949120000000  0.5482610000000 1.0
C      1  0.4670060000000  0.4699450000000  0.5425040000000 1.0
C      1  0.4694590000000  0.4569930000000  0.5146180000000 1.0
C      1  0.5262920000000  0.4463720000000  0.4833700000000 1.0
C      1  0.5260610000000  0.4868890000000  0.4445640000000 1.0
C      1  0.5182270000000  0.5390630000000  0.4537790000000 1.0
C      1  0.5054620000000  0.5663690000000  0.5015610000000 1.0
C      1  0.5005780000000  0.5519100000000  0.5554610000000 1.0
C      1  0.5147430000000  0.5014420000000  0.5660010000000 1.0
C      1  0.5271530000000  0.4577190000000  0.5359540000000 1.0
C      1  0.5122570000000  0.5129850000000  0.4380940000000 1.0
C      1  0.5033650000000  0.5586530000000  0.4719620000000 1.0
C      1  0.4927670000000  0.5670940000000  0.5299530000000 1.0
C      1  0.4952130000000  0.5239800000000  0.5664590000000 1.0
C      1  0.5136330000000  0.4735580000000  0.5566450000000 1.0
C      1  0.5175020000000  0.4416560000000  0.5127690000000 1.0
C      1  0.5194270000000  0.4600100000000  0.4565590000000 1.0
C      1  0.4678300000000  0.5140520000000  0.5640480000000 1.0
C      1  0.4874300000000  0.4629590000000  0.5608710000000 1.0
C      1  0.4889890000000  0.4329850000000  0.5177020000000 1.0
C      1  0.4917180000000  0.4542560000000  0.4494400000000 1.0
C      1  0.4830820000000  0.5099210000000  0.4331470000000 1.0
C      1  0.4771250000000  0.5638000000000  0.4603530000000 1.0
C      1  0.4632390000000  0.5670940000000  0.5285110000000 1.0
C      1  0.4864990000000  0.4704210000000  0.4933590000000 1.0
END
