TITL C-3201372-1405-15 -3.04269599534273e-07 125000 -324.155676086045 0 0 53 (C1) n - 1
REM
REM in /home/nfs/bkarasulu/CARBON/AIRSS/Generating-Clusters/LCBOP/Higher-Symm/SD-CG/FIRE-CG
REM
REM
REM
REM
REM
REM ./C.cell (b20cbc046b6831c77cfcea5457e17084)
REM AIRSS Version 0.9.1 bugfix July 2018 build 013d7b7c2542+ Fri, 06 Jul 2018 19:26:36 +0100
REM compiler GCC version 9.2.1 20190827 (Red Hat 9.2.1-1)
REM options -cpp -mtune=generic -march=x86-64 -g -O0 -fpre-include=/usr/include/finclude/math-vector-fortran.h
REM seed -1039269063 702879262 622095074 928662294 588576665 -668545591 125916620 1268970794 1567422602 721786502 1682997116 252358599 985977399 1859001777 410858491 -953040401 1947917935 1675701426 1237922826 932644748 -1890611774 2035403967 -1936567321 1167051871 -2103318089 -688179805 859697886 -1198028765 -738903786 1975014355 299444098 -287525102 1289749946
REM
CELL 1.54180   50.00000   50.00000   50.00000   90.00000   90.00000   90.00000
LATT -1
SFAC C  
C      1  0.5126560000000  0.4914180000000  0.4244580000000 1.0
C      1  0.5620510000000  0.4966870000000  0.4934880000000 1.0
C      1  0.5306820000000  0.4980470000000  0.5672330000000 1.0
C      1  0.4471100000000  0.4925690000000  0.5485520000000 1.0
C      1  0.4394960000000  0.5031450000000  0.4678220000000 1.0
C      1  0.4847800000000  0.4956240000000  0.4286980000000 1.0
C      1  0.4315340000000  0.5072710000000  0.4945090000000 1.0
C      1  0.4728740000000  0.4907720000000  0.5591470000000 1.0
C      1  0.5519570000000  0.5053480000000  0.5497830000000 1.0
C      1  0.5516940000000  0.4981470000000  0.4670480000000 1.0
C      1  0.5630160000000  0.5222450000000  0.5065600000000 1.0
C      1  0.5099510000000  0.5177670000000  0.5671290000000 1.0
C      1  0.4397960000000  0.5191600000000  0.5393670000000 1.0
C      1  0.4506420000000  0.5230850000000  0.4508660000000 1.0
C      1  0.5296780000000  0.5146740000000  0.4275340000000 1.0
C      1  0.4252580000000  0.4825130000000  0.5084260000000 1.0
C      1  0.4894470000000  0.4720330000000  0.5730350000000 1.0
C      1  0.5696690000000  0.4855540000000  0.5397060000000 1.0
C      1  0.5477690000000  0.4742590000000  0.4519270000000 1.0
C      1  0.4659210000000  0.4754430000000  0.4372030000000 1.0
C      1  0.4896780000000  0.5106160000000  0.5480490000000 1.0
C      1  0.4423950000000  0.5285650000000  0.5118820000000 1.0
C      1  0.4784030000000  0.5183120000000  0.4461710000000 1.0
C      1  0.5378840000000  0.5215660000000  0.4547170000000 1.0
C      1  0.5460920000000  0.5254090000000  0.5291710000000 1.0
C      1  0.5179870000000  0.4714990000000  0.5665670000000 1.0
C      1  0.5635850000000  0.4748970000000  0.5135230000000 1.0
C      1  0.5244630000000  0.4680350000000  0.4366120000000 1.0
C      1  0.4562320000000  0.4792810000000  0.4641510000000 1.0
C      1  0.4402500000000  0.4716220000000  0.5301340000000 1.0
C      1  0.5090980000000  0.4462210000000  0.4453940000000 1.0
C      1  0.5503020000000  0.4503620000000  0.5153780000000 1.0
C      1  0.5244930000000  0.4528760000000  0.5467200000000 1.0
C      1  0.4587290000000  0.4497050000000  0.5285250000000 1.0
C      1  0.4767670000000  0.4768530000000  0.4846120000000 1.0
C      1  0.4946690000000  0.5183510000000  0.4701840000000 1.0
C      1  0.4614830000000  0.5503250000000  0.5059740000000 1.0
C      1  0.4986320000000  0.5121330000000  0.5201680000000 1.0
C      1  0.5194520000000  0.5331010000000  0.5228760000000 1.0
C      1  0.5168640000000  0.5364640000000  0.4683170000000 1.0
C      1  0.5313750000000  0.4311630000000  0.5091640000000 1.0
C      1  0.5099680000000  0.4373980000000  0.5285830000000 1.0
C      1  0.4841160000000  0.4428920000000  0.5172130000000 1.0
C      1  0.4861500000000  0.4508670000000  0.4895670000000 1.0
C      1  0.5030240000000  0.4367030000000  0.4711120000000 1.0
C      1  0.4749190000000  0.5595140000000  0.4812190000000 1.0
C      1  0.4796570000000  0.5600010000000  0.5269370000000 1.0
C      1  0.5083430000000  0.5594650000000  0.5223470000000 1.0
C      1  0.5169690000000  0.5747190000000  0.4995080000000 1.0
C      1  0.5045300000000  0.5615030000000  0.4772250000000 1.0
C      1  0.5230810000000  0.4217180000000  0.4843010000000 1.0
C      1  0.5331160000000  0.5964270000000  0.4991310000000 1.0
C      1  0.4903170000000  0.5014250000000  0.4934010000000 1.0
END
