TITL C-3201375-1262-30 4.09972148917933 125000 -272.853547514221 0 0 46 (C1) n - 1
REM
REM in /home/nfs/bkarasulu/CARBON/AIRSS/Generating-Clusters/LCBOP/Higher-Symm/SD-CG/FIRE-CG
REM
REM
REM
REM
REM
REM ./C.cell (b20cbc046b6831c77cfcea5457e17084)
REM AIRSS Version 0.9.1 bugfix July 2018 build 013d7b7c2542+ Fri, 06 Jul 2018 19:26:36 +0100
REM compiler GCC version 9.2.1 20190827 (Red Hat 9.2.1-1)
REM options -cpp -mtune=generic -march=x86-64 -g -O0 -fpre-include=/usr/include/finclude/math-vector-fortran.h
REM seed 1187775097 439116442 1040157297 -642323230 1819526137 1310167223 -1830842245 -1128356562 -846801481 1550827020 1824782907 847254000 -764967726 -1629486333 468398069 109869611 -428130500 -1379888226 1322220847 1875732678 -1641473206 -1440486745 -292469634 -1359339100 -120597144 -876318337 -2086674437 -1879915057 -447324221 -1785500978 149870918 -1875086727 957229458
REM
CELL 1.54180   50.00000   50.00000   50.00000   90.00000   90.00000   90.00000
LATT -1
SFAC C  
C      1  0.4920870000000  0.5649470000000  0.5089750000000 1.0
C      1  0.5614990000000  0.5088780000000  0.4877170000000 1.0
C      1  0.5092180000000  0.4858290000000  0.5594810000000 1.0
C      1  0.5145930000000  0.4419080000000  0.5067180000000 1.0
C      1  0.4887950000000  0.4406090000000  0.4929690000000 1.0
C      1  0.5172670000000  0.5628410000000  0.4952570000000 1.0
C      1  0.4408200000000  0.4932420000000  0.4882830000000 1.0
C      1  0.5602910000000  0.4949000000000  0.5131890000000 1.0
C      1  0.4395990000000  0.5074780000000  0.5139450000000 1.0
C      1  0.4944350000000  0.5100740000000  0.5640770000000 1.0
C      1  0.5096640000000  0.5133190000000  0.4417890000000 1.0
C      1  0.4956150000000  0.4876260000000  0.4410700000000 1.0
C      1  0.4553770000000  0.5067760000000  0.4657520000000 1.0
C      1  0.5097320000000  0.4637410000000  0.4519190000000 1.0
C      1  0.4643350000000  0.4502560000000  0.5082010000000 1.0
C      1  0.5507280000000  0.4940790000000  0.4637190000000 1.0
C      1  0.4522960000000  0.4889250000000  0.5415430000000 1.0
C      1  0.5491600000000  0.5084990000000  0.5366900000000 1.0
C      1  0.4963770000000  0.5358460000000  0.4555460000000 1.0
C      1  0.5110530000000  0.5392420000000  0.5510110000000 1.0
C      1  0.4952120000000  0.4623820000000  0.5479970000000 1.0
C      1  0.5413720000000  0.5513840000000  0.5095270000000 1.0
C      1  0.4642400000000  0.5491530000000  0.4917530000000 1.0
C      1  0.5374810000000  0.4545950000000  0.4934330000000 1.0
C      1  0.4655760000000  0.5044540000000  0.5630350000000 1.0
C      1  0.5132610000000  0.5561140000000  0.4674030000000 1.0
C      1  0.5569690000000  0.4667860000000  0.5104060000000 1.0
C      1  0.5368380000000  0.4907000000000  0.5554510000000 1.0
C      1  0.4673480000000  0.4902560000000  0.4454040000000 1.0
C      1  0.5381880000000  0.5105710000000  0.4435080000000 1.0
C      1  0.4924100000000  0.4438110000000  0.4644310000000 1.0
C      1  0.5121680000000  0.4434510000000  0.5349120000000 1.0
C      1  0.4903520000000  0.5552300000000  0.5366030000000 1.0
C      1  0.4491780000000  0.5356790000000  0.5134770000000 1.0
C      1  0.5598490000000  0.5373990000000  0.4916040000000 1.0
C      1  0.4442720000000  0.4644930000000  0.4920090000000 1.0
C      1  0.5101490000000  0.5215960000000  0.5072190000000 1.0
C      1  0.4866880000000  0.5137760000000  0.5213960000000 1.0
C      1  0.5160720000000  0.5044510000000  0.4874400000000 1.0
C      1  0.4701070000000  0.5349680000000  0.5330290000000 1.0
C      1  0.4971820000000  0.4851210000000  0.4874220000000 1.0
C      1  0.4797040000000  0.4907100000000  0.5069480000000 1.0
C      1  0.4670920000000  0.4623510000000  0.5367920000000 1.0
C      1  0.4696970000000  0.5328290000000  0.4685430000000 1.0
C      1  0.5358620000000  0.4676230000000  0.4668060000000 1.0
C      1  0.5379100000000  0.5365010000000  0.5366180000000 1.0
END
