TITL C-3201378-2706-324 53835.2679253511 125000 -1169.80364379235 0 0 195 (C1) n - 1
REM
REM in /home/nfs/bkarasulu/CARBON/AIRSS/Generating-Clusters/LCBOP/Higher-Symm/SD-CG/FIRE-CG
REM
REM
REM
REM
REM
REM ./C.cell (b20cbc046b6831c77cfcea5457e17084)
REM AIRSS Version 0.9.1 bugfix July 2018 build 013d7b7c2542+ Fri, 06 Jul 2018 19:26:36 +0100
REM compiler GCC version 9.2.1 20190827 (Red Hat 9.2.1-1)
REM options -cpp -mtune=generic -march=x86-64 -g -O0 -fpre-include=/usr/include/finclude/math-vector-fortran.h
REM seed 334969532 -1256191185 -451170145 -149351487 1652822629 1899635298 -737343814 -630995081 1718475013 2109427035 2035609909 -407510480 565378695 -723021739 1531602483 697927118 1991128450 1471564412 1777579289 -2021059119 1914531568 -489058066 1617921434 -1302887848 1001203572 -895349128 1929794167 479230065 409881548 -1198598956 -44116147 -1357520200 -167348586
REM
CELL 1.54180   50.00000   50.00000   50.00000   90.00000   90.00000   90.00000
LATT -1
SFAC C  
C      1  0.4864660000000  0.5460080000000  0.5576630000000 1.0
C      1  0.4660340000000  0.4621780000000  0.5617200000000 1.0
C      1  0.5494370000000  0.4888360000000  0.5620250000000 1.0
C      1  0.5163260000000  0.5495190000000  0.4412490000000 1.0
C      1  0.5327040000000  0.4615320000000  0.4399630000000 1.0
C      1  0.4506480000000  0.4897770000000  0.4372780000000 1.0
C      1  0.5610310000000  0.4850690000000  0.4678430000000 1.0
C      1  0.4812530000000  0.5626640000000  0.4673690000000 1.0
C      1  0.4535010000000  0.4548440000000  0.4671580000000 1.0
C      1  0.4384440000000  0.4820160000000  0.5308720000000 1.0
C      1  0.5186970000000  0.5584050000000  0.5216740000000 1.0
C      1  0.5439620000000  0.4553910000000  0.5297230000000 1.0
C      1  0.4333580000000  0.4681110000000  0.4858290000000 1.0
C      1  0.5665440000000  0.4637810000000  0.4851280000000 1.0
C      1  0.4975240000000  0.5782100000000  0.4837370000000 1.0
C      1  0.5648290000000  0.4709400000000  0.5135790000000 1.0
C      1  0.4385510000000  0.4572570000000  0.5128600000000 1.0
C      1  0.4938020000000  0.5717890000000  0.5120590000000 1.0
C      1  0.3938060000000  0.4555510000000  0.5259250000000 1.0
C      1  0.5901350000000  0.4334050000000  0.5260710000000 1.0
C      1  0.5138670000000  0.6116060000000  0.5265130000000 1.0
C      1  0.6091190000000  0.4556960000000  0.4739900000000 1.0
C      1  0.4078990000000  0.4309080000000  0.4740370000000 1.0
C      1  0.4835680000000  0.6188060000000  0.4727390000000 1.0
C      1  0.5722320000000  0.5549750000000  0.5578180000000 1.0
C      1  0.4190190000000  0.5312410000000  0.5531260000000 1.0
C      1  0.5112930000000  0.4139630000000  0.5551980000000 1.0
C      1  0.4313590000000  0.5534530000000  0.4448640000000 1.0
C      1  0.5777990000000  0.5325990000000  0.4460540000000 1.0
C      1  0.4856200000000  0.4130390000000  0.4439710000000 1.0
C      1  0.5515590000000  0.4429890000000  0.5560520000000 1.0
C      1  0.5259170000000  0.5725490000000  0.5545660000000 1.0
C      1  0.4240890000000  0.4819940000000  0.5566480000000 1.0
C      1  0.4455970000000  0.4429520000000  0.4414410000000 1.0
C      1  0.4758210000000  0.5738580000000  0.4412940000000 1.0
C      1  0.5742300000000  0.4836710000000  0.4420310000000 1.0
C      1  0.5203680000000  0.4786520000000  0.5592060000000 1.0
C      1  0.5095240000000  0.5265740000000  0.5568100000000 1.0
C      1  0.4709410000000  0.4922720000000  0.5596570000000 1.0
C      1  0.4787990000000  0.4783170000000  0.4384770000000 1.0
C      1  0.4935010000000  0.5291330000000  0.4416540000000 1.0
C      1  0.5271440000000  0.4921300000000  0.4403580000000 1.0
C      1  0.4762520000000  0.5612900000000  0.3883770000000 1.0
C      1  0.4578800000000  0.4496520000000  0.3872880000000 1.0
C      1  0.5639330000000  0.4900460000000  0.3885310000000 1.0
C      1  0.5232530000000  0.5618190000000  0.6098640000000 1.0
C      1  0.5407090000000  0.4492110000000  0.6116190000000 1.0
C      1  0.4353390000000  0.4903770000000  0.6109370000000 1.0
C      1  0.4535660000000  0.5493150000000  0.6138420000000 1.0
C      1  0.4807090000000  0.4359870000000  0.6173370000000 1.0
C      1  0.5662590000000  0.5156540000000  0.6170670000000 1.0
C      1  0.5460000000000  0.5490620000000  0.3828040000000 1.0
C      1  0.5178470000000  0.4354110000000  0.3819060000000 1.0
C      1  0.4338830000000  0.5162790000000  0.3826630000000 1.0
C      1  0.5382450000000  0.5570570000000  0.4986180000000 1.0
C      1  0.4368310000000  0.4978560000000  0.4859770000000 1.0
C      1  0.5300790000000  0.4399480000000  0.4891060000000 1.0
C      1  0.4694460000000  0.5541430000000  0.5119660000000 1.0
C      1  0.5576710000000  0.4999220000000  0.5147160000000 1.0
C      1  0.4649320000000  0.4434690000000  0.5133020000000 1.0
C      1  0.5493280000000  0.5617100000000  0.5972470000000 1.0
C      1  0.4233750000000  0.5129240000000  0.5959740000000 1.0
C      1  0.5264220000000  0.4276340000000  0.5971720000000 1.0
C      1  0.4498090000000  0.5598760000000  0.4020170000000 1.0
C      1  0.5752690000000  0.5135490000000  0.4029000000000 1.0
C      1  0.4718520000000  0.4277660000000  0.4016380000000 1.0
C      1  0.4380390000000  0.5299730000000  0.5329900000000 1.0
C      1  0.5022840000000  0.4306740000000  0.5350700000000 1.0
C      1  0.5634580000000  0.5375980000000  0.5384270000000 1.0
C      1  0.5624060000000  0.5312770000000  0.4691190000000 1.0
C      1  0.4936510000000  0.4283900000000  0.4656870000000 1.0
C      1  0.4420850000000  0.5375140000000  0.4649470000000 1.0
C      1  0.4346950000000  0.5790590000000  0.5427890000000 1.0
C      1  0.4624100000000  0.4024340000000  0.5454000000000 1.0
C      1  0.6051550000000  0.5183080000000  0.5457710000000 1.0
C      1  0.5634930000000  0.5812260000000  0.4551870000000 1.0
C      1  0.5360190000000  0.4032680000000  0.4543360000000 1.0
C      1  0.3977050000000  0.5166350000000  0.4555420000000 1.0
C      1  0.5526940000000  0.3986010000000  0.5051870000000 1.0
C      1  0.5624040000000  0.5987580000000  0.5043430000000 1.0
C      1  0.3859690000000  0.5056640000000  0.5048670000000 1.0
C      1  0.4460720000000  0.3973120000000  0.4954230000000 1.0
C      1  0.4375970000000  0.5973910000000  0.4944390000000 1.0
C      1  0.6177120000000  0.5056060000000  0.4958760000000 1.0
C      1  0.4643440000000  0.5431390000000  0.5384220000000 1.0
C      1  0.4775370000000  0.4454770000000  0.5401210000000 1.0
C      1  0.5606690000000  0.5088990000000  0.5437970000000 1.0
C      1  0.5372780000000  0.5480240000000  0.4694310000000 1.0
C      1  0.5203020000000  0.4431600000000  0.4615760000000 1.0
C      1  0.4432840000000  0.5083550000000  0.4591970000000 1.0
C      1  0.5168030000000  0.4792240000000  0.3871530000000 1.0
C      1  0.5089160000000  0.5253450000000  0.3879190000000 1.0
C      1  0.4729690000000  0.4960080000000  0.3888960000000 1.0
C      1  0.4826960000000  0.4799630000000  0.6109800000000 1.0
C      1  0.4912090000000  0.5258550000000  0.6104150000000 1.0
C      1  0.5268430000000  0.4959960000000  0.6108260000000 1.0
C      1  0.4838610000000  0.4308620000000  0.4932030000000 1.0
C      1  0.5694120000000  0.5216680000000  0.4955010000000 1.0
C      1  0.4498450000000  0.5431650000000  0.4920250000000 1.0
C      1  0.5100050000000  0.4309820000000  0.5079690000000 1.0
C      1  0.4370470000000  0.5200260000000  0.5060660000000 1.0
C      1  0.5615430000000  0.5451070000000  0.5115690000000 1.0
C      1  0.4069720000000  0.4607040000000  0.4714230000000 1.0
C      1  0.5822390000000  0.4427850000000  0.4725620000000 1.0
C      1  0.5080560000000  0.6019240000000  0.4712810000000 1.0
C      1  0.5909130000000  0.4633380000000  0.5288760000000 1.0
C      1  0.4185900000000  0.4392050000000  0.5282450000000 1.0
C      1  0.4881270000000  0.5968770000000  0.5289980000000 1.0
C      1  0.5021380000000  0.4199320000000  0.4010880000000 1.0
C      1  0.5667130000000  0.5435160000000  0.4024640000000 1.0
C      1  0.4278040000000  0.5375870000000  0.4015900000000 1.0
C      1  0.4960800000000  0.4197850000000  0.5984130000000 1.0
C      1  0.4316320000000  0.5430020000000  0.5958530000000 1.0
C      1  0.5743280000000  0.5369210000000  0.5995670000000 1.0
C      1  0.5213740000000  0.5157500000000  0.5810260000000 1.0
C      1  0.4775690000000  0.5106980000000  0.5809040000000 1.0
C      1  0.5030680000000  0.4742950000000  0.5818900000000 1.0
C      1  0.4798890000000  0.5165510000000  0.4187730000000 1.0
C      1  0.5230490000000  0.5095650000000  0.4173620000000 1.0
C      1  0.4968340000000  0.4730790000000  0.4166670000000 1.0
C      1  0.5819580000000  0.5086040000000  0.4307700000000 1.0
C      1  0.4503540000000  0.5687430000000  0.4297400000000 1.0
C      1  0.4631250000000  0.4234210000000  0.4292560000000 1.0
C      1  0.4158500000000  0.5070170000000  0.5682760000000 1.0
C      1  0.5504940000000  0.5692380000000  0.5694390000000 1.0
C      1  0.5343680000000  0.4236750000000  0.5691230000000 1.0
C      1  0.5462920000000  0.4411870000000  0.3860890000000 1.0
C      1  0.5269580000000  0.5708040000000  0.3861520000000 1.0
C      1  0.4243260000000  0.4888760000000  0.3852370000000 1.0
C      1  0.4522130000000  0.4416260000000  0.6142200000000 1.0
C      1  0.4726910000000  0.5707260000000  0.6084940000000 1.0
C      1  0.5746820000000  0.4877430000000  0.6134790000000 1.0
C      1  0.4971540000000  0.4708330000000  0.4849410000000 1.0
C      1  0.5191230000000  0.5085760000000  0.4865020000000 1.0
C      1  0.4913920000000  0.5161080000000  0.4884950000000 1.0
C      1  0.5005160000000  0.4779130000000  0.5117710000000 1.0
C      1  0.4826300000000  0.5008810000000  0.5127830000000 1.0
C      1  0.5294900000000  0.5096360000000  0.5122240000000 1.0
C      1  0.5187450000000  0.4701930000000  0.5318170000000 1.0
C      1  0.5187890000000  0.5290290000000  0.5301720000000 1.0
C      1  0.4639060000000  0.4958560000000  0.5323600000000 1.0
C      1  0.4786410000000  0.4687560000000  0.4649830000000 1.0
C      1  0.4847380000000  0.5337920000000  0.4682370000000 1.0
C      1  0.5352210000000  0.4981020000000  0.4666340000000 1.0
C      1  0.5655720000000  0.4208850000000  0.4591670000000 1.0
C      1  0.5353310000000  0.5976570000000  0.4585910000000 1.0
C      1  0.3962900000000  0.4852200000000  0.4573380000000 1.0
C      1  0.4341670000000  0.4175760000000  0.5428600000000 1.0
C      1  0.4614400000000  0.5946140000000  0.5423240000000 1.0
C      1  0.6032870000000  0.4867860000000  0.5427310000000 1.0
C      1  0.5898760000000  0.5372650000000  0.5730710000000 1.0
C      1  0.4256410000000  0.5557320000000  0.5682650000000 1.0
C      1  0.4871950000000  0.4075140000000  0.5710650000000 1.0
C      1  0.4135370000000  0.5357000000000  0.4293630000000 1.0
C      1  0.5710160000000  0.5567130000000  0.4304680000000 1.0
C      1  0.5107490000000  0.4079130000000  0.4288190000000 1.0
C      1  0.5165670000000  0.5368690000000  0.6218540000000 1.0
C      1  0.4607040000000  0.4970630000000  0.6220440000000 1.0
C      1  0.5229700000000  0.4685470000000  0.6228890000000 1.0
C      1  0.4834690000000  0.5363510000000  0.3766060000000 1.0
C      1  0.5389510000000  0.4961800000000  0.3761090000000 1.0
C      1  0.4761100000000  0.4686020000000  0.3761560000000 1.0
C      1  0.5398760000000  0.6090940000000  0.5167660000000 1.0
C      1  0.3856170000000  0.4806300000000  0.5167400000000 1.0
C      1  0.5737030000000  0.4126400000000  0.5168290000000 1.0
C      1  0.4580100000000  0.6120930000000  0.4826000000000 1.0
C      1  0.6176230000000  0.4806950000000  0.4836270000000 1.0
C      1  0.4248680000000  0.4105930000000  0.4832850000000 1.0
C      1  0.5783080000000  0.5809790000000  0.4848670000000 1.0
C      1  0.3939620000000  0.5283210000000  0.4858760000000 1.0
C      1  0.5287870000000  0.3926410000000  0.4867190000000 1.0
C      1  0.4226570000000  0.5779040000000  0.5127500000000 1.0
C      1  0.6104760000000  0.5292970000000  0.5145850000000 1.0
C      1  0.4701410000000  0.3922170000000  0.5145390000000 1.0
C      1  0.4952770000000  0.4600330000000  0.6266720000000 1.0
C      1  0.5380070000000  0.5172870000000  0.6258150000000 1.0
C      1  0.4669500000000  0.5254040000000  0.6249750000000 1.0
C      1  0.5036860000000  0.4594920000000  0.3717770000000 1.0
C      1  0.4619310000000  0.5170490000000  0.3736760000000 1.0
C      1  0.5327950000000  0.5245550000000  0.3728610000000 1.0
C      1  0.5619710000000  0.4622090000000  0.3990640000000 1.0
C      1  0.5010920000000  0.5736450000000  0.3990920000000 1.0
C      1  0.4345880000000  0.4646480000000  0.3978010000000 1.0
C      1  0.4364780000000  0.4624660000000  0.6011520000000 1.0
C      1  0.4992620000000  0.5731730000000  0.5967120000000 1.0
C      1  0.5642650000000  0.4633740000000  0.6008990000000 1.0
C      1  0.5005330000000  0.5695860000000  0.5683160000000 1.0
C      1  0.4385210000000  0.4621110000000  0.5728490000000 1.0
C      1  0.5627320000000  0.4646590000000  0.5725790000000 1.0
C      1  0.5019200000000  0.5721050000000  0.4274880000000 1.0
C      1  0.5600520000000  0.4622680000000  0.4274720000000 1.0
C      1  0.4360370000000  0.4663090000000  0.4261260000000 1.0
C      1  0.6007360000000  0.5585760000000  0.4987620000000 1.0
C      1  0.4040790000000  0.5556520000000  0.4991660000000 1.0
C      1  0.4995350000000  0.3866940000000  0.5006080000000 1.0
END
