TITL C-3201372-1405-122 2.06965514869723e-07 125000 -332.667464759276 0 0 55 (C3) n - 1
REM
REM in /home/nfs/bkarasulu/CARBON/AIRSS/Generating-Clusters/LCBOP/Higher-Symm/SD-CG/FIRE-CG
REM
REM
REM
REM
REM
REM ./C.cell (b20cbc046b6831c77cfcea5457e17084)
REM AIRSS Version 0.9.1 bugfix July 2018 build 013d7b7c2542+ Fri, 06 Jul 2018 19:26:36 +0100
REM compiler GCC version 9.2.1 20190827 (Red Hat 9.2.1-1)
REM options -cpp -mtune=generic -march=x86-64 -g -O0 -fpre-include=/usr/include/finclude/math-vector-fortran.h
REM seed 34419709 1587205851 -1358371408 377107304 -1593229030 317484277 340545895 -1394376871 -893817932 2046493691 -342296006 791885660 -685919097 1353181805 -1940499060 -1286610730 1521312276 1374178905 -524565639 1663811923 -1528735827 1652883159 -259187754 2031165547 1769417896 -715433084 -1402659491 -854760466 1900058304 -1290092660 -674235316 -1125399332 83556671
REM
CELL 1.54180   50.00000   50.00000   50.00000   90.00000   90.00000   90.00000
LATT -1
SFAC C  
C      1  0.5422150000000  0.5430030000000  0.4126800000000 1.0
C      1  0.5422190000000  0.4031700000000  0.5070840000000 1.0
C      1  0.5422180000000  0.5548430000000  0.5809810000000 1.0
C      1  0.4451220000000  0.4910980000000  0.4500250000000 1.0
C      1  0.4451250000000  0.4614600000000  0.5333650000000 1.0
C      1  0.4451230000000  0.5484530000000  0.5173620000000 1.0
C      1  0.5504410000000  0.5295110000000  0.5809290000000 1.0
C      1  0.5504380000000  0.5556240000000  0.4346440000000 1.0
C      1  0.5504410000000  0.4158810000000  0.4851710000000 1.0
C      1  0.4972750000000  0.4864590000000  0.5694970000000 1.0
C      1  0.4972720000000  0.5672470000000  0.4776450000000 1.0
C      1  0.4972730000000  0.4473080000000  0.4536060000000 1.0
C      1  0.5680460000000  0.4954520000000  0.5516420000000 1.0
C      1  0.5680430000000  0.5472910000000  0.4787830000000 1.0
C      1  0.5680450000000  0.4582740000000  0.4703190000000 1.0
C      1  0.4295880000000  0.5266160000000  0.5095560000000 1.0
C      1  0.4295880000000  0.4952560000000  0.4728390000000 1.0
C      1  0.4295890000000  0.4791380000000  0.5183570000000 1.0
C      1  0.4746300000000  0.5387980000000  0.4391320000000 1.0
C      1  0.4746330000000  0.4281770000000  0.4975010000000 1.0
C      1  0.4746330000000  0.5340370000000  0.5641170000000 1.0
C      1  0.5238660000000  0.5270190000000  0.4017750000000 1.0
C      1  0.5238700000000  0.4017170000000  0.5263790000000 1.0
C      1  0.5238690000000  0.5722790000000  0.5725920000000 1.0
C      1  0.4696340000000  0.5605360000000  0.5236860000000 1.0
C      1  0.4696330000000  0.4905340000000  0.4363990000000 1.0
C      1  0.4696360000000  0.4499420000000  0.5406650000000 1.0
C      1  0.4856110000000  0.4676060000000  0.4383230000000 1.0
C      1  0.4856140000000  0.4630730000000  0.5595600000000 1.0
C      1  0.4856110000000  0.5703340000000  0.5028660000000 1.0
C      1  0.4236020000000  0.5054280000000  0.5277780000000 1.0
C      1  0.4236010000000  0.5216300000000  0.4820780000000 1.0
C      1  0.4236020000000  0.4739510000000  0.4908970000000 1.0
C      1  0.4814100000000  0.4339540000000  0.4724850000000 1.0
C      1  0.4814110000000  0.5094840000000  0.5716220000000 1.0
C      1  0.4814080000000  0.5575740000000  0.4566420000000 1.0
C      1  0.5486730000000  0.4382220000000  0.4682880000000 1.0
C      1  0.5486740000000  0.5037180000000  0.5700230000000 1.0
C      1  0.5486710000000  0.5590760000000  0.4624340000000 1.0
C      1  0.4801160000000  0.4287180000000  0.5250380000000 1.0
C      1  0.4801140000000  0.5576150000000  0.5498800000000 1.0
C      1  0.4801120000000  0.5146800000000  0.4258310000000 1.0
C      1  0.5796050000000  0.5266080000000  0.4907500000000 1.0
C      1  0.5796050000000  0.4789800000000  0.4822470000000 1.0
C      1  0.5796060000000  0.4954300000000  0.5277460000000 1.0
C      1  0.4121080000000  0.5099230000000  0.5521210000000 1.0
C      1  0.4121060000000  0.5404640000000  0.4660140000000 1.0
C      1  0.4121080000000  0.4506230000000  0.4826190000000 1.0
C      1  0.5249270000000  0.5691270000000  0.4735010000000 1.0
C      1  0.5249280000000  0.4427800000000  0.4540500000000 1.0
C      1  0.5249300000000  0.4891080000000  0.5731950000000 1.0
C      1  0.5003070000000  0.5741420000000  0.5601590000000 1.0
C      1  0.5003050000000  0.5153190000000  0.4063780000000 1.0
C      1  0.5003090000000  0.4115530000000  0.5342110000000 1.0
C      1  0.5810400000000  0.5003390000000  0.5002480000000 1.0
END
