TITL C-3201376-6384-659 -9.71330341310588e-05 125000 -319.620473910941 0 0 54 (C1) n - 1
REM
REM in /home/nfs/bkarasulu/CARBON/AIRSS/Generating-Clusters/LCBOP/Higher-Symm/SD-CG/FIRE-CG
REM
REM
REM
REM
REM
REM ./C.cell (b20cbc046b6831c77cfcea5457e17084)
REM AIRSS Version 0.9.1 bugfix July 2018 build 013d7b7c2542+ Fri, 06 Jul 2018 19:26:36 +0100
REM compiler GCC version 9.2.1 20190827 (Red Hat 9.2.1-1)
REM options -cpp -mtune=generic -march=x86-64 -g -O0 -fpre-include=/usr/include/finclude/math-vector-fortran.h
REM seed 1073658170 -1133778995 -357036497 -2107845522 -1133394070 -1525177562 22523825 -1132111671 1913650858 406803873 685419586 -646866413 1677568012 -482688146 -530706856 -1800909347 1394039708 745849000 1380275455 1133428303 -888631368 988743976 1426974986 -1698614979 -1652420647 -828560542 -1886422876 -1854186389 1645008646 -250517481 2072687628 2087736647 -2017002888
REM
CELL 1.54180   50.00000   50.00000   50.00000   90.00000   90.00000   90.00000
LATT -1
SFAC C  
C      1  0.4247460000000  0.4031650000000  0.5366610000000 1.0
C      1  0.5889410000000  0.5051830000000  0.5528680000000 1.0
C      1  0.4879360000000  0.5264590000000  0.5721640000000 1.0
C      1  0.5348930000000  0.4827750000000  0.4526400000000 1.0
C      1  0.6023090000000  0.4678790000000  0.4938090000000 1.0
C      1  0.4478130000000  0.4686780000000  0.4610710000000 1.0
C      1  0.5640850000000  0.4976860000000  0.5071640000000 1.0
C      1  0.3983740000000  0.4737940000000  0.5000340000000 1.0
C      1  0.4893190000000  0.4726310000000  0.4292900000000 1.0
C      1  0.4547910000000  0.5530340000000  0.4633940000000 1.0
C      1  0.4457080000000  0.4759220000000  0.4886300000000 1.0
C      1  0.4315330000000  0.4565030000000  0.5315060000000 1.0
C      1  0.4956720000000  0.5124480000000  0.4681200000000 1.0
C      1  0.5156420000000  0.5813770000000  0.5006210000000 1.0
C      1  0.5719660000000  0.5072000000000  0.5323110000000 1.0
C      1  0.5326810000000  0.4636870000000  0.4737660000000 1.0
C      1  0.5743700000000  0.4729400000000  0.4967920000000 1.0
C      1  0.5065270000000  0.4633640000000  0.4847440000000 1.0
C      1  0.5124430000000  0.5637540000000  0.5469110000000 1.0
C      1  0.5211640000000  0.5445630000000  0.4315280000000 1.0
C      1  0.3482580000000  0.4836150000000  0.4876020000000 1.0
C      1  0.4566830000000  0.5366240000000  0.5138360000000 1.0
C      1  0.4560590000000  0.4861260000000  0.5699460000000 1.0
C      1  0.5556040000000  0.4536900000000  0.4869750000000 1.0
C      1  0.5203160000000  0.5226200000000  0.5046690000000 1.0
C      1  0.6108350000000  0.4903590000000  0.5576350000000 1.0
C      1  0.4279270000000  0.4289410000000  0.5345080000000 1.0
C      1  0.4720700000000  0.5121220000000  0.5151340000000 1.0
C      1  0.4250430000000  0.4686640000000  0.5064830000000 1.0
C      1  0.5082110000000  0.5632940000000  0.4821570000000 1.0
C      1  0.6230130000000  0.4725320000000  0.5416310000000 1.0
C      1  0.5064320000000  0.5353160000000  0.4817760000000 1.0
C      1  0.4487490000000  0.5467930000000  0.4888330000000 1.0
C      1  0.4653900000000  0.5524830000000  0.5363110000000 1.0
C      1  0.4521700000000  0.5734280000000  0.5473890000000 1.0
C      1  0.5596600000000  0.4268670000000  0.4902700000000 1.0
C      1  0.6182710000000  0.4642290000000  0.5166370000000 1.0
C      1  0.4968610000000  0.4413890000000  0.4978150000000 1.0
C      1  0.4713940000000  0.5552040000000  0.4423510000000 1.0
C      1  0.4649140000000  0.4684230000000  0.4400920000000 1.0
C      1  0.4909060000000  0.4871930000000  0.4812390000000 1.0
C      1  0.4417270000000  0.4715510000000  0.5528900000000 1.0
C      1  0.4683420000000  0.4900010000000  0.4982830000000 1.0
C      1  0.5437480000000  0.5087110000000  0.4623280000000 1.0
C      1  0.4954670000000  0.5525910000000  0.4305970000000 1.0
C      1  0.6134860000000  0.4670650000000  0.4688360000000 1.0
C      1  0.3731140000000  0.4787470000000  0.4937720000000 1.0
C      1  0.5193620000000  0.5809050000000  0.5272530000000 1.0
C      1  0.5155380000000  0.4789700000000  0.4319650000000 1.0
C      1  0.5442190000000  0.5113040000000  0.4921640000000 1.0
C      1  0.4927690000000  0.5416000000000  0.5469690000000 1.0
C      1  0.4994740000000  0.5200100000000  0.5249870000000 1.0
C      1  0.5402580000000  0.5304510000000  0.4443660000000 1.0
C      1  0.4728170000000  0.5051410000000  0.5782760000000 1.0
END
