TITL C-3201372-1405-2013 -3202.62306068294 125000 -953.180446142488 0 0 155 (C1) n - 1
REM
REM in /home/nfs/bkarasulu/CARBON/AIRSS/Generating-Clusters/LCBOP/Higher-Symm/SD-CG/FIRE-CG
REM
REM
REM
REM
REM
REM ./C.cell (b20cbc046b6831c77cfcea5457e17084)
REM AIRSS Version 0.9.1 bugfix July 2018 build 013d7b7c2542+ Fri, 06 Jul 2018 19:26:36 +0100
REM compiler GCC version 9.2.1 20190827 (Red Hat 9.2.1-1)
REM options -cpp -mtune=generic -march=x86-64 -g -O0 -fpre-include=/usr/include/finclude/math-vector-fortran.h
REM seed -482346408 934626731 -721625831 32012493 -1813154165 -1619593464 -1639582137 -230870274 -512434561 -339758918 -1200868107 -117319677 -1898492839 1065650221 731631416 1201667746 613780439 223457768 -1102438772 -103719699 -536268207 2100941134 48938276 -1051203 2001379555 1638900363 1999426835 1955749009 -1925086064 -1504835444 -1720013018 -632855778 347621775
REM
CELL 1.54180   50.00000   50.00000   50.00000   90.00000   90.00000   90.00000
LATT -1
SFAC C  
C      1  0.4673960000000  0.4453030000000  0.4938560000000 1.0
C      1  0.4605750000000  0.5251500000000  0.4530250000000 1.0
C      1  0.4750480000000  0.5184430000000  0.5576970000000 1.0
C      1  0.5254420000000  0.5586830000000  0.4985650000000 1.0
C      1  0.5242070000000  0.4544810000000  0.4596940000000 1.0
C      1  0.5260390000000  0.4739460000000  0.5290420000000 1.0
C      1  0.5670030000000  0.5096200000000  0.4544220000000 1.0
C      1  0.5666400000000  0.5395840000000  0.5262960000000 1.0
C      1  0.5756170000000  0.4572380000000  0.5132430000000 1.0
C      1  0.4169980000000  0.4946020000000  0.4556560000000 1.0
C      1  0.4292010000000  0.4643340000000  0.5286920000000 1.0
C      1  0.4342580000000  0.5396140000000  0.5213040000000 1.0
C      1  0.5043770000000  0.4808820000000  0.6859440000000 1.0
C      1  0.5211500000000  0.3390700000000  0.4011550000000 1.0
C      1  0.5344790000000  0.6611760000000  0.4011780000000 1.0
C      1  0.4843290000000  0.4979390000000  0.6893630000000 1.0
C      1  0.5207140000000  0.6492790000000  0.3818570000000 1.0
C      1  0.5057280000000  0.3276780000000  0.4195060000000 1.0
C      1  0.5324130000000  0.6057270000000  0.5094500000000 1.0
C      1  0.5341200000000  0.4450950000000  0.5717670000000 1.0
C      1  0.5235180000000  0.4551340000000  0.4096190000000 1.0
C      1  0.4669550000000  0.3971830000000  0.5088560000000 1.0
C      1  0.4625420000000  0.5567650000000  0.5899090000000 1.0
C      1  0.4713220000000  0.5399180000000  0.4074910000000 1.0
C      1  0.5540510000000  0.4111140000000  0.5138860000000 1.0
C      1  0.5376490000000  0.5290820000000  0.4189460000000 1.0
C      1  0.5529260000000  0.5658150000000  0.5676580000000 1.0
C      1  0.4433340000000  0.5894890000000  0.5284140000000 1.0
C      1  0.4384820000000  0.4732200000000  0.4145790000000 1.0
C      1  0.4519240000000  0.4424540000000  0.5668310000000 1.0
C      1  0.4494950000000  0.5431950000000  0.6404390000000 1.0
C      1  0.4677660000000  0.3509030000000  0.4812540000000 1.0
C      1  0.4817450000000  0.5842680000000  0.3780830000000 1.0
C      1  0.5405820000000  0.4537650000000  0.6247990000000 1.0
C      1  0.5474290000000  0.6435700000000  0.4737340000000 1.0
C      1  0.5409790000000  0.4104060000000  0.3857850000000 1.0
C      1  0.4839890000000  0.4835300000000  0.4456720000000 1.0
C      1  0.4908540000000  0.5762920000000  0.5363300000000 1.0
C      1  0.4854900000000  0.4395560000000  0.5372340000000 1.0
C      1  0.5087550000000  0.4928610000000  0.4531310000000 1.0
C      1  0.4982710000000  0.4188190000000  0.5467020000000 1.0
C      1  0.5065260000000  0.5548400000000  0.5445710000000 1.0
C      1  0.4550020000000  0.4794210000000  0.5273130000000 1.0
C      1  0.4415840000000  0.4844160000000  0.4680030000000 1.0
C      1  0.4572440000000  0.5347690000000  0.5020560000000 1.0
C      1  0.5413290000000  0.5231520000000  0.5259470000000 1.0
C      1  0.5461000000000  0.5188400000000  0.4729790000000 1.0
C      1  0.5576240000000  0.4676260000000  0.4940250000000 1.0
C      1  0.5125580000000  0.5329240000000  0.5262700000000 1.0
C      1  0.5072900000000  0.4671380000000  0.5076650000000 1.0
C      1  0.5191150000000  0.5110790000000  0.4705980000000 1.0
C      1  0.4785900000000  0.4616190000000  0.5176100000000 1.0
C      1  0.4870450000000  0.5322250000000  0.5014460000000 1.0
C      1  0.4627410000000  0.4975150000000  0.4552240000000 1.0
C      1  0.4900270000000  0.3263520000000  0.4408590000000 1.0
C      1  0.5057180000000  0.6301670000000  0.3711820000000 1.0
C      1  0.4663410000000  0.5157190000000  0.6813100000000 1.0
C      1  0.5443500000000  0.6637350000000  0.4256770000000 1.0
C      1  0.5334670000000  0.3589170000000  0.3885560000000 1.0
C      1  0.5222770000000  0.4672300000000  0.6718920000000 1.0
C      1  0.5236610000000  0.4821550000000  0.4008310000000 1.0
C      1  0.5399050000000  0.6050080000000  0.5367910000000 1.0
C      1  0.5421450000000  0.4201400000000  0.5614300000000 1.0
C      1  0.4619740000000  0.5159300000000  0.3959430000000 1.0
C      1  0.4568960000000  0.4010710000000  0.5354900000000 1.0
C      1  0.4554120000000  0.5809370000000  0.5770400000000 1.0
C      1  0.4272650000000  0.5666660000000  0.5257730000000 1.0
C      1  0.4275570000000  0.4517700000000  0.5541080000000 1.0
C      1  0.4157150000000  0.4836240000000  0.4292020000000 1.0
C      1  0.5761060000000  0.4292530000000  0.5143830000000 1.0
C      1  0.5717360000000  0.5538210000000  0.5502460000000 1.0
C      1  0.5633180000000  0.5210880000000  0.4287000000000 1.0
C      1  0.5873580000000  0.4763790000000  0.5310970000000 1.0
C      1  0.5860640000000  0.4872020000000  0.4564750000000 1.0
C      1  0.5846330000000  0.5459100000000  0.5038710000000 1.0
C      1  0.4162540000000  0.5220020000000  0.5360180000000 1.0
C      1  0.4044700000000  0.5191760000000  0.4659770000000 1.0
C      1  0.4098500000000  0.4585040000000  0.5078390000000 1.0
C      1  0.4204050000000  0.5436220000000  0.4696520000000 1.0
C      1  0.4291040000000  0.5080690000000  0.5569370000000 1.0
C      1  0.4204980000000  0.4454430000000  0.4843500000000 1.0
C      1  0.5738490000000  0.4604580000000  0.4523120000000 1.0
C      1  0.5680920000000  0.4901550000000  0.5472240000000 1.0
C      1  0.5707200000000  0.5587520000000  0.4823110000000 1.0
C      1  0.5453940000000  0.5453690000000  0.4846070000000 1.0
C      1  0.5446510000000  0.4954250000000  0.5310800000000 1.0
C      1  0.5495820000000  0.4643820000000  0.4670760000000 1.0
C      1  0.4459470000000  0.4592530000000  0.4808340000000 1.0
C      1  0.4548390000000  0.5027220000000  0.5450630000000 1.0
C      1  0.4473610000000  0.5359710000000  0.4749700000000 1.0
C      1  0.5653550000000  0.5022780000000  0.5729350000000 1.0
C      1  0.5743660000000  0.4311570000000  0.4520910000000 1.0
C      1  0.5674960000000  0.5738640000000  0.4582810000000 1.0
C      1  0.4307780000000  0.4985740000000  0.5836440000000 1.0
C      1  0.4224420000000  0.5726470000000  0.4711320000000 1.0
C      1  0.4192520000000  0.4294350000000  0.4606600000000 1.0
C      1  0.3563470000000  0.5230820000000  0.4726680000000 1.0
C      1  0.3687840000000  0.5265000000000  0.5440360000000 1.0
C      1  0.3614240000000  0.4581920000000  0.5086700000000 1.0
C      1  0.6340660000000  0.4831360000000  0.4609760000000 1.0
C      1  0.6347860000000  0.4860650000000  0.5353350000000 1.0
C      1  0.6326340000000  0.5468390000000  0.4984020000000 1.0
C      1  0.5251040000000  0.5088980000000  0.4036690000000 1.0
C      1  0.5451210000000  0.5917390000000  0.5596020000000 1.0
C      1  0.5451850000000  0.4046770000000  0.5396770000000 1.0
C      1  0.4510430000000  0.4915520000000  0.3971980000000 1.0
C      1  0.4552900000000  0.4149460000000  0.5589820000000 1.0
C      1  0.4496870000000  0.5955800000000  0.5551930000000 1.0
C      1  0.3894390000000  0.5166940000000  0.5290370000000 1.0
C      1  0.3848820000000  0.4722680000000  0.5074310000000 1.0
C      1  0.3808770000000  0.5147220000000  0.4812280000000 1.0
C      1  0.6112080000000  0.4887580000000  0.5217540000000 1.0
C      1  0.6093060000000  0.5325770000000  0.4998550000000 1.0
C      1  0.6100940000000  0.4913270000000  0.4715200000000 1.0
C      1  0.4430560000000  0.5885900000000  0.4807910000000 1.0
C      1  0.4523810000000  0.4835750000000  0.5919870000000 1.0
C      1  0.4369390000000  0.4313910000000  0.4396340000000 1.0
C      1  0.5564620000000  0.4141200000000  0.4653870000000 1.0
C      1  0.5493170000000  0.5209260000000  0.5849450000000 1.0
C      1  0.5457220000000  0.5713970000000  0.4415830000000 1.0
C      1  0.5397640000000  0.4510920000000  0.5984530000000 1.0
C      1  0.5352030000000  0.4346760000000  0.3947640000000 1.0
C      1  0.5415400000000  0.6258100000000  0.4924870000000 1.0
C      1  0.4525080000000  0.5510050000000  0.6152940000000 1.0
C      1  0.4749140000000  0.5625960000000  0.3916980000000 1.0
C      1  0.4642280000000  0.3721750000000  0.4966690000000 1.0
C      1  0.5146790000000  0.5849640000000  0.5000750000000 1.0
C      1  0.5195280000000  0.4633220000000  0.5556770000000 1.0
C      1  0.5100290000000  0.4491760000000  0.4343880000000 1.0
C      1  0.4805880000000  0.4181960000000  0.4943680000000 1.0
C      1  0.4808500000000  0.5389960000000  0.5773340000000 1.0
C      1  0.4766390000000  0.5403680000000  0.4353480000000 1.0
C      1  0.4815030000000  0.4572910000000  0.4343660000000 1.0
C      1  0.4873350000000  0.5872970000000  0.5100200000000 1.0
C      1  0.4961430000000  0.4783730000000  0.5636640000000 1.0
C      1  0.5010510000000  0.5472790000000  0.4487470000000 1.0
C      1  0.5102090000000  0.4204810000000  0.4898910000000 1.0
C      1  0.5083380000000  0.5482480000000  0.5725990000000 1.0
C      1  0.5348210000000  0.4583450000000  0.6502720000000 1.0
C      1  0.5404450000000  0.3839900000000  0.3833720000000 1.0
C      1  0.5487160000000  0.6571590000000  0.4510020000000 1.0
C      1  0.4540920000000  0.5313900000000  0.6637430000000 1.0
C      1  0.4921610000000  0.6073840000000  0.3703260000000 1.0
C      1  0.4767240000000  0.3347350000000  0.4622290000000 1.0
C      1  0.4537140000000  0.4509010000000  0.4266240000000 1.0
C      1  0.4595040000000  0.5929140000000  0.5043520000000 1.0
C      1  0.4696620000000  0.4656290000000  0.5763480000000 1.0
C      1  0.5261670000000  0.5514900000000  0.4340060000000 1.0
C      1  0.5387990000000  0.4102770000000  0.4890510000000 1.0
C      1  0.5358250000000  0.5460570000000  0.5806880000000 1.0
C      1  0.4985810000000  0.5055610000000  0.5494280000000 1.0
C      1  0.5126190000000  0.4492800000000  0.4851930000000 1.0
C      1  0.5007520000000  0.5329320000000  0.4755060000000 1.0
C      1  0.3843470000000  0.5008510000000  0.5059510000000 1.0
C      1  0.6098040000000  0.5040270000000  0.4974130000000 1.0
END
