TITL C-3201373-1215-1485 0.120203082363378 125000 -393.599142949066 0 0 67 (C1) n - 1
REM
REM in /home/nfs/bkarasulu/CARBON/AIRSS/Generating-Clusters/LCBOP/Higher-Symm/SD-CG/FIRE-CG
REM
REM
REM
REM
REM
REM ./C.cell (b20cbc046b6831c77cfcea5457e17084)
REM AIRSS Version 0.9.1 bugfix July 2018 build 013d7b7c2542+ Fri, 06 Jul 2018 19:26:36 +0100
REM compiler GCC version 9.2.1 20190827 (Red Hat 9.2.1-1)
REM options -cpp -mtune=generic -march=x86-64 -g -O0 -fpre-include=/usr/include/finclude/math-vector-fortran.h
REM seed 1662574243 -1514731516 -79583479 1529702584 637524739 824818172 -627602323 -826791375 -1732908919 926080039 293984420 978341531 1041866378 402616578 -1648961468 -456810095 -146498170 -2139895502 -120896778 -412238844 -2070003037 94895692 537386292 1894796869 2042866396 1175753080 -367196944 -1176064413 -642892092 227876079 -1980765156 1769992949 1297408615
REM
CELL 1.54180   50.00000   50.00000   50.00000   90.00000   90.00000   90.00000
LATT -1
SFAC C  
C      1  0.4985790000000  0.5868570000000  0.4110220000000 1.0
C      1  0.4804410000000  0.4487890000000  0.4233590000000 1.0
C      1  0.4566070000000  0.4758670000000  0.5007480000000 1.0
C      1  0.5795770000000  0.5109610000000  0.5208290000000 1.0
C      1  0.5812170000000  0.4795140000000  0.4786270000000 1.0
C      1  0.4252550000000  0.5092430000000  0.4709040000000 1.0
C      1  0.4378740000000  0.5026890000000  0.4467520000000 1.0
C      1  0.5750330000000  0.4873160000000  0.4539680000000 1.0
C      1  0.5293260000000  0.4360210000000  0.4655100000000 1.0
C      1  0.3642890000000  0.5532540000000  0.5343510000000 1.0
C      1  0.4990260000000  0.5880920000000  0.5877000000000 1.0
C      1  0.4750240000000  0.4036470000000  0.6132360000000 1.0
C      1  0.6063330000000  0.5161080000000  0.5202520000000 1.0
C      1  0.4478680000000  0.4526190000000  0.4891050000000 1.0
C      1  0.5055830000000  0.4464670000000  0.5296820000000 1.0
C      1  0.5500000000000  0.5513400000000  0.4757710000000 1.0
C      1  0.4568170000000  0.4867080000000  0.5640850000000 1.0
C      1  0.5304050000000  0.4984490000000  0.5614060000000 1.0
C      1  0.5260660000000  0.4419070000000  0.4382610000000 1.0
C      1  0.4876100000000  0.5764760000000  0.4566140000000 1.0
C      1  0.4393930000000  0.4759630000000  0.4378500000000 1.0
C      1  0.5060380000000  0.6207270000000  0.3715250000000 1.0
C      1  0.5595220000000  0.5700200000000  0.4602820000000 1.0
C      1  0.5119620000000  0.4281200000000  0.5470860000000 1.0
C      1  0.4389630000000  0.4907770000000  0.5427130000000 1.0
C      1  0.5492880000000  0.4834950000000  0.5459590000000 1.0
C      1  0.5023110000000  0.6039520000000  0.3911290000000 1.0
C      1  0.4554800000000  0.4564500000000  0.4291690000000 1.0
C      1  0.5239300000000  0.4601250000000  0.6078850000000 1.0
C      1  0.4825330000000  0.5256160000000  0.5230340000000 1.0
C      1  0.5008250000000  0.4587440000000  0.5050770000000 1.0
C      1  0.5431360000000  0.5330490000000  0.4956850000000 1.0
C      1  0.5525050000000  0.4282220000000  0.4793900000000 1.0
C      1  0.3825180000000  0.5389280000000  0.5224310000000 1.0
C      1  0.5031810000000  0.4669160000000  0.5914010000000 1.0
C      1  0.4850930000000  0.5256350000000  0.5510630000000 1.0
C      1  0.5088100000000  0.4451860000000  0.4821610000000 1.0
C      1  0.5196070000000  0.5173810000000  0.4938850000000 1.0
C      1  0.5660560000000  0.4401440000000  0.4994850000000 1.0
C      1  0.4010900000000  0.5243270000000  0.5104410000000 1.0
C      1  0.5119110000000  0.4842950000000  0.4160380000000 1.0
C      1  0.4996880000000  0.5409510000000  0.4263810000000 1.0
C      1  0.4889500000000  0.4989480000000  0.4072530000000 1.0
C      1  0.5253640000000  0.5288590000000  0.4271780000000 1.0
C      1  0.5732010000000  0.4671120000000  0.5028660000000 1.0
C      1  0.4210780000000  0.5087940000000  0.4987890000000 1.0
C      1  0.4378400000000  0.4921220000000  0.5146290000000 1.0
C      1  0.5685020000000  0.4846730000000  0.5248660000000 1.0
C      1  0.4951840000000  0.5682780000000  0.4316330000000 1.0
C      1  0.5074940000000  0.4571470000000  0.4235370000000 1.0
C      1  0.5023040000000  0.5651790000000  0.5757270000000 1.0
C      1  0.4762030000000  0.4279810000000  0.6039830000000 1.0
C      1  0.5577850000000  0.4931070000000  0.4346090000000 1.0
C      1  0.4541460000000  0.5210780000000  0.4329030000000 1.0
C      1  0.5597360000000  0.5311430000000  0.5188710000000 1.0
C      1  0.4845160000000  0.4817780000000  0.5022440000000 1.0
C      1  0.4294300000000  0.4608760000000  0.5947730000000 1.0
C      1  0.5501490000000  0.5402070000000  0.5436610000000 1.0
C      1  0.4815260000000  0.5003970000000  0.5636200000000 1.0
C      1  0.5059080000000  0.4876230000000  0.5722230000000 1.0
C      1  0.4539350000000  0.4668430000000  0.5842010000000 1.0
C      1  0.5311240000000  0.5276770000000  0.5600120000000 1.0
C      1  0.4777330000000  0.4538420000000  0.5934800000000 1.0
C      1  0.5059520000000  0.5409160000000  0.5628630000000 1.0
C      1  0.5331210000000  0.5015300000000  0.4249010000000 1.0
C      1  0.4789110000000  0.5224060000000  0.4198980000000 1.0
C      1  0.4948460000000  0.5084480000000  0.5040740000000 1.0
END
