TITL C-3201378-2706-956 -8.54737963349406e-09 125000 -349.751457592753 0 0 60 (C1) n - 1
REM
REM in /home/nfs/bkarasulu/CARBON/AIRSS/Generating-Clusters/LCBOP/Higher-Symm/SD-CG/FIRE-CG
REM
REM
REM
REM
REM
REM ./C.cell (b20cbc046b6831c77cfcea5457e17084)
REM AIRSS Version 0.9.1 bugfix July 2018 build 013d7b7c2542+ Fri, 06 Jul 2018 19:26:36 +0100
REM compiler GCC version 9.2.1 20190827 (Red Hat 9.2.1-1)
REM options -cpp -mtune=generic -march=x86-64 -g -O0 -fpre-include=/usr/include/finclude/math-vector-fortran.h
REM seed -756925504 330901639 -1842508949 1593042844 2042576533 -1950941559 339251391 -265768907 -520608153 -32270070 -522202295 -506153436 1360706228 -1618015589 785975357 1036458765 -849316147 373653201 900912971 463516334 921911610 647288781 1353671697 1540808145 -1576393068 1695561920 1818588922 -1822825497 -112929091 -1522980073 338723396 1495090985 210524864
REM
CELL 1.54180   50.00000   50.00000   50.00000   90.00000   90.00000   90.00000
LATT -1
SFAC C  
C      1  0.4478570000000  0.5139620000000  0.5042930000000 1.0
C      1  0.5364190000000  0.5380270000000  0.5036720000000 1.0
C      1  0.5155580000000  0.4425790000000  0.5087180000000 1.0
C      1  0.5228990000000  0.5028500000000  0.5325160000000 1.0
C      1  0.4931490000000  0.4790590000000  0.5334340000000 1.0
C      1  0.4888100000000  0.5145570000000  0.5289720000000 1.0
C      1  0.4494340000000  0.5160730000000  0.4395290000000 1.0
C      1  0.5184030000000  0.5296740000000  0.4411400000000 1.0
C      1  0.5243330000000  0.4627660000000  0.4442170000000 1.0
C      1  0.4506720000000  0.5381580000000  0.4582420000000 1.0
C      1  0.5438900000000  0.5227790000000  0.4548350000000 1.0
C      1  0.5037280000000  0.4469180000000  0.4583110000000 1.0
C      1  0.4443750000000  0.5191520000000  0.5353960000000 1.0
C      1  0.5479100000000  0.5395020000000  0.5358660000000 1.0
C      1  0.5104320000000  0.4378190000000  0.5403630000000 1.0
C      1  0.5546940000000  0.4965400000000  0.4632820000000 1.0
C      1  0.4785840000000  0.4607630000000  0.4628760000000 1.0
C      1  0.4763070000000  0.5506940000000  0.4635110000000 1.0
C      1  0.4854360000000  0.4536420000000  0.5469300000000 1.0
C      1  0.4699290000000  0.5315910000000  0.5447670000000 1.0
C      1  0.5479580000000  0.5111310000000  0.5453670000000 1.0
C      1  0.5037690000000  0.5085720000000  0.4267230000000 1.0
C      1  0.5172280000000  0.4828740000000  0.4247090000000 1.0
C      1  0.4756520000000  0.5048740000000  0.4341240000000 1.0
C      1  0.4285760000000  0.4821090000000  0.4725550000000 1.0
C      1  0.5176960000000  0.5696670000000  0.4727330000000 1.0
C      1  0.5560130000000  0.4522580000000  0.4818160000000 1.0
C      1  0.4696930000000  0.4602660000000  0.4920360000000 1.0
C      1  0.4816830000000  0.5496210000000  0.4940010000000 1.0
C      1  0.5593610000000  0.4985780000000  0.4922870000000 1.0
C      1  0.4357350000000  0.5321470000000  0.4828970000000 1.0
C      1  0.5512310000000  0.5412340000000  0.4767340000000 1.0
C      1  0.5109860000000  0.4300390000000  0.4810220000000 1.0
C      1  0.5354690000000  0.4454690000000  0.5540260000000 1.0
C      1  0.4340940000000  0.4946700000000  0.5469130000000 1.0
C      1  0.5316330000000  0.5598820000000  0.5475080000000 1.0
C      1  0.5381390000000  0.5736850000000  0.5700240000000 1.0
C      1  0.5413200000000  0.4394310000000  0.5799260000000 1.0
C      1  0.4200670000000  0.4932310000000  0.5701460000000 1.0
C      1  0.4784270000000  0.5592200000000  0.5391550000000 1.0
C      1  0.5652810000000  0.4873540000000  0.5379800000000 1.0
C      1  0.4584350000000  0.4484960000000  0.5361920000000 1.0
C      1  0.4451740000000  0.4817290000000  0.4991940000000 1.0
C      1  0.5117750000000  0.5581260000000  0.5010130000000 1.0
C      1  0.5456920000000  0.4502480000000  0.5086100000000 1.0
C      1  0.4897780000000  0.5035290000000  0.4791320000000 1.0
C      1  0.5113010000000  0.4899830000000  0.4905440000000 1.0
C      1  0.4789590000000  0.4888480000000  0.4576140000000 1.0
C      1  0.4659450000000  0.5669680000000  0.5136250000000 1.0
C      1  0.5781300000000  0.4934690000000  0.5127900000000 1.0
C      1  0.4605620000000  0.4363160000000  0.5093570000000 1.0
C      1  0.5483660000000  0.4685860000000  0.4591260000000 1.0
C      1  0.4303550000000  0.4958120000000  0.4487040000000 1.0
C      1  0.5038020000000  0.5530150000000  0.4521540000000 1.0
C      1  0.4783140000000  0.5202210000000  0.5005090000000 1.0
C      1  0.5315740000000  0.5063260000000  0.5034260000000 1.0
C      1  0.4977710000000  0.4682250000000  0.5057980000000 1.0
C      1  0.4407330000000  0.4723220000000  0.5302310000000 1.0
C      1  0.5075070000000  0.5641850000000  0.5324740000000 1.0
C      1  0.5529910000000  0.4601780000000  0.5359520000000 1.0
END
