TITL C-3201376-6384-518 -4.43963888998255e-08 125000 -859.206830118623 0 0 137 (Cs) n - 1
REM
REM in /home/nfs/bkarasulu/CARBON/AIRSS/Generating-Clusters/LCBOP/Higher-Symm/SD-CG/FIRE-CG
REM
REM
REM
REM
REM
REM ./C.cell (b20cbc046b6831c77cfcea5457e17084)
REM AIRSS Version 0.9.1 bugfix July 2018 build 013d7b7c2542+ Fri, 06 Jul 2018 19:26:36 +0100
REM compiler GCC version 9.2.1 20190827 (Red Hat 9.2.1-1)
REM options -cpp -mtune=generic -march=x86-64 -g -O0 -fpre-include=/usr/include/finclude/math-vector-fortran.h
REM seed 148187196 1545310617 646497014 -12573639 2037962635 -117528308 -1661317138 905560887 1223869300 -288066792 -1902248636 1348728343 -1370962262 1533970170 1047906954 -737908489 -2063750073 -1827960504 -256786724 -1249521134 -1500560222 860662922 1096967025 1228533943 1752973189 -162200425 -1823817268 -860284796 2087115487 1521101198 615202315 1455397143 1412617119
REM
CELL 1.54180   50.00000   50.00000   50.00000   90.00000   90.00000   90.00000
LATT -1
SFAC C  
C      1  0.5030710000000  0.5409880000000  0.4727900000000 1.0
C      1  0.5451460000000  0.4729610000000  0.5016390000000 1.0
C      1  0.4629020000000  0.5153020000000  0.5570540000000 1.0
C      1  0.5130430000000  0.4482990000000  0.5307590000000 1.0
C      1  0.4918520000000  0.5456120000000  0.5307040000000 1.0
C      1  0.4890650000000  0.4473950000000  0.4670410000000 1.0
C      1  0.5518950000000  0.5234480000000  0.4938920000000 1.0
C      1  0.4586630000000  0.4751510000000  0.4970560000000 1.0
C      1  0.4437720000000  0.5340130000000  0.5166520000000 1.0
C      1  0.4797650000000  0.4964190000000  0.4503980000000 1.0
C      1  0.5337710000000  0.5114100000000  0.4463350000000 1.0
C      1  0.5258530000000  0.5013980000000  0.5395510000000 1.0
C      1  0.5032540000000  0.4751540000000  0.5416510000000 1.0
C      1  0.5539810000000  0.5114120000000  0.4665470000000 1.0
C      1  0.4696050000000  0.5456110000000  0.5084550000000 1.0
C      1  0.5064250000000  0.5234460000000  0.4484170000000 1.0
C      1  0.4836540000000  0.5340150000000  0.5565370000000 1.0
C      1  0.4986800000000  0.4729590000000  0.4551680000000 1.0
C      1  0.5499130000000  0.4964230000000  0.5205530000000 1.0
C      1  0.4607650000000  0.5013950000000  0.4744560000000 1.0
C      1  0.4432540000000  0.5153010000000  0.5374040000000 1.0
C      1  0.4695580000000  0.4482960000000  0.4872700000000 1.0
C      1  0.5332740000000  0.4473970000000  0.5112540000000 1.0
C      1  0.5275210000000  0.5409900000000  0.4972420000000 1.0
C      1  0.4029680000000  0.5558380000000  0.5187480000000 1.0
C      1  0.5577390000000  0.5160850000000  0.4042310000000 1.0
C      1  0.5161130000000  0.4055630000000  0.5538290000000 1.0
C      1  0.4152460000000  0.4485110000000  0.4852140000000 1.0
C      1  0.5930500000000  0.5522530000000  0.4820830000000 1.0
C      1  0.5880090000000  0.4463060000000  0.5142890000000 1.0
C      1  0.5504920000000  0.4837910000000  0.5834510000000 1.0
C      1  0.4417120000000  0.5171490000000  0.5979390000000 1.0
C      1  0.4489280000000  0.4820330000000  0.4095630000000 1.0
C      1  0.5168060000000  0.5848400000000  0.4475910000000 1.0
C      1  0.4848250000000  0.4046210000000  0.4453140000000 1.0
C      1  0.4824090000000  0.5887460000000  0.5546110000000 1.0
C      1  0.4023670000000  0.5171470000000  0.5585910000000 1.0
C      1  0.5550030000000  0.4046250000000  0.5154980000000 1.0
C      1  0.5182360000000  0.5522490000000  0.4072610000000 1.0
C      1  0.4168670000000  0.4837840000000  0.4498140000000 1.0
C      1  0.5907460000000  0.4820400000000  0.5513950000000 1.0
C      1  0.5960860000000  0.5160870000000  0.4425820000000 1.0
C      1  0.5527190000000  0.5848420000000  0.4835070000000 1.0
C      1  0.4456950000000  0.5887440000000  0.5178940000000 1.0
C      1  0.4464910000000  0.4055590000000  0.4842000000000 1.0
C      1  0.5150940000000  0.4485160000000  0.5850710000000 1.0
C      1  0.4860350000000  0.4463000000000  0.4123050000000 1.0
C      1  0.4815520000000  0.5558420000000  0.5973400000000 1.0
C      1  0.5325050000000  0.4497790000000  0.4294180000000 1.0
C      1  0.4502030000000  0.4305110000000  0.5297380000000 1.0
C      1  0.4311100000000  0.5308620000000  0.4504180000000 1.0
C      1  0.5293450000000  0.5515990000000  0.5721350000000 1.0
C      1  0.4691440000000  0.4521240000000  0.5687620000000 1.0
C      1  0.4708170000000  0.5498730000000  0.4284530000000 1.0
C      1  0.4494780000000  0.5703240000000  0.4706880000000 1.0
C      1  0.5516270000000  0.4286980000000  0.4691320000000 1.0
C      1  0.5502360000000  0.5684750000000  0.5303660000000 1.0
C      1  0.4275160000000  0.4712930000000  0.5525910000000 1.0
C      1  0.5711470000000  0.5292140000000  0.5499830000000 1.0
C      1  0.5730680000000  0.4702040000000  0.4473560000000 1.0
C      1  0.5311890000000  0.4286970000000  0.4486930000000 1.0
C      1  0.4503350000000  0.5292070000000  0.4291590000000 1.0
C      1  0.4315510000000  0.4521220000000  0.5311650000000 1.0
C      1  0.5296160000000  0.5703290000000  0.5508340000000 1.0
C      1  0.4699480000000  0.5684700000000  0.4500700000000 1.0
C      1  0.4705740000000  0.4305120000000  0.5501110000000 1.0
C      1  0.4477160000000  0.4712940000000  0.5727930000000 1.0
C      1  0.5529660000000  0.4702020000000  0.4272520000000 1.0
C      1  0.5498860000000  0.5308690000000  0.5692060000000 1.0
C      1  0.4281780000000  0.5515930000000  0.4709580000000 1.0
C      1  0.5718540000000  0.5498790000000  0.5295000000000 1.0
C      1  0.5709000000000  0.4497810000000  0.4678170000000 1.0
C      1  0.5842150000000  0.5607280000000  0.4564940000000 1.0
C      1  0.5605170000000  0.4579150000000  0.5786040000000 1.0
C      1  0.4564400000000  0.5812630000000  0.5641330000000 1.0
C      1  0.5813740000000  0.4365220000000  0.5400480000000 1.0
C      1  0.4137680000000  0.5630410000000  0.5449120000000 1.0
C      1  0.4210430000000  0.4378080000000  0.4596370000000 1.0
C      1  0.5653220000000  0.5417200000000  0.4145550000000 1.0
C      1  0.4402940000000  0.4567050000000  0.4186090000000 1.0
C      1  0.4339500000000  0.5431310000000  0.5872420000000 1.0
C      1  0.4590910000000  0.4148060000000  0.4377620000000 1.0
C      1  0.5426420000000  0.5790880000000  0.4377270000000 1.0
C      1  0.5419010000000  0.4153630000000  0.5614730000000 1.0
C      1  0.5817000000000  0.4567130000000  0.5600290000000 1.0
C      1  0.5625860000000  0.5790890000000  0.4576720000000 1.0
C      1  0.4553890000000  0.5630430000000  0.5865370000000 1.0
C      1  0.5857620000000  0.5417220000000  0.4349960000000 1.0
C      1  0.4130620000000  0.5431300000000  0.5663520000000 1.0
C      1  0.4217170000000  0.4579080000000  0.4397900000000 1.0
C      1  0.5625520000000  0.4148110000000  0.5412320000000 1.0
C      1  0.4388480000000  0.4153580000000  0.4584110000000 1.0
C      1  0.4361710000000  0.5812620000000  0.5438620000000 1.0
C      1  0.4602760000000  0.4365150000000  0.4189380000000 1.0
C      1  0.5406720000000  0.4378140000000  0.5792770000000 1.0
C      1  0.5438230000000  0.5607250000000  0.4160990000000 1.0
C      1  0.5393990000000  0.4211350000000  0.4962360000000 1.0
C      1  0.4183220000000  0.4984000000000  0.5413000000000 1.0
C      1  0.4974980000000  0.5363750000000  0.4208880000000 1.0
C      1  0.5360640000000  0.5711900000000  0.5035680000000 1.0
C      1  0.4623840000000  0.4224840000000  0.5027930000000 1.0
C      1  0.4625810000000  0.5745240000000  0.4979610000000 1.0
C      1  0.4293370000000  0.5049140000000  0.4661400000000 1.0
C      1  0.5809200000000  0.4971730000000  0.4597770000000 1.0
C      1  0.5778110000000  0.5026930000000  0.5349690000000 1.0
C      1  0.4955800000000  0.4667720000000  0.5718570000000 1.0
C      1  0.5014230000000  0.5400570000000  0.5810390000000 1.0
C      1  0.5061230000000  0.4641260000000  0.4250540000000 1.0
C      1  0.5405440000000  0.4971710000000  0.4193970000000 1.0
C      1  0.4192710000000  0.5400520000000  0.4988800000000 1.0
C      1  0.4975210000000  0.4224860000000  0.5379330000000 1.0
C      1  0.5341660000000  0.5049200000000  0.5709790000000 1.0
C      1  0.4653510000000  0.5026870000000  0.4224980000000 1.0
C      1  0.4590050000000  0.4984020000000  0.5819870000000 1.0
C      1  0.4284570000000  0.4667680000000  0.5047280000000 1.0
C      1  0.5752610000000  0.4641290000000  0.4942000000000 1.0
C      1  0.5794220000000  0.5363790000000  0.5028210000000 1.0
C      1  0.4967440000000  0.5711880000000  0.4642450000000 1.0
C      1  0.5023440000000  0.5745260000000  0.5377280000000 1.0
C      1  0.5040850000000  0.4211330000000  0.4609180000000 1.0
C      1  0.4886160000000  0.4915520000000  0.5879250000000 1.0
C      1  0.4899800000000  0.5850170000000  0.4904710000000 1.0
C      1  0.5109690000000  0.4110530000000  0.4893500000000 1.0
C      1  0.4909840000000  0.5097860000000  0.4067840000000 1.0
C      1  0.5120480000000  0.4899760000000  0.4091480000000 1.0
C      1  0.5911660000000  0.4899810000000  0.4882740000000 1.0
C      1  0.5935280000000  0.5097920000000  0.5093370000000 1.0
C      1  0.4123870000000  0.4915480000000  0.5116880000000 1.0
C      1  0.4126650000000  0.5113570000000  0.4911600000000 1.0
C      1  0.5091430000000  0.5113630000000  0.5876480000000 1.0
C      1  0.4905200000000  0.4116630000000  0.5097970000000 1.0
C      1  0.5098360000000  0.5850180000000  0.5103290000000 1.0
C      1  0.4816200000000  0.4835590000000  0.5186920000000 1.0
C      1  0.4794560000000  0.5241040000000  0.4881280000000 1.0
C      1  0.5169550000000  0.4847290000000  0.4833600000000 1.0
C      1  0.5121810000000  0.5241060000000  0.5208570000000 1.0
C      1  0.4979380000000  0.5042400000000  0.5023740000000 1.0
END
