TITL C-3201376-6384-632 -1.20715478140095e-06 125000 -1204.71873140109 0 0 196 (C1) n - 1
REM
REM in /home/nfs/bkarasulu/CARBON/AIRSS/Generating-Clusters/LCBOP/Higher-Symm/SD-CG/FIRE-CG
REM
REM
REM
REM
REM
REM ./C.cell (b20cbc046b6831c77cfcea5457e17084)
REM AIRSS Version 0.9.1 bugfix July 2018 build 013d7b7c2542+ Fri, 06 Jul 2018 19:26:36 +0100
REM compiler GCC version 9.2.1 20190827 (Red Hat 9.2.1-1)
REM options -cpp -mtune=generic -march=x86-64 -g -O0 -fpre-include=/usr/include/finclude/math-vector-fortran.h
REM seed 325484982 -1847974128 -1518800946 -1001775233 -1280689210 1993348938 -1834971628 2071197271 1533074922 1616710456 601564884 1902346759 1058656721 1167372701 -1230963494 -1290266933 1697689264 -1226302738 -1295840485 -2126674408 1369897205 260320053 1444113383 -1515531216 386967193 1588018732 -1291182307 -1856551563 1632582002 867914571 1166016143 404562527 -732379377
REM
CELL 1.54180   50.00000   50.00000   50.00000   90.00000   90.00000   90.00000
LATT -1
SFAC C  
C      1  0.5372100000000  0.4277340000000  0.5741670000000 1.0
C      1  0.4666190000000  0.4256160000000  0.4465010000000 1.0
C      1  0.4667810000000  0.5710280000000  0.5518600000000 1.0
C      1  0.5395660000000  0.5792170000000  0.4477850000000 1.0
C      1  0.5685370000000  0.4919110000000  0.3843580000000 1.0
C      1  0.4218050000000  0.4868930000000  0.6172280000000 1.0
C      1  0.4256700000000  0.5148120000000  0.3851220000000 1.0
C      1  0.5834490000000  0.5189780000000  0.6102080000000 1.0
C      1  0.5421490000000  0.6385790000000  0.5179840000000 1.0
C      1  0.5061610000000  0.6065900000000  0.4807210000000 1.0
C      1  0.4976640000000  0.3781970000000  0.5137490000000 1.0
C      1  0.5582670000000  0.3584340000000  0.4591480000000 1.0
C      1  0.5786900000000  0.4585830000000  0.6169190000000 1.0
C      1  0.4215290000000  0.4526420000000  0.3878680000000 1.0
C      1  0.4182650000000  0.5496840000000  0.6088120000000 1.0
C      1  0.5714250000000  0.5630620000000  0.3816390000000 1.0
C      1  0.4638290000000  0.4859320000000  0.4323690000000 1.0
C      1  0.5305610000000  0.4851860000000  0.5787570000000 1.0
C      1  0.5339260000000  0.5252940000000  0.4306100000000 1.0
C      1  0.4594370000000  0.5142240000000  0.5700030000000 1.0
C      1  0.4793340000000  0.4499400000000  0.5486550000000 1.0
C      1  0.5225550000000  0.4455010000000  0.4566940000000 1.0
C      1  0.5253900000000  0.5498180000000  0.5454650000000 1.0
C      1  0.4804360000000  0.5451230000000  0.4575320000000 1.0
C      1  0.4460770000000  0.5469770000000  0.4979690000000 1.0
C      1  0.5507660000000  0.5461920000000  0.5019530000000 1.0
C      1  0.5436100000000  0.4420140000000  0.5016890000000 1.0
C      1  0.4459630000000  0.4481790000000  0.5047430000000 1.0
C      1  0.6007710000000  0.5587540000000  0.4687850000000 1.0
C      1  0.4013200000000  0.5644840000000  0.5249100000000 1.0
C      1  0.4010690000000  0.4343170000000  0.4715320000000 1.0
C      1  0.5919560000000  0.4314400000000  0.5297730000000 1.0
C      1  0.4303180000000  0.4342640000000  0.5668560000000 1.0
C      1  0.5717940000000  0.4433510000000  0.4309780000000 1.0
C      1  0.5717210000000  0.5663390000000  0.5695720000000 1.0
C      1  0.4316910000000  0.5652170000000  0.4350120000000 1.0
C      1  0.6129630000000  0.5029580000000  0.4502060000000 1.0
C      1  0.3943080000000  0.4968810000000  0.5328900000000 1.0
C      1  0.3826220000000  0.5085840000000  0.4645510000000 1.0
C      1  0.6060870000000  0.5066050000000  0.5287990000000 1.0
C      1  0.4610110000000  0.5391070000000  0.5522570000000 1.0
C      1  0.5385710000000  0.5481230000000  0.4488030000000 1.0
C      1  0.5352240000000  0.4563640000000  0.5790550000000 1.0
C      1  0.4633920000000  0.4581550000000  0.4480740000000 1.0
C      1  0.4535770000000  0.5332790000000  0.5230490000000 1.0
C      1  0.5340050000000  0.5351450000000  0.4764120000000 1.0
C      1  0.5317190000000  0.4568220000000  0.5250110000000 1.0
C      1  0.4544760000000  0.4622370000000  0.4800010000000 1.0
C      1  0.4886970000000  0.4952420000000  0.4205470000000 1.0
C      1  0.5048520000000  0.4938630000000  0.5717160000000 1.0
C      1  0.5086690000000  0.5119440000000  0.4308750000000 1.0
C      1  0.4838470000000  0.5077540000000  0.5830830000000 1.0
C      1  0.5415480000000  0.6115930000000  0.5228030000000 1.0
C      1  0.4793460000000  0.5989690000000  0.4795190000000 1.0
C      1  0.4754360000000  0.3943920000000  0.5188670000000 1.0
C      1  0.5471630000000  0.3832170000000  0.4625220000000 1.0
C      1  0.4632460000000  0.5090330000000  0.4811770000000 1.0
C      1  0.5312320000000  0.5080710000000  0.5261110000000 1.0
C      1  0.5290630000000  0.4825670000000  0.4813500000000 1.0
C      1  0.4632030000000  0.4850950000000  0.5234940000000 1.0
C      1  0.5414160000000  0.3996340000000  0.4399490000000 1.0
C      1  0.4686290000000  0.4002630000000  0.5464130000000 1.0
C      1  0.4697630000000  0.5980610000000  0.4522640000000 1.0
C      1  0.5378100000000  0.6022830000000  0.5495780000000 1.0
C      1  0.3988430000000  0.5246790000000  0.4469230000000 1.0
C      1  0.5919640000000  0.5220560000000  0.5483820000000 1.0
C      1  0.5905410000000  0.4858230000000  0.4541690000000 1.0
C      1  0.3981150000000  0.4750600000000  0.5524300000000 1.0
C      1  0.4435210000000  0.5065490000000  0.5259310000000 1.0
C      1  0.5447790000000  0.5050780000000  0.4746750000000 1.0
C      1  0.5455950000000  0.4817640000000  0.5327300000000 1.0
C      1  0.4436770000000  0.4883100000000  0.4770530000000 1.0
C      1  0.5820170000000  0.5165570000000  0.3826020000000 1.0
C      1  0.4037140000000  0.5032200000000  0.5991480000000 1.0
C      1  0.4070090000000  0.4977750000000  0.4015670000000 1.0
C      1  0.5931800000000  0.4983060000000  0.5917000000000 1.0
C      1  0.5618130000000  0.4161440000000  0.5649170000000 1.0
C      1  0.4371100000000  0.4166510000000  0.4434650000000 1.0
C      1  0.4373600000000  0.5809210000000  0.5538600000000 1.0
C      1  0.5699300000000  0.5844830000000  0.4432950000000 1.0
C      1  0.4476850000000  0.4492250000000  0.5854670000000 1.0
C      1  0.5513790000000  0.4599140000000  0.4197720000000 1.0
C      1  0.5527800000000  0.5522790000000  0.5857580000000 1.0
C      1  0.4504790000000  0.5499450000000  0.4189680000000 1.0
C      1  0.4821950000000  0.5706080000000  0.5238420000000 1.0
C      1  0.5309580000000  0.5947340000000  0.4778710000000 1.0
C      1  0.5219350000000  0.3793900000000  0.5031310000000 1.0
C      1  0.4797420000000  0.4228020000000  0.4751870000000 1.0
C      1  0.5458950000000  0.5931380000000  0.5015150000000 1.0
C      1  0.4686400000000  0.5850270000000  0.5018520000000 1.0
C      1  0.4654360000000  0.4092560000000  0.4968050000000 1.0
C      1  0.5414280000000  0.3931750000000  0.4884860000000 1.0
C      1  0.5636390000000  0.3967090000000  0.5437280000000 1.0
C      1  0.4272860000000  0.3964780000000  0.4624070000000 1.0
C      1  0.4284600000000  0.6015040000000  0.5349350000000 1.0
C      1  0.5816060000000  0.5996600000000  0.4658600000000 1.0
C      1  0.5896300000000  0.5613810000000  0.4410420000000 1.0
C      1  0.4153010000000  0.5607240000000  0.5511190000000 1.0
C      1  0.4153070000000  0.4368170000000  0.4452300000000 1.0
C      1  0.5837990000000  0.4338850000000  0.5579510000000 1.0
C      1  0.5114190000000  0.6005060000000  0.5612060000000 1.0
C      1  0.4915750000000  0.5990180000000  0.4332530000000 1.0
C      1  0.4910280000000  0.4008200000000  0.5641710000000 1.0
C      1  0.5139740000000  0.4014660000000  0.4309060000000 1.0
C      1  0.4880180000000  0.4103680000000  0.4304810000000 1.0
C      1  0.5141610000000  0.4111760000000  0.5730860000000 1.0
C      1  0.5176900000000  0.5913550000000  0.4306020000000 1.0
C      1  0.4866520000000  0.5896480000000  0.5661630000000 1.0
C      1  0.5263430000000  0.5533970000000  0.5743320000000 1.0
C      1  0.4775220000000  0.5507210000000  0.4290970000000 1.0
C      1  0.4755420000000  0.4481900000000  0.5777800000000 1.0
C      1  0.5253030000000  0.4513870000000  0.4281770000000 1.0
C      1  0.5757580000000  0.5039810000000  0.5659190000000 1.0
C      1  0.4122830000000  0.5091850000000  0.4277550000000 1.0
C      1  0.4093030000000  0.4898080000000  0.5742080000000 1.0
C      1  0.5653930000000  0.4999210000000  0.4549370000000 1.0
C      1  0.4667690000000  0.5565710000000  0.6236190000000 1.0
C      1  0.5233220000000  0.5549610000000  0.3685400000000 1.0
C      1  0.5291430000000  0.4587090000000  0.6326030000000 1.0
C      1  0.4706070000000  0.4500540000000  0.3741290000000 1.0
C      1  0.5901670000000  0.4694860000000  0.5936290000000 1.0
C      1  0.4109100000000  0.4695400000000  0.4075750000000 1.0
C      1  0.4082400000000  0.5308420000000  0.5905410000000 1.0
C      1  0.5852830000000  0.5422120000000  0.3941510000000 1.0
C      1  0.5826120000000  0.4595290000000  0.5676290000000 1.0
C      1  0.4152470000000  0.4636350000000  0.4362070000000 1.0
C      1  0.4135720000000  0.5340780000000  0.5611780000000 1.0
C      1  0.5967640000000  0.5432040000000  0.4201940000000 1.0
C      1  0.3843250000000  0.4567340000000  0.4780880000000 1.0
C      1  0.6045000000000  0.4544020000000  0.5185940000000 1.0
C      1  0.6196830000000  0.5407290000000  0.4786310000000 1.0
C      1  0.3830430000000  0.5437670000000  0.5174110000000 1.0
C      1  0.4391840000000  0.4210580000000  0.5008770000000 1.0
C      1  0.5543120000000  0.4154960000000  0.5008690000000 1.0
C      1  0.5642450000000  0.5714870000000  0.5008270000000 1.0
C      1  0.4415840000000  0.5748560000000  0.4987060000000 1.0
C      1  0.5874080000000  0.5781400000000  0.4855490000000 1.0
C      1  0.4187870000000  0.5851480000000  0.5122690000000 1.0
C      1  0.4171330000000  0.4129780000000  0.4848380000000 1.0
C      1  0.5743610000000  0.4099000000000  0.5200050000000 1.0
C      1  0.5042540000000  0.4667000000000  0.6219130000000 1.0
C      1  0.4919970000000  0.4621170000000  0.3874850000000 1.0
C      1  0.4889620000000  0.5431950000000  0.6129790000000 1.0
C      1  0.5046650000000  0.5400100000000  0.3830440000000 1.0
C      1  0.5960500000000  0.5277160000000  0.6326040000000 1.0
C      1  0.4245380000000  0.5191990000000  0.3584010000000 1.0
C      1  0.4201920000000  0.4843060000000  0.6441160000000 1.0
C      1  0.5662550000000  0.4751810000000  0.3629370000000 1.0
C      1  0.3774360000000  0.5169330000000  0.5208770000000 1.0
C      1  0.6253850000000  0.5151740000000  0.4723200000000 1.0
C      1  0.6092740000000  0.4811640000000  0.5195260000000 1.0
C      1  0.3780810000000  0.4831660000000  0.4740310000000 1.0
C      1  0.4420110000000  0.5062820000000  0.4271110000000 1.0
C      1  0.5493850000000  0.5067390000000  0.5815820000000 1.0
C      1  0.5551590000000  0.5065210000000  0.4288980000000 1.0
C      1  0.4390610000000  0.4927100000000  0.5752000000000 1.0
C      1  0.5614260000000  0.5913970000000  0.5613500000000 1.0
C      1  0.4436780000000  0.5891110000000  0.4451610000000 1.0
C      1  0.4434470000000  0.4111040000000  0.5553820000000 1.0
C      1  0.5633720000000  0.4163120000000  0.4322020000000 1.0
C      1  0.4981190000000  0.5129490000000  0.3772060000000 1.0
C      1  0.4876740000000  0.5149490000000  0.6103860000000 1.0
C      1  0.4918260000000  0.4900260000000  0.3923880000000 1.0
C      1  0.4946780000000  0.4931520000000  0.6268430000000 1.0
C      1  0.5899060000000  0.5496870000000  0.5550540000000 1.0
C      1  0.4085990000000  0.5517660000000  0.4461830000000 1.0
C      1  0.4078120000000  0.4479500000000  0.5541730000000 1.0
C      1  0.5902590000000  0.4582640000000  0.4466110000000 1.0
C      1  0.4925680000000  0.4519770000000  0.6003260000000 1.0
C      1  0.5073620000000  0.4481730000000  0.4066430000000 1.0
C      1  0.5061000000000  0.5551710000000  0.5939340000000 1.0
C      1  0.4959390000000  0.5508470000000  0.4077470000000 1.0
C      1  0.4560090000000  0.5361910000000  0.4733100000000 1.0
C      1  0.5449130000000  0.5343950000000  0.5279770000000 1.0
C      1  0.5417490000000  0.4563210000000  0.4766390000000 1.0
C      1  0.4550680000000  0.4579270000000  0.5307200000000 1.0
C      1  0.4402390000000  0.5585950000000  0.6211000000000 1.0
C      1  0.5475640000000  0.5660370000000  0.3699450000000 1.0
C      1  0.5557280000000  0.4559820000000  0.6305650000000 1.0
C      1  0.4441980000000  0.4462620000000  0.3752760000000 1.0
C      1  0.4985720000000  0.4455230000000  0.4741250000000 1.0
C      1  0.5030690000000  0.4579320000000  0.5320210000000 1.0
C      1  0.5028020000000  0.5347580000000  0.4747480000000 1.0
C      1  0.5013960000000  0.5480640000000  0.5283850000000 1.0
C      1  0.5571420000000  0.4857960000000  0.4095720000000 1.0
C      1  0.4422510000000  0.4743750000000  0.5987850000000 1.0
C      1  0.4457690000000  0.5256360000000  0.4043960000000 1.0
C      1  0.5578110000000  0.5281990000000  0.5998770000000 1.0
C      1  0.4902910000000  0.4774310000000  0.5132590000000 1.0
C      1  0.5013890000000  0.4729090000000  0.4873550000000 1.0
C      1  0.5032090000000  0.5191080000000  0.5183980000000 1.0
C      1  0.4904560000000  0.5154690000000  0.4928330000000 1.0
C      1  0.6118540000000  0.5201410000000  0.4275810000000 1.0
C      1  0.4182210000000  0.5129450000000  0.5389400000000 1.0
C      1  0.4218620000000  0.4817370000000  0.4590030000000 1.0
C      1  0.5688750000000  0.4790810000000  0.5507720000000 1.0
END
