TITL C-3201373-1215-156 138.939708089528 125000 -938.170366588768 0 0 151 (C1) n - 1
REM
REM in /home/nfs/bkarasulu/CARBON/AIRSS/Generating-Clusters/LCBOP/Higher-Symm/SD-CG/FIRE-CG
REM
REM
REM
REM
REM
REM ./C.cell (b20cbc046b6831c77cfcea5457e17084)
REM AIRSS Version 0.9.1 bugfix July 2018 build 013d7b7c2542+ Fri, 06 Jul 2018 19:26:36 +0100
REM compiler GCC version 9.2.1 20190827 (Red Hat 9.2.1-1)
REM options -cpp -mtune=generic -march=x86-64 -g -O0 -fpre-include=/usr/include/finclude/math-vector-fortran.h
REM seed -1281878067 1109586862 1089684057 1082194772 -91237904 1554889326 2040498496 -1335012203 978918772 -1460365639 1578238417 -896209375 -1431257496 -1610285898 1197142503 -623446767 -1761329192 403078172 614391887 1070422786 -436889262 47988895 422191354 90172470 -1464928983 1144959176 -408805085 -1469371125 798012685 -1980498397 -1326015820 -225057800 -574408162
REM
CELL 1.54180   50.00000   50.00000   50.00000   90.00000   90.00000   90.00000
LATT -1
SFAC C  
C      1  0.5062610000000  0.5598830000000  0.5138950000000 1.0
C      1  0.4949300000000  0.4430980000000  0.5143300000000 1.0
C      1  0.5062340000000  0.5599620000000  0.4857560000000 1.0
C      1  0.4943280000000  0.4432460000000  0.4861330000000 1.0
C      1  0.5599970000000  0.4803720000000  0.4143640000000 1.0
C      1  0.4390050000000  0.5184120000000  0.4168430000000 1.0
C      1  0.5608100000000  0.4809980000000  0.5856100000000 1.0
C      1  0.4389350000000  0.5180240000000  0.5825290000000 1.0
C      1  0.5370950000000  0.3983710000000  0.5296610000000 1.0
C      1  0.4644120000000  0.6011740000000  0.5290030000000 1.0
C      1  0.5360070000000  0.3986740000000  0.4716000000000 1.0
C      1  0.4644460000000  0.6013280000000  0.4706500000000 1.0
C      1  0.5680560000000  0.5580800000000  0.4526050000000 1.0
C      1  0.4310880000000  0.4427090000000  0.4518710000000 1.0
C      1  0.5682010000000  0.5581980000000  0.5470310000000 1.0
C      1  0.4316130000000  0.4414580000000  0.5459630000000 1.0
C      1  0.5536020000000  0.4533300000000  0.5824340000000 1.0
C      1  0.4454170000000  0.5458950000000  0.5804960000000 1.0
C      1  0.5526270000000  0.4527530000000  0.4178180000000 1.0
C      1  0.4455130000000  0.5462660000000  0.4189370000000 1.0
C      1  0.5030840000000  0.4743680000000  0.4013320000000 1.0
C      1  0.4948010000000  0.5282600000000  0.4017950000000 1.0
C      1  0.5031930000000  0.4746170000000  0.5984040000000 1.0
C      1  0.4948480000000  0.5284610000000  0.5978100000000 1.0
C      1  0.4594020000000  0.4094450000000  0.4834380000000 1.0
C      1  0.5415040000000  0.5924390000000  0.4730000000000 1.0
C      1  0.4628320000000  0.4075040000000  0.5187370000000 1.0
C      1  0.5415050000000  0.5923910000000  0.5265870000000 1.0
C      1  0.4130490000000  0.4316730000000  0.4721810000000 1.0
C      1  0.5856290000000  0.5695390000000  0.4733120000000 1.0
C      1  0.4127040000000  0.4313040000000  0.5259990000000 1.0
C      1  0.5857050000000  0.5696190000000  0.5262390000000 1.0
C      1  0.5004400000000  0.4197810000000  0.5548110000000 1.0
C      1  0.4999290000000  0.5799120000000  0.5561670000000 1.0
C      1  0.4987560000000  0.4196390000000  0.4462360000000 1.0
C      1  0.4999500000000  0.5799700000000  0.4434600000000 1.0
C      1  0.5559640000000  0.5357550000000  0.5303320000000 1.0
C      1  0.4438260000000  0.4641650000000  0.5296730000000 1.0
C      1  0.5558200000000  0.5357060000000  0.4694070000000 1.0
C      1  0.4435470000000  0.4647980000000  0.4687640000000 1.0
C      1  0.5382130000000  0.4426610000000  0.3956460000000 1.0
C      1  0.4575300000000  0.5566300000000  0.3954990000000 1.0
C      1  0.5389690000000  0.4435200000000  0.6045940000000 1.0
C      1  0.4572050000000  0.5563240000000  0.6040190000000 1.0
C      1  0.4263090000000  0.5574500000000  0.4627010000000 1.0
C      1  0.5742130000000  0.4428180000000  0.4614880000000 1.0
C      1  0.4264280000000  0.5570890000000  0.5366600000000 1.0
C      1  0.5749880000000  0.4429710000000  0.5385740000000 1.0
C      1  0.5562810000000  0.5067060000000  0.5929220000000 1.0
C      1  0.4428340000000  0.4923540000000  0.5901210000000 1.0
C      1  0.5558100000000  0.5061260000000  0.4069700000000 1.0
C      1  0.4430970000000  0.4928120000000  0.4091280000000 1.0
C      1  0.4257170000000  0.5081050000000  0.5282600000000 1.0
C      1  0.5758790000000  0.4929060000000  0.5334240000000 1.0
C      1  0.4256540000000  0.5085470000000  0.4711320000000 1.0
C      1  0.5755550000000  0.4927760000000  0.4663610000000 1.0
C      1  0.4215140000000  0.5791370000000  0.4796180000000 1.0
C      1  0.5787230000000  0.4220080000000  0.4798560000000 1.0
C      1  0.4216050000000  0.5788260000000  0.5197920000000 1.0
C      1  0.5792390000000  0.4221070000000  0.5201560000000 1.0
C      1  0.4122540000000  0.5328930000000  0.5298090000000 1.0
C      1  0.5889590000000  0.4677210000000  0.5320470000000 1.0
C      1  0.4121450000000  0.5332800000000  0.4695710000000 1.0
C      1  0.5884800000000  0.4675100000000  0.4676690000000 1.0
C      1  0.5604700000000  0.4020260000000  0.4855640000000 1.0
C      1  0.4401290000000  0.5988920000000  0.4850700000000 1.0
C      1  0.5610130000000  0.4019610000000  0.5149430000000 1.0
C      1  0.4401370000000  0.5987210000000  0.5145400000000 1.0
C      1  0.4705100000000  0.5815010000000  0.4495070000000 1.0
C      1  0.5287960000000  0.4182520000000  0.4507040000000 1.0
C      1  0.4704940000000  0.5812980000000  0.5500850000000 1.0
C      1  0.5302320000000  0.4181730000000  0.5504020000000 1.0
C      1  0.5528130000000  0.4380860000000  0.5577500000000 1.0
C      1  0.4480760000000  0.5611230000000  0.5561040000000 1.0
C      1  0.5516390000000  0.4378870000000  0.4427290000000 1.0
C      1  0.4480470000000  0.5614500000000  0.4433570000000 1.0
C      1  0.5173050000000  0.3836720000000  0.4871970000000 1.0
C      1  0.4839040000000  0.6155290000000  0.4861630000000 1.0
C      1  0.5179650000000  0.3833440000000  0.5145830000000 1.0
C      1  0.4838720000000  0.6154720000000  0.5135810000000 1.0
C      1  0.4537040000000  0.4681730000000  0.4055440000000 1.0
C      1  0.5456100000000  0.5310530000000  0.4039180000000 1.0
C      1  0.4533910000000  0.4677140000000  0.5938350000000 1.0
C      1  0.5457690000000  0.5314920000000  0.5959470000000 1.0
C      1  0.4009850000000  0.4567570000000  0.5138100000000 1.0
C      1  0.5983930000000  0.5441740000000  0.5142290000000 1.0
C      1  0.4010130000000  0.4569560000000  0.4849130000000 1.0
C      1  0.5983300000000  0.5441090000000  0.4853280000000 1.0
C      1  0.5162750000000  0.5798620000000  0.4678650000000 1.0
C      1  0.4826830000000  0.4211650000000  0.4712540000000 1.0
C      1  0.5162900000000  0.5797870000000  0.5317870000000 1.0
C      1  0.4849700000000  0.4209000000000  0.5297240000000 1.0
C      1  0.4948500000000  0.5368390000000  0.4726810000000 1.0
C      1  0.5054890000000  0.4639780000000  0.4697050000000 1.0
C      1  0.4949600000000  0.5366810000000  0.5269510000000 1.0
C      1  0.5058570000000  0.4641140000000  0.5304190000000 1.0
C      1  0.5470540000000  0.4916670000000  0.5378270000000 1.0
C      1  0.4547490000000  0.5087090000000  0.5293580000000 1.0
C      1  0.5466980000000  0.4916200000000  0.4621150000000 1.0
C      1  0.4546810000000  0.5091220000000  0.4701480000000 1.0
C      1  0.5160870000000  0.4556120000000  0.3872440000000 1.0
C      1  0.4805650000000  0.5454800000000  0.3869400000000 1.0
C      1  0.5166300000000  0.4563070000000  0.6126520000000 1.0
C      1  0.4803680000000  0.5454970000000  0.6126350000000 1.0
C      1  0.5833320000000  0.5202750000000  0.4738870000000 1.0
C      1  0.4164390000000  0.4806170000000  0.4739870000000 1.0
C      1  0.5834910000000  0.5203830000000  0.5257920000000 1.0
C      1  0.4165770000000  0.4801340000000  0.5250940000000 1.0
C      1  0.5143700000000  0.5714480000000  0.5792870000000 1.0
C      1  0.4857370000000  0.4283590000000  0.5776870000000 1.0
C      1  0.5143950000000  0.5712700000000  0.4204100000000 1.0
C      1  0.4845610000000  0.4282050000000  0.4229840000000 1.0
C      1  0.5000390000000  0.5155010000000  0.5734950000000 1.0
C      1  0.4974790000000  0.4873130000000  0.5740830000000 1.0
C      1  0.5000480000000  0.5153980000000  0.4261550000000 1.0
C      1  0.4976880000000  0.4871750000000  0.4256670000000 1.0
C      1  0.4890710000000  0.4765800000000  0.5492450000000 1.0
C      1  0.5098080000000  0.5250510000000  0.5484310000000 1.0
C      1  0.4891300000000  0.4765850000000  0.4505270000000 1.0
C      1  0.5096650000000  0.5250880000000  0.4512460000000 1.0
C      1  0.4677910000000  0.4453440000000  0.4102620000000 1.0
C      1  0.5318390000000  0.5541550000000  0.4084040000000 1.0
C      1  0.4682280000000  0.4452550000000  0.5897570000000 1.0
C      1  0.5318790000000  0.5544890000000  0.5913880000000 1.0
C      1  0.4638720000000  0.4835660000000  0.5394930000000 1.0
C      1  0.5361420000000  0.5174830000000  0.5420440000000 1.0
C      1  0.4639130000000  0.4841530000000  0.4597510000000 1.0
C      1  0.5359270000000  0.5174550000000  0.4578020000000 1.0
C      1  0.5748090000000  0.5649160000000  0.4266120000000 1.0
C      1  0.4246330000000  0.4350730000000  0.4260080000000 1.0
C      1  0.5749300000000  0.5651810000000  0.5729870000000 1.0
C      1  0.4272720000000  0.4316320000000  0.5714990000000 1.0
C      1  0.5676200000000  0.5891080000000  0.4856260000000 1.0
C      1  0.4289690000000  0.4112300000000  0.4845920000000 1.0
C      1  0.5676270000000  0.5891210000000  0.5139250000000 1.0
C      1  0.4264450000000  0.4100500000000  0.5131840000000 1.0
C      1  0.5317220000000  0.4720490000000  0.4751710000000 1.0
C      1  0.4725910000000  0.5244870000000  0.4854540000000 1.0
C      1  0.5320470000000  0.4720680000000  0.5249020000000 1.0
C      1  0.4726680000000  0.5242940000000  0.5142220000000 1.0
C      1  0.5872920000000  0.5751120000000  0.5937160000000 1.0
C      1  0.4168330000000  0.4189250000000  0.5917730000000 1.0
C      1  0.5872070000000  0.5746940000000  0.4058320000000 1.0
C      1  0.4125330000000  0.4246430000000  0.4053650000000 1.0
C      1  0.3892900000000  0.5357000000000  0.4862120000000 1.0
C      1  0.6098560000000  0.4657270000000  0.4862220000000 1.0
C      1  0.3893460000000  0.5354250000000  0.5132550000000 1.0
C      1  0.6100590000000  0.4659220000000  0.5131810000000 1.0
C      1  0.5489830000000  0.5411180000000  0.4998780000000 1.0
C      1  0.4502500000000  0.4580290000000  0.4992150000000 1.0
C      1  0.5415410000000  0.4639980000000  0.4999820000000 1.0
END
