TITL C-3201375-1262-611 2.79191686854834e-06 125000 -642.597513023257 0 0 103 (Cs) n - 1
REM
REM in /home/nfs/bkarasulu/CARBON/AIRSS/Generating-Clusters/LCBOP/Higher-Symm/SD-CG/FIRE-CG
REM
REM
REM
REM
REM
REM ./C.cell (b20cbc046b6831c77cfcea5457e17084)
REM AIRSS Version 0.9.1 bugfix July 2018 build 013d7b7c2542+ Fri, 06 Jul 2018 19:26:36 +0100
REM compiler GCC version 9.2.1 20190827 (Red Hat 9.2.1-1)
REM options -cpp -mtune=generic -march=x86-64 -g -O0 -fpre-include=/usr/include/finclude/math-vector-fortran.h
REM seed -159115446 1328284708 -1044911948 826240381 -854343029 1322070896 -903133603 -1671107928 1913241398 -950212799 1549224231 1241477377 -778514920 958417221 864720667 -347420063 1796549690 -1890344512 -144409584 174866310 589962182 -1936387167 -941900055 -1412762785 -858789538 967731946 -315887009 -88758422 1107475256 766193073 2083140177 531734056 305206818
REM
CELL 1.54180   50.00000   50.00000   50.00000   90.00000   90.00000   90.00000
LATT -1
SFAC C  
C      1  0.4855860000000  0.5522740000000  0.4516750000000 1.0
C      1  0.5142490000000  0.5522790000000  0.4516750000000 1.0
C      1  0.5140340000000  0.5282840000000  0.5426880000000 1.0
C      1  0.4858090000000  0.5282800000000  0.5426880000000 1.0
C      1  0.5145290000000  0.4780740000000  0.4126880000000 1.0
C      1  0.4853280000000  0.4780700000000  0.4126880000000 1.0
C      1  0.4861240000000  0.5733270000000  0.4990300000000 1.0
C      1  0.5137050000000  0.5733310000000  0.4990300000000 1.0
C      1  0.5132980000000  0.3981290000000  0.4795920000000 1.0
C      1  0.4865840000000  0.3981240000000  0.4795920000000 1.0
C      1  0.4601510000000  0.4906580000000  0.5555350000000 1.0
C      1  0.5397040000000  0.4906700000000  0.5555350000000 1.0
C      1  0.5150140000000  0.5210000000000  0.5865220000000 1.0
C      1  0.4848320000000  0.5209950000000  0.5865220000000 1.0
C      1  0.5574480000000  0.4656470000000  0.4317590000000 1.0
C      1  0.4424130000000  0.4656290000000  0.4317600000000 1.0
C      1  0.5406670000000  0.4342400000000  0.5672800000000 1.0
C      1  0.4592050000000  0.4342280000000  0.5672810000000 1.0
C      1  0.4376140000000  0.4755080000000  0.5465650000000 1.0
C      1  0.5622450000000  0.4755280000000  0.5465640000000 1.0
C      1  0.4318850000000  0.5460700000000  0.4680720000000 1.0
C      1  0.5679520000000  0.5460910000000  0.4680720000000 1.0
C      1  0.5350460000000  0.5854370000000  0.5782980000000 1.0
C      1  0.4647790000000  0.5854270000000  0.5782980000000 1.0
C      1  0.4843310000000  0.5324800000000  0.4103810000000 1.0
C      1  0.5155100000000  0.5324850000000  0.4103810000000 1.0
C      1  0.5266610000000  0.4946140000000  0.5815210000000 1.0
C      1  0.4731930000000  0.4946060000000  0.5815210000000 1.0
C      1  0.5278650000000  0.4605580000000  0.4781870000000 1.0
C      1  0.4719990000000  0.4605500000000  0.4781870000000 1.0
C      1  0.4755400000000  0.4115350000000  0.5619110000000 1.0
C      1  0.5243390000000  0.4115420000000  0.5619100000000 1.0
C      1  0.4307050000000  0.5156010000000  0.4295050000000 1.0
C      1  0.5691410000000  0.5156230000000  0.4295040000000 1.0
C      1  0.5425670000000  0.5626350000000  0.5636760000000 1.0
C      1  0.4572660000000  0.5626220000000  0.5636760000000 1.0
C      1  0.5321520000000  0.5866940000000  0.4793830000000 1.0
C      1  0.4676720000000  0.5866840000000  0.4793840000000 1.0
C      1  0.4721550000000  0.5504770000000  0.5089800000000 1.0
C      1  0.5276810000000  0.5504850000000  0.5089800000000 1.0
C      1  0.4860500000000  0.4027330000000  0.5363550000000 1.0
C      1  0.5138320000000  0.4027370000000  0.5363550000000 1.0
C      1  0.5303730000000  0.5016590000000  0.5064250000000 1.0
C      1  0.4694780000000  0.5016490000000  0.5064250000000 1.0
C      1  0.5379000000000  0.4046070000000  0.4877750000000 1.0
C      1  0.4619800000000  0.4045950000000  0.4877760000000 1.0
C      1  0.4727580000000  0.5043270000000  0.5341740000000 1.0
C      1  0.5270920000000  0.5043350000000  0.5341740000000 1.0
C      1  0.5800540000000  0.4913060000000  0.5295250000000 1.0
C      1  0.4198000000000  0.4912810000000  0.5295260000000 1.0
C      1  0.4865520000000  0.5985970000000  0.5865090000000 1.0
C      1  0.5132690000000  0.5986010000000  0.5865090000000 1.0
C      1  0.4403560000000  0.5413860000000  0.4390210000000 1.0
C      1  0.5594820000000  0.5414040000000  0.4390210000000 1.0
C      1  0.5580380000000  0.4466930000000  0.5473090000000 1.0
C      1  0.4418300000000  0.4466750000000  0.5473100000000 1.0
C      1  0.4367930000000  0.4945950000000  0.4717320000000 1.0
C      1  0.5630600000000  0.4946140000000  0.4717310000000 1.0
C      1  0.4408070000000  0.5700230000000  0.4842930000000 1.0
C      1  0.5590220000000  0.5700420000000  0.4842920000000 1.0
C      1  0.4159650000000  0.5107740000000  0.5102820000000 1.0
C      1  0.5838830000000  0.5108000000000  0.5102810000000 1.0
C      1  0.5257580000000  0.5398370000000  0.5666150000000 1.0
C      1  0.4740820000000  0.5398290000000  0.5666150000000 1.0
C      1  0.4676610000000  0.5500410000000  0.4287130000000 1.0
C      1  0.5321740000000  0.5500510000000  0.4287120000000 1.0
C      1  0.5222830000000  0.5280130000000  0.4667020000000 1.0
C      1  0.4775590000000  0.5280060000000  0.4667030000000 1.0
C      1  0.5221990000000  0.5051370000000  0.4203090000000 1.0
C      1  0.4776500000000  0.5051300000000  0.4203100000000 1.0
C      1  0.5143930000000  0.4711500000000  0.5921950000000 1.0
C      1  0.4854680000000  0.4711450000000  0.5921950000000 1.0
C      1  0.5138780000000  0.6029200000000  0.4635680000000 1.0
C      1  0.4859410000000  0.6029160000000  0.4635680000000 1.0
C      1  0.5761770000000  0.4471130000000  0.4227050000000 1.0
C      1  0.4236900000000  0.4470900000000  0.4227050000000 1.0
C      1  0.4578630000000  0.4827950000000  0.4881120000000 1.0
C      1  0.5419930000000  0.4828080000000  0.4881120000000 1.0
C      1  0.4402250000000  0.5648960000000  0.5405750000000 1.0
C      1  0.5596070000000  0.5649150000000  0.5405750000000 1.0
C      1  0.4852240000000  0.5064190000000  0.4495780000000 1.0
C      1  0.5146250000000  0.5064240000000  0.4495780000000 1.0
C      1  0.4439050000000  0.4165350000000  0.5034400000000 1.0
C      1  0.5559720000000  0.4165520000000  0.5034400000000 1.0
C      1  0.4247470000000  0.5192620000000  0.4835070000000 1.0
C      1  0.5750980000000  0.5192850000000  0.4835070000000 1.0
C      1  0.4360960000000  0.4313700000000  0.5242600000000 1.0
C      1  0.5637770000000  0.4313900000000  0.5242600000000 1.0
C      1  0.4341140000000  0.4906850000000  0.4434930000000 1.0
C      1  0.5657390000000  0.4907050000000  0.4434930000000 1.0
C      1  0.5256490000000  0.5267380000000  0.4940970000000 1.0
C      1  0.4741940000000  0.5267300000000  0.4940970000000 1.0
C      1  0.4062510000000  0.4293730000000  0.4148880000000 1.0
C      1  0.5936210000000  0.4294020000000  0.4148870000000 1.0
C      1  0.4854170000000  0.4532780000000  0.4541750000000 1.0
C      1  0.5144480000000  0.4532820000000  0.4541750000000 1.0
C      1  0.4708780000000  0.4600990000000  0.4298970000000 1.0
C      1  0.5289850000000  0.4601080000000  0.4298970000000 1.0
C      1  0.4453680000000  0.5612760000000  0.5130560000000 1.0
C      1  0.5544650000000  0.5612920000000  0.5130560000000 1.0
C      1  0.5313680000000  0.4488270000000  0.5898480000000 1.0
C      1  0.4685000000000  0.4488180000000  0.5898480000000 1.0
C      1  0.4999400000000  0.4088170000000  0.5786920000000 1.0
END
