TITL C-3201373-1215-862 -123508.545286121 125000 -317.532792119934 0 0 56 (C1) n - 1
REM
REM in /home/nfs/bkarasulu/CARBON/AIRSS/Generating-Clusters/LCBOP/Higher-Symm/SD-CG/FIRE-CG
REM
REM
REM
REM
REM
REM ./C.cell (b20cbc046b6831c77cfcea5457e17084)
REM AIRSS Version 0.9.1 bugfix July 2018 build 013d7b7c2542+ Fri, 06 Jul 2018 19:26:36 +0100
REM compiler GCC version 9.2.1 20190827 (Red Hat 9.2.1-1)
REM options -cpp -mtune=generic -march=x86-64 -g -O0 -fpre-include=/usr/include/finclude/math-vector-fortran.h
REM seed -1296095009 -2071512498 1419340065 978565989 -10488832 923292282 1630709366 -1682585551 -26867417 -47380175 99412407 -1759696935 -547417280 50145812 934663699 668489457 -975502790 -496246040 368813215 773763909 -1457986389 -871746048 -1769296132 -2003225612 -310983932 -2054690561 355948238 1356723449 -909948458 -1225620123 -934969510 46646148 -477623866
REM
CELL 1.54180   50.00000   50.00000   50.00000   90.00000   90.00000   90.00000
LATT -1
SFAC C  
C      1  0.5381390000000  0.4668000000000  0.4899250000000 1.0
C      1  0.4954970000000  0.5351920000000  0.4837860000000 1.0
C      1  0.4366580000000  0.4916530000000  0.4788390000000 1.0
C      1  0.5325900000000  0.4701530000000  0.5208760000000 1.0
C      1  0.5053840000000  0.5388140000000  0.5103070000000 1.0
C      1  0.4604100000000  0.4802650000000  0.5216800000000 1.0
C      1  0.5335970000000  0.5156390000000  0.4837970000000 1.0
C      1  0.5238780000000  0.4443000000000  0.4754560000000 1.0
C      1  0.4536220000000  0.5135900000000  0.4897510000000 1.0
C      1  0.5324430000000  0.5309930000000  0.5064810000000 1.0
C      1  0.5059250000000  0.4532460000000  0.5217190000000 1.0
C      1  0.4609000000000  0.5106930000000  0.5202420000000 1.0
C      1  0.5397710000000  0.5290420000000  0.5512900000000 1.0
C      1  0.4791780000000  0.5299540000000  0.5602620000000 1.0
C      1  0.4791620000000  0.4486240000000  0.5581730000000 1.0
C      1  0.5225140000000  0.5195310000000  0.4382710000000 1.0
C      1  0.4670890000000  0.5214660000000  0.4419400000000 1.0
C      1  0.4968100000000  0.4733830000000  0.4427380000000 1.0
C      1  0.5511510000000  0.5013840000000  0.5556460000000 1.0
C      1  0.4788490000000  0.5018220000000  0.5705340000000 1.0
C      1  0.5071210000000  0.5441540000000  0.5546360000000 1.0
C      1  0.5481360000000  0.4761960000000  0.4440910000000 1.0
C      1  0.4696420000000  0.4879960000000  0.4432820000000 1.0
C      1  0.4951070000000  0.5366700000000  0.4399420000000 1.0
C      1  0.4698880000000  0.4265410000000  0.5102020000000 1.0
C      1  0.5762950000000  0.5243170000000  0.5126950000000 1.0
C      1  0.4547040000000  0.5593980000000  0.5199540000000 1.0
C      1  0.4769060000000  0.4360190000000  0.4731920000000 1.0
C      1  0.5754090000000  0.5189150000000  0.4723690000000 1.0
C      1  0.4498810000000  0.5602580000000  0.4826860000000 1.0
C      1  0.4786870000000  0.5736060000000  0.5174770000000 1.0
C      1  0.5773870000000  0.4953960000000  0.5121700000000 1.0
C      1  0.4447730000000  0.4377060000000  0.5072220000000 1.0
C      1  0.4750290000000  0.5732910000000  0.4784410000000 1.0
C      1  0.5791040000000  0.4914080000000  0.4822750000000 1.0
C      1  0.4525200000000  0.4475290000000  0.4698670000000 1.0
C      1  0.4995250000000  0.4480420000000  0.4605430000000 1.0
C      1  0.5482600000000  0.5240820000000  0.4614770000000 1.0
C      1  0.4474010000000  0.5353270000000  0.4692330000000 1.0
C      1  0.4871220000000  0.4345950000000  0.5331700000000 1.0
C      1  0.5528970000000  0.5356530000000  0.5251410000000 1.0
C      1  0.4561880000000  0.5358250000000  0.5374270000000 1.0
C      1  0.4930840000000  0.5552180000000  0.4639480000000 1.0
C      1  0.5613900000000  0.4722790000000  0.4706040000000 1.0
C      1  0.4490290000000  0.4739660000000  0.4601860000000 1.0
C      1  0.5008080000000  0.5603110000000  0.5296600000000 1.0
C      1  0.5594600000000  0.4824310000000  0.5325300000000 1.0
C      1  0.4394360000000  0.4614200000000  0.5203050000000 1.0
C      1  0.4859050000000  0.4718220000000  0.5087280000000 1.0
C      1  0.4818260000000  0.5107140000000  0.4811160000000 1.0
C      1  0.4939330000000  0.5134940000000  0.5226770000000 1.0
C      1  0.4948260000000  0.4874640000000  0.4869390000000 1.0
C      1  0.5218200000000  0.4904220000000  0.4822840000000 1.0
C      1  0.5162560000000  0.4975070000000  0.5267180000000 1.0
C      1  0.5220280000000  0.4886730000000  0.4364010000000 1.0
C      1  0.4785530000000  0.4742640000000  0.5688630000000 1.0
END
