TITL C-3201374-830-473 -372845.755892063 125000 -1023.12008729784 0 0 170 (C1) n - 1
REM
REM in /home/nfs/bkarasulu/CARBON/AIRSS/Generating-Clusters/LCBOP/Higher-Symm/SD-CG/FIRE-CG
REM
REM
REM
REM
REM
REM ./C.cell (b20cbc046b6831c77cfcea5457e17084)
REM AIRSS Version 0.9.1 bugfix July 2018 build 013d7b7c2542+ Fri, 06 Jul 2018 19:26:36 +0100
REM compiler GCC version 9.2.1 20190827 (Red Hat 9.2.1-1)
REM options -cpp -mtune=generic -march=x86-64 -g -O0 -fpre-include=/usr/include/finclude/math-vector-fortran.h
REM seed -989584819 1799120959 965130184 1522273363 -200660153 -1641754079 -78033797 -1046071978 336852642 1935112826 -237136760 1817870397 -1928493724 63434374 -1611985224 1411647656 573297643 1507510282 -786311976 635616180 -1708327628 2086166029 812799186 356990290 803969361 -1228644072 299730513 240759851 -981677674 -60028421 1703663083 -1286269622 -557546641
REM
CELL 1.54180   50.00000   50.00000   50.00000   90.00000   90.00000   90.00000
LATT -1
SFAC C  
C      1  0.4599710000000  0.5509190000000  0.3978840000000 1.0
C      1  0.4637980000000  0.4457060000000  0.5894990000000 1.0
C      1  0.5321780000000  0.5523280000000  0.3982550000000 1.0
C      1  0.5402560000000  0.4489360000000  0.5929010000000 1.0
C      1  0.4595210000000  0.4397720000000  0.4076640000000 1.0
C      1  0.4647800000000  0.5506380000000  0.6029950000000 1.0
C      1  0.5341800000000  0.4407870000000  0.4009020000000 1.0
C      1  0.5397090000000  0.5447290000000  0.6042750000000 1.0
C      1  0.4815280000000  0.5311310000000  0.3954620000000 1.0
C      1  0.4877380000000  0.4632370000000  0.5867090000000 1.0
C      1  0.5111170000000  0.5321470000000  0.3927230000000 1.0
C      1  0.5179120000000  0.4663080000000  0.5860930000000 1.0
C      1  0.4813780000000  0.4585630000000  0.3991800000000 1.0
C      1  0.4864220000000  0.5302320000000  0.6004830000000 1.0
C      1  0.5116680000000  0.4595250000000  0.3948430000000 1.0
C      1  0.5158250000000  0.5290230000000  0.5972450000000 1.0
C      1  0.4005570000000  0.4700690000000  0.4340410000000 1.0
C      1  0.4061320000000  0.5347070000000  0.5689760000000 1.0
C      1  0.5926400000000  0.4624750000000  0.4345270000000 1.0
C      1  0.5954110000000  0.5293640000000  0.5784270000000 1.0
C      1  0.3988510000000  0.5349470000000  0.4278380000000 1.0
C      1  0.4028530000000  0.4595470000000  0.5551580000000 1.0
C      1  0.5905070000000  0.5384030000000  0.4324060000000 1.0
C      1  0.5969520000000  0.4654440000000  0.5748800000000 1.0
C      1  0.6054840000000  0.5143130000000  0.4308230000000 1.0
C      1  0.6150480000000  0.4837900000000  0.5856030000000 1.0
C      1  0.3818190000000  0.5136890000000  0.4199160000000 1.0
C      1  0.3888210000000  0.4833700000000  0.5631520000000 1.0
C      1  0.6056990000000  0.4873660000000  0.4309430000000 1.0
C      1  0.6141280000000  0.5105120000000  0.5872260000000 1.0
C      1  0.3825900000000  0.4864470000000  0.4193400000000 1.0
C      1  0.3910980000000  0.5101820000000  0.5679640000000 1.0
C      1  0.5691450000000  0.4814670000000  0.6141270000000 1.0
C      1  0.5576200000000  0.5105260000000  0.4042660000000 1.0
C      1  0.4353600000000  0.4868440000000  0.5765480000000 1.0
C      1  0.4366590000000  0.5091560000000  0.4061420000000 1.0
C      1  0.5690690000000  0.5081180000000  0.6158860000000 1.0
C      1  0.5579900000000  0.4842110000000  0.4046060000000 1.0
C      1  0.4441020000000  0.5084160000000  0.5916990000000 1.0
C      1  0.4371210000000  0.4830970000000  0.4058380000000 1.0
C      1  0.4067080000000  0.4823640000000  0.4592220000000 1.0
C      1  0.4072350000000  0.5528420000000  0.5442410000000 1.0
C      1  0.5959700000000  0.4491800000000  0.4638030000000 1.0
C      1  0.5990400000000  0.5394810000000  0.5506170000000 1.0
C      1  0.3983070000000  0.5470600000000  0.4563920000000 1.0
C      1  0.4072180000000  0.4558460000000  0.5263170000000 1.0
C      1  0.5928810000000  0.5544180000000  0.4612360000000 1.0
C      1  0.5986430000000  0.4592510000000  0.5460570000000 1.0
C      1  0.5243970000000  0.5184030000000  0.4987080000000 1.0
C      1  0.5268520000000  0.4840540000000  0.4618190000000 1.0
C      1  0.4833240000000  0.5190920000000  0.5164810000000 1.0
C      1  0.4801710000000  0.4847200000000  0.4712190000000 1.0
C      1  0.5222630000000  0.4889600000000  0.5080980000000 1.0
C      1  0.5302050000000  0.5117660000000  0.4576480000000 1.0
C      1  0.4705780000000  0.4940500000000  0.5189760000000 1.0
C      1  0.4795970000000  0.5151200000000  0.4726260000000 1.0
C      1  0.5594480000000  0.5182200000000  0.5320990000000 1.0
C      1  0.5540870000000  0.4733550000000  0.4636260000000 1.0
C      1  0.4421120000000  0.5206450000000  0.5377230000000 1.0
C      1  0.4334240000000  0.4924220000000  0.4587650000000 1.0
C      1  0.5607440000000  0.4883070000000  0.5341040000000 1.0
C      1  0.5545290000000  0.5251240000000  0.4605650000000 1.0
C      1  0.4390490000000  0.4913720000000  0.5483910000000 1.0
C      1  0.4363000000000  0.5205590000000  0.4607400000000 1.0
C      1  0.4294050000000  0.4592490000000  0.4147620000000 1.0
C      1  0.4342650000000  0.5346240000000  0.5912860000000 1.0
C      1  0.5646180000000  0.4588810000000  0.4111530000000 1.0
C      1  0.5663940000000  0.5315420000000  0.6001590000000 1.0
C      1  0.4292210000000  0.5347020000000  0.4090570000000 1.0
C      1  0.4319330000000  0.4596060000000  0.5792220000000 1.0
C      1  0.5630950000000  0.5366220000000  0.4096020000000 1.0
C      1  0.5674450000000  0.4611380000000  0.5945000000000 1.0
C      1  0.4516750000000  0.5236980000000  0.4852320000000 1.0
C      1  0.4449440000000  0.4843770000000  0.5047640000000 1.0
C      1  0.5707180000000  0.5162850000000  0.4831920000000 1.0
C      1  0.5520060000000  0.4817380000000  0.5070320000000 1.0
C      1  0.4515300000000  0.4765780000000  0.4769590000000 1.0
C      1  0.4356710000000  0.5275240000000  0.5096160000000 1.0
C      1  0.5703960000000  0.4857760000000  0.4843090000000 1.0
C      1  0.5513990000000  0.5246260000000  0.5048770000000 1.0
C      1  0.4896110000000  0.4287120000000  0.5334880000000 1.0
C      1  0.4800950000000  0.5735720000000  0.4629780000000 1.0
C      1  0.5177600000000  0.4289210000000  0.5339570000000 1.0
C      1  0.5084920000000  0.5750960000000  0.4633990000000 1.0
C      1  0.4906740000000  0.5805390000000  0.5455820000000 1.0
C      1  0.4894520000000  0.4233560000000  0.4731360000000 1.0
C      1  0.5194970000000  0.5790710000000  0.5459100000000 1.0
C      1  0.5168650000000  0.4231620000000  0.4692470000000 1.0
C      1  0.4461510000000  0.5925170000000  0.5602740000000 1.0
C      1  0.4509930000000  0.4001820000000  0.4823050000000 1.0
C      1  0.5656360000000  0.5851550000000  0.5613220000000 1.0
C      1  0.5597030000000  0.4024820000000  0.4633090000000 1.0
C      1  0.4466390000000  0.4084620000000  0.5377130000000 1.0
C      1  0.4356610000000  0.5915450000000  0.4545400000000 1.0
C      1  0.5624990000000  0.4155060000000  0.5459990000000 1.0
C      1  0.5517030000000  0.5973640000000  0.4580650000000 1.0
C      1  0.4490320000000  0.4571430000000  0.5377570000000 1.0
C      1  0.4416640000000  0.5455660000000  0.4486160000000 1.0
C      1  0.5550230000000  0.4619360000000  0.5454810000000 1.0
C      1  0.5488730000000  0.5519570000000  0.4550480000000 1.0
C      1  0.4507820000000  0.5475820000000  0.5475850000000 1.0
C      1  0.4488490000000  0.4473100000000  0.4729860000000 1.0
C      1  0.5563210000000  0.5439220000000  0.5435660000000 1.0
C      1  0.5527490000000  0.4470410000000  0.4552470000000 1.0
C      1  0.4676470000000  0.5724220000000  0.4125200000000 1.0
C      1  0.4710620000000  0.4182930000000  0.5913950000000 1.0
C      1  0.5226990000000  0.5716690000000  0.4164130000000 1.0
C      1  0.5321420000000  0.4214240000000  0.5942650000000 1.0
C      1  0.4683950000000  0.4226550000000  0.4286040000000 1.0
C      1  0.4741180000000  0.5768140000000  0.6075670000000 1.0
C      1  0.5254980000000  0.4223120000000  0.4208630000000 1.0
C      1  0.5336120000000  0.5722400000000  0.6086000000000 1.0
C      1  0.4805360000000  0.4869390000000  0.5710690000000 1.0
C      1  0.4737810000000  0.5107980000000  0.4178020000000 1.0
C      1  0.5235000000000  0.4885610000000  0.5668210000000 1.0
C      1  0.5192540000000  0.5109940000000  0.4126810000000 1.0
C      1  0.4726870000000  0.5078060000000  0.5885500000000 1.0
C      1  0.4743340000000  0.4819010000000  0.4185160000000 1.0
C      1  0.5206690000000  0.5155420000000  0.5725700000000 1.0
C      1  0.5196440000000  0.4823890000000  0.4133550000000 1.0
C      1  0.4330480000000  0.4321630000000  0.5214830000000 1.0
C      1  0.4220650000000  0.5655440000000  0.4548540000000 1.0
C      1  0.5750440000000  0.4418050000000  0.5432460000000 1.0
C      1  0.5681210000000  0.5724880000000  0.4602790000000 1.0
C      1  0.4316430000000  0.5688080000000  0.5501930000000 1.0
C      1  0.4407200000000  0.4264460000000  0.4914480000000 1.0
C      1  0.5781930000000  0.5605850000000  0.5498660000000 1.0
C      1  0.5733670000000  0.4288400000000  0.4630160000000 1.0
C      1  0.4789730000000  0.5963400000000  0.4239950000000 1.0
C      1  0.4878550000000  0.4045010000000  0.5723260000000 1.0
C      1  0.5097940000000  0.5975830000000  0.4247360000000 1.0
C      1  0.5183110000000  0.4061640000000  0.5739080000000 1.0
C      1  0.4832610000000  0.3971950000000  0.4374600000000 1.0
C      1  0.4902890000000  0.5930510000000  0.5901990000000 1.0
C      1  0.5147010000000  0.3969680000000  0.4330490000000 1.0
C      1  0.5207600000000  0.5907930000000  0.5907090000000 1.0
C      1  0.4757680000000  0.3976970000000  0.4671210000000 1.0
C      1  0.4756810000000  0.5962750000000  0.5645680000000 1.0
C      1  0.5301980000000  0.3984070000000  0.4599030000000 1.0
C      1  0.5365160000000  0.5924970000000  0.5654670000000 1.0
C      1  0.4648920000000  0.5960930000000  0.4511160000000 1.0
C      1  0.4749710000000  0.4070680000000  0.5456020000000 1.0
C      1  0.5220310000000  0.5994200000000  0.4529700000000 1.0
C      1  0.5334680000000  0.4095470000000  0.5484700000000 1.0
C      1  0.4834500000000  0.5253450000000  0.4438470000000 1.0
C      1  0.4858250000000  0.4800290000000  0.5410670000000 1.0
C      1  0.5126740000000  0.5261080000000  0.4390150000000 1.0
C      1  0.5148420000000  0.4804200000000  0.5370500000000 1.0
C      1  0.4840780000000  0.4692750000000  0.4449300000000 1.0
C      1  0.4908150000000  0.5332400000000  0.5381330000000 1.0
C      1  0.5138390000000  0.4687480000000  0.4401490000000 1.0
C      1  0.5141610000000  0.5319130000000  0.5511390000000 1.0
C      1  0.4724380000000  0.4417170000000  0.4540190000000 1.0
C      1  0.4766330000000  0.5561490000000  0.5421440000000 1.0
C      1  0.5256260000000  0.4409780000000  0.4458400000000 1.0
C      1  0.5306510000000  0.5529010000000  0.5444810000000 1.0
C      1  0.4695050000000  0.5514570000000  0.4458680000000 1.0
C      1  0.4759000000000  0.4529660000000  0.5368130000000 1.0
C      1  0.5217580000000  0.5550860000000  0.4436220000000 1.0
C      1  0.5289110000000  0.4540450000000  0.5372130000000 1.0
C      1  0.3975970000000  0.4945140000000  0.4854320000000 1.0
C      1  0.4080950000000  0.5390310000000  0.5111950000000 1.0
C      1  0.5966090000000  0.4702470000000  0.4887140000000 1.0
C      1  0.6045870000000  0.5189510000000  0.5211200000000 1.0
C      1  0.3952450000000  0.5274780000000  0.4853590000000 1.0
C      1  0.4138190000000  0.4797270000000  0.5082550000000 1.0
C      1  0.5954660000000  0.5324360000000  0.4885470000000 1.0
C      1  0.6052180000000  0.4826270000000  0.5200520000000 1.0
C      1  0.5073300000000  0.4782020000000  0.4848930000000 1.0
C      1  0.4979970000000  0.5252560000000  0.4933790000000 1.0
END
