TITL C-3201376-6384-1928 -0.116473101941291 125000 -424.557289524836 0 0 70 (C1) n - 1
REM
REM in /home/nfs/bkarasulu/CARBON/AIRSS/Generating-Clusters/LCBOP/Higher-Symm/SD-CG/FIRE-CG
REM
REM
REM
REM
REM
REM ./C.cell (b20cbc046b6831c77cfcea5457e17084)
REM AIRSS Version 0.9.1 bugfix July 2018 build 013d7b7c2542+ Fri, 06 Jul 2018 19:26:36 +0100
REM compiler GCC version 9.2.1 20190827 (Red Hat 9.2.1-1)
REM options -cpp -mtune=generic -march=x86-64 -g -O0 -fpre-include=/usr/include/finclude/math-vector-fortran.h
REM seed 1454022155 -1813636787 1555128841 -434075417 438105789 2056687721 -1324750951 2095546923 2070815202 1398532893 -888154792 819129470 1934612848 1531909231 1024828008 1640039344 -1224003073 -1970813952 157162115 1781712435 -2108133891 -200021973 -1226074467 -1718171036 -2070251345 -1176371463 -435060738 1239556559 -1656042716 -1043782559 1201750746 190364532 718295537
REM
CELL 1.54180   50.00000   50.00000   50.00000   90.00000   90.00000   90.00000
LATT -1
SFAC C  
C      1  0.5023440000000  0.5404140000000  0.5774840000000 1.0
C      1  0.5556620000000  0.4657510000000  0.4737770000000 1.0
C      1  0.4848250000000  0.4467110000000  0.5513660000000 1.0
C      1  0.4678540000000  0.5744320000000  0.4914160000000 1.0
C      1  0.5522630000000  0.4859540000000  0.3942920000000 1.0
C      1  0.5671200000000  0.4906320000000  0.4682220000000 1.0
C      1  0.4387950000000  0.5096640000000  0.4277470000000 1.0
C      1  0.4549500000000  0.5736340000000  0.5559430000000 1.0
C      1  0.4289210000000  0.5290980000000  0.4453970000000 1.0
C      1  0.3907660000000  0.4850430000000  0.4923620000000 1.0
C      1  0.5991560000000  0.4840430000000  0.5538200000000 1.0
C      1  0.4025490000000  0.4644710000000  0.5045570000000 1.0
C      1  0.5141680000000  0.5582970000000  0.5597100000000 1.0
C      1  0.5556060000000  0.4726220000000  0.5348410000000 1.0
C      1  0.4598080000000  0.5927880000000  0.5378410000000 1.0
C      1  0.3921510000000  0.5058680000000  0.4758270000000 1.0
C      1  0.4905830000000  0.4339630000000  0.4817040000000 1.0
C      1  0.5161340000000  0.5650840000000  0.5339630000000 1.0
C      1  0.6251060000000  0.4953210000000  0.5556690000000 1.0
C      1  0.4604570000000  0.4603230000000  0.5484970000000 1.0
C      1  0.4786430000000  0.5274210000000  0.4952920000000 1.0
C      1  0.4874490000000  0.5540410000000  0.4956530000000 1.0
C      1  0.4707430000000  0.4531730000000  0.4878430000000 1.0
C      1  0.5712470000000  0.4973120000000  0.4413760000000 1.0
C      1  0.4538270000000  0.5058620000000  0.5313300000000 1.0
C      1  0.5797490000000  0.4864720000000  0.5331250000000 1.0
C      1  0.5133680000000  0.5588430000000  0.5066580000000 1.0
C      1  0.4430840000000  0.4467530000000  0.4850210000000 1.0
C      1  0.4905320000000  0.4094130000000  0.4937870000000 1.0
C      1  0.4442280000000  0.5687950000000  0.4761380000000 1.0
C      1  0.5349110000000  0.4572800000000  0.5413190000000 1.0
C      1  0.4169780000000  0.5398180000000  0.5278100000000 1.0
C      1  0.5873410000000  0.5034980000000  0.5110280000000 1.0
C      1  0.5088080000000  0.4652690000000  0.3868330000000 1.0
C      1  0.4054550000000  0.5220270000000  0.4593730000000 1.0
C      1  0.4737050000000  0.5017300000000  0.5745980000000 1.0
C      1  0.4267640000000  0.4507900000000  0.5081720000000 1.0
C      1  0.4197160000000  0.5718840000000  0.4900480000000 1.0
C      1  0.5560430000000  0.5333690000000  0.4884470000000 1.0
C      1  0.4610010000000  0.4883700000000  0.5530750000000 1.0
C      1  0.4762040000000  0.4793110000000  0.4962230000000 1.0
C      1  0.4978590000000  0.4955110000000  0.5892610000000 1.0
C      1  0.4873150000000  0.4746760000000  0.3727360000000 1.0
C      1  0.5705580000000  0.5094630000000  0.4891060000000 1.0
C      1  0.4333620000000  0.4456870000000  0.4587380000000 1.0
C      1  0.5361880000000  0.5504270000000  0.4928180000000 1.0
C      1  0.6588490000000  0.4874110000000  0.5973350000000 1.0
C      1  0.4747930000000  0.5315040000000  0.5724790000000 1.0
C      1  0.4687820000000  0.5040640000000  0.5070100000000 1.0
C      1  0.4391650000000  0.4494820000000  0.5335030000000 1.0
C      1  0.5047600000000  0.4418940000000  0.4353770000000 1.0
C      1  0.6312020000000  0.5112430000000  0.5330180000000 1.0
C      1  0.5112270000000  0.4471370000000  0.5478750000000 1.0
C      1  0.6750810000000  0.4836070000000  0.6173780000000 1.0
C      1  0.4341630000000  0.4594740000000  0.4358620000000 1.0
C      1  0.5353030000000  0.4708120000000  0.3779600000000 1.0
C      1  0.5105550000000  0.4405470000000  0.4626910000000 1.0
C      1  0.4385950000000  0.4831480000000  0.4243620000000 1.0
C      1  0.6134590000000  0.5145700000000  0.5127910000000 1.0
C      1  0.5650930000000  0.4951150000000  0.4156320000000 1.0
C      1  0.5358810000000  0.4482750000000  0.4715430000000 1.0
C      1  0.4086390000000  0.5581980000000  0.5102780000000 1.0
C      1  0.4430350000000  0.5520450000000  0.4535320000000 1.0
C      1  0.5050010000000  0.4504590000000  0.4102820000000 1.0
C      1  0.4658450000000  0.5940730000000  0.5116920000000 1.0
C      1  0.6423520000000  0.4912770000000  0.5769670000000 1.0
C      1  0.4550480000000  0.5456760000000  0.5581580000000 1.0
C      1  0.5441280000000  0.4611320000000  0.3539340000000 1.0
C      1  0.5143730000000  0.5177220000000  0.5908570000000 1.0
C      1  0.4403780000000  0.5298290000000  0.5392400000000 1.0
END
