TITL C-3201379-3821-464 -2.26376547812495e-07 125000 -90.1247417981371 0 0 16 (C1) n - 1
REM
REM in /home/nfs/bkarasulu/CARBON/AIRSS/Generating-Clusters/LCBOP/Higher-Symm/SD-CG/FIRE-CG
REM
REM
REM
REM
REM
REM ./C.cell (b20cbc046b6831c77cfcea5457e17084)
REM AIRSS Version 0.9.1 bugfix July 2018 build 013d7b7c2542+ Fri, 06 Jul 2018 19:26:36 +0100
REM compiler GCC version 9.2.1 20190827 (Red Hat 9.2.1-1)
REM options -cpp -mtune=generic -march=x86-64 -g -O0 -fpre-include=/usr/include/finclude/math-vector-fortran.h
REM seed 1629762952 -1887007700 864679477 -368018652 1911375391 -1934473423 1299610585 -1741872348 -976052112 -1701884542 768375900 -1627319635 -171844299 996121991 480338114 2038269843 -321105797 1151848210 -192285375 -45606663 353230290 1903616208 1866386409 -853866727 1608309804 2021452883 1712801532 731401446 1893631612 526989427 -234165414 243754236 361169718
REM
CELL 1.54180   50.00000   50.00000   50.00000   90.00000   90.00000   90.00000
LATT -1
SFAC C  
C      1  0.4952830000000  0.4388500000000  0.5182830000000 1.0
C      1  0.5148400000000  0.4879810000000  0.5844490000000 1.0
C      1  0.4660930000000  0.5431800000000  0.4845970000000 1.0
C      1  0.5240560000000  0.4999260000000  0.4894360000000 1.0
C      1  0.5031570000000  0.4598480000000  0.5031040000000 1.0
C      1  0.4705290000000  0.5364200000000  0.5100060000000 1.0
C      1  0.5119110000000  0.4861860000000  0.5119990000000 1.0
C      1  0.5142980000000  0.4869190000000  0.4651020000000 1.0
C      1  0.5417110000000  0.5205350000000  0.4906160000000 1.0
C      1  0.4829960000000  0.5211060000000  0.5278970000000 1.0
C      1  0.5010720000000  0.5004220000000  0.5338460000000 1.0
C      1  0.5032340000000  0.5021250000000  0.4445400000000 1.0
C      1  0.5049830000000  0.4611560000000  0.4742740000000 1.0
C      1  0.4716580000000  0.5383970000000  0.4589250000000 1.0
C      1  0.5081330000000  0.4943500000000  0.5600850000000 1.0
C      1  0.4860440000000  0.5226000000000  0.4428390000000 1.0
END
