TITL C-3201377-4638-2171 -58273.9411222305 125000 -1035.54572815352 0 0 167 (C1) n - 1
REM
REM in /home/nfs/bkarasulu/CARBON/AIRSS/Generating-Clusters/LCBOP/Higher-Symm/SD-CG/FIRE-CG
REM
REM
REM
REM
REM
REM ./C.cell (b20cbc046b6831c77cfcea5457e17084)
REM AIRSS Version 0.9.1 bugfix July 2018 build 013d7b7c2542+ Fri, 06 Jul 2018 19:26:36 +0100
REM compiler GCC version 9.2.1 20190827 (Red Hat 9.2.1-1)
REM options -cpp -mtune=generic -march=x86-64 -g -O0 -fpre-include=/usr/include/finclude/math-vector-fortran.h
REM seed -1899444908 1187628457 158366530 -1557244043 -1366827460 657802343 1981089871 256732627 -1893033304 -1235002588 -1048293022 -789298624 1958144648 38010137 343780966 -717775095 751604218 -1266581321 -1409450121 1875215766 584158282 -1380022481 -1397386818 -1206080485 -1683948428 -1939917823 1904838356 1232541211 804169325 736065310 -1430948655 1435653219 1856299247
REM
CELL 1.54180   50.00000   50.00000   50.00000   90.00000   90.00000   90.00000
LATT -1
SFAC C  
C      1  0.4616560000000  0.5804240000000  0.4500650000000 1.0
C      1  0.4086790000000  0.4701140000000  0.5541350000000 1.0
C      1  0.5378340000000  0.4220850000000  0.4505640000000 1.0
C      1  0.5951350000000  0.5287360000000  0.5548210000000 1.0
C      1  0.5252190000000  0.4779990000000  0.5409580000000 1.0
C      1  0.5218130000000  0.5286890000000  0.4627410000000 1.0
C      1  0.4739260000000  0.5219560000000  0.5393210000000 1.0
C      1  0.4736650000000  0.4744430000000  0.4533520000000 1.0
C      1  0.5105390000000  0.3872320000000  0.5228330000000 1.0
C      1  0.6090960000000  0.5078200000000  0.4736670000000 1.0
C      1  0.4903720000000  0.6143610000000  0.5236940000000 1.0
C      1  0.3899010000000  0.4901200000000  0.4735870000000 1.0
C      1  0.3932550000000  0.4477950000000  0.5604420000000 1.0
C      1  0.5601500000000  0.4392340000000  0.4577740000000 1.0
C      1  0.6115450000000  0.5501860000000  0.5615330000000 1.0
C      1  0.4426960000000  0.5585590000000  0.4596390000000 1.0
C      1  0.4263280000000  0.4621430000000  0.4381970000000 1.0
C      1  0.5352680000000  0.4250870000000  0.5612930000000 1.0
C      1  0.5723430000000  0.5382250000000  0.4399020000000 1.0
C      1  0.4647930000000  0.5761940000000  0.5593410000000 1.0
C      1  0.4509030000000  0.4734250000000  0.5792610000000 1.0
C      1  0.5269120000000  0.4585400000000  0.4236490000000 1.0
C      1  0.5496090000000  0.5266560000000  0.5725200000000 1.0
C      1  0.4724890000000  0.5433940000000  0.4227610000000 1.0
C      1  0.3770930000000  0.4282430000000  0.5524140000000 1.0
C      1  0.5860430000000  0.4436590000000  0.4703270000000 1.0
C      1  0.6267370000000  0.5702960000000  0.5529620000000 1.0
C      1  0.4148290000000  0.5537850000000  0.4680190000000 1.0
C      1  0.4582690000000  0.5242790000000  0.4069400000000 1.0
C      1  0.4716280000000  0.4587660000000  0.5944440000000 1.0
C      1  0.5412110000000  0.4770430000000  0.4074990000000 1.0
C      1  0.5273560000000  0.5390340000000  0.5862100000000 1.0
C      1  0.4524150000000  0.3916080000000  0.5680890000000 1.0
C      1  0.6142540000000  0.4644220000000  0.4173190000000 1.0
C      1  0.5482850000000  0.6063560000000  0.5641520000000 1.0
C      1  0.3849710000000  0.5366460000000  0.4156190000000 1.0
C      1  0.4488240000000  0.4063190000000  0.4833150000000 1.0
C      1  0.5797030000000  0.4480440000000  0.5162100000000 1.0
C      1  0.5514350000000  0.5947700000000  0.4836660000000 1.0
C      1  0.4195310000000  0.5487070000000  0.5145700000000 1.0
C      1  0.6108550000000  0.4908400000000  0.5277110000000 1.0
C      1  0.4990590000000  0.6126790000000  0.4692780000000 1.0
C      1  0.3899670000000  0.5063170000000  0.5267460000000 1.0
C      1  0.5017480000000  0.3905270000000  0.4699410000000 1.0
C      1  0.4694410000000  0.4333810000000  0.4176850000000 1.0
C      1  0.5644850000000  0.4652160000000  0.5830580000000 1.0
C      1  0.5306620000000  0.5681600000000  0.4181150000000 1.0
C      1  0.4333910000000  0.5360530000000  0.5823510000000 1.0
C      1  0.5410830000000  0.5181160000000  0.4787260000000 1.0
C      1  0.4859330000000  0.5398570000000  0.5214310000000 1.0
C      1  0.4718810000000  0.4935820000000  0.4960640000000 1.0
C      1  0.5148200000000  0.4606710000000  0.5221120000000 1.0
C      1  0.5641110000000  0.4261560000000  0.5093080000000 1.0
C      1  0.5781060000000  0.5924050000000  0.4910610000000 1.0
C      1  0.4411670000000  0.5659600000000  0.5081340000000 1.0
C      1  0.4219710000000  0.4071830000000  0.4902690000000 1.0
C      1  0.5535410000000  0.5313500000000  0.5011490000000 1.0
C      1  0.4678280000000  0.5538740000000  0.4997050000000 1.0
C      1  0.4542800000000  0.4754850000000  0.5103140000000 1.0
C      1  0.5244760000000  0.4546170000000  0.4952420000000 1.0
C      1  0.4138520000000  0.5480320000000  0.5420100000000 1.0
C      1  0.4558210000000  0.4109280000000  0.4559700000000 1.0
C      1  0.5828970000000  0.4516490000000  0.5434020000000 1.0
C      1  0.5447670000000  0.5909760000000  0.4560630000000 1.0
C      1  0.5434390000000  0.5216080000000  0.5449600000000 1.0
C      1  0.4786840000000  0.5315200000000  0.4481860000000 1.0
C      1  0.4649860000000  0.4784590000000  0.5549560000000 1.0
C      1  0.5195730000000  0.4709430000000  0.4483090000000 1.0
C      1  0.4165310000000  0.5135000000000  0.5736650000000 1.0
C      1  0.4934840000000  0.4195890000000  0.4274610000000 1.0
C      1  0.5824820000000  0.4864810000000  0.5740100000000 1.0
C      1  0.5066780000000  0.5830190000000  0.4269490000000 1.0
C      1  0.4084890000000  0.5257180000000  0.4182430000000 1.0
C      1  0.4679850000000  0.4113560000000  0.5749150000000 1.0
C      1  0.5907490000000  0.4754910000000  0.4194100000000 1.0
C      1  0.5317440000000  0.5867730000000  0.5688410000000 1.0
C      1  0.4657790000000  0.4626370000000  0.5320950000000 1.0
C      1  0.5336750000000  0.4689640000000  0.4725570000000 1.0
C      1  0.5374360000000  0.5381860000000  0.5234630000000 1.0
C      1  0.4626370000000  0.5385480000000  0.4725840000000 1.0
C      1  0.5042380000000  0.5264920000000  0.5999490000000 1.0
C      1  0.4724470000000  0.5016990000000  0.3945990000000 1.0
C      1  0.4956960000000  0.4724070000000  0.6054510000000 1.0
C      1  0.5269020000000  0.4995260000000  0.3951730000000 1.0
C      1  0.3948740000000  0.4414100000000  0.4700750000000 1.0
C      1  0.5577930000000  0.3871490000000  0.5313370000000 1.0
C      1  0.6048770000000  0.5572110000000  0.4717870000000 1.0
C      1  0.4436350000000  0.6086910000000  0.5278710000000 1.0
C      1  0.3969500000000  0.4194370000000  0.4873330000000 1.0
C      1  0.5723530000000  0.3990080000000  0.5102260000000 1.0
C      1  0.6029170000000  0.5796140000000  0.4885420000000 1.0
C      1  0.4324210000000  0.5934200000000  0.5073520000000 1.0
C      1  0.5323640000000  0.3982950000000  0.5400510000000 1.0
C      1  0.5952270000000  0.5325520000000  0.4602370000000 1.0
C      1  0.4687020000000  0.6005130000000  0.5400740000000 1.0
C      1  0.4038780000000  0.4665640000000  0.4592250000000 1.0
C      1  0.5130590000000  0.4345130000000  0.5803270000000 1.0
C      1  0.5636570000000  0.5181440000000  0.4202470000000 1.0
C      1  0.4864970000000  0.5648900000000  0.5761960000000 1.0
C      1  0.4351220000000  0.4827880000000  0.4188210000000 1.0
C      1  0.4294980000000  0.5082820000000  0.4902960000000 1.0
C      1  0.4869480000000  0.4281490000000  0.5056490000000 1.0
C      1  0.5706220000000  0.4886340000000  0.4945540000000 1.0
C      1  0.5118720000000  0.5739800000000  0.5050570000000 1.0
C      1  0.6144250000000  0.4831620000000  0.4980390000000 1.0
C      1  0.5079340000000  0.6174370000000  0.4984880000000 1.0
C      1  0.3856120000000  0.5131840000000  0.4967510000000 1.0
C      1  0.4927810000000  0.3851020000000  0.4985790000000 1.0
C      1  0.3763720000000  0.4125760000000  0.5049710000000 1.0
C      1  0.5931620000000  0.3969870000000  0.4907650000000 1.0
C      1  0.6237330000000  0.5867520000000  0.5057860000000 1.0
C      1  0.4109390000000  0.5977380000000  0.4893730000000 1.0
C      1  0.5322880000000  0.5494430000000  0.3975910000000 1.0
C      1  0.4544020000000  0.5357930000000  0.6007550000000 1.0
C      1  0.4674210000000  0.4517880000000  0.3968900000000 1.0
C      1  0.5454030000000  0.4647760000000  0.6033440000000 1.0
C      1  0.5184250000000  0.5552840000000  0.4644600000000 1.0
C      1  0.4469280000000  0.5211510000000  0.5368490000000 1.0
C      1  0.4620540000000  0.4575680000000  0.4693450000000 1.0
C      1  0.5468890000000  0.4944700000000  0.5374360000000 1.0
C      1  0.5288810000000  0.5965040000000  0.5010090000000 1.0
C      1  0.4102890000000  0.5315250000000  0.4907780000000 1.0
C      1  0.4711170000000  0.4050180000000  0.5010420000000 1.0
C      1  0.5892620000000  0.4653110000000  0.4931760000000 1.0
C      1  0.5083530000000  0.4908020000000  0.5591050000000 1.0
C      1  0.5007400000000  0.5149550000000  0.4509210000000 1.0
C      1  0.4830990000000  0.5001050000000  0.5542900000000 1.0
C      1  0.4973750000000  0.4875140000000  0.4481800000000 1.0
C      1  0.5772720000000  0.5154070000000  0.5737630000000 1.0
C      1  0.4789090000000  0.5720300000000  0.4270940000000 1.0
C      1  0.4238610000000  0.4848190000000  0.5742340000000 1.0
C      1  0.5209750000000  0.4303290000000  0.4277340000000 1.0
C      1  0.4272830000000  0.4844600000000  0.5081030000000 1.0
C      1  0.5115620000000  0.4300640000000  0.4898520000000 1.0
C      1  0.5765180000000  0.5148170000000  0.5081880000000 1.0
C      1  0.4858920000000  0.5761860000000  0.4920080000000 1.0
C      1  0.3998370000000  0.5233480000000  0.5498260000000 1.0
C      1  0.4832790000000  0.4012650000000  0.4490380000000 1.0
C      1  0.5983520000000  0.4753250000000  0.5505280000000 1.0
C      1  0.5174670000000  0.6016010000000  0.4485550000000 1.0
C      1  0.4556630000000  0.5120980000000  0.4825050000000 1.0
C      1  0.4886570000000  0.4479150000000  0.5256860000000 1.0
C      1  0.5489150000000  0.4912500000000  0.4778350000000 1.0
C      1  0.5127790000000  0.5505240000000  0.5202880000000 1.0
C      1  0.5222890000000  0.4110780000000  0.4716660000000 1.0
C      1  0.5963140000000  0.5163930000000  0.5287610000000 1.0
C      1  0.4769950000000  0.5934770000000  0.4708780000000 1.0
C      1  0.4071350000000  0.4825050000000  0.5281350000000 1.0
C      1  0.5416490000000  0.5235700000000  0.4012280000000 1.0
C      1  0.4807970000000  0.5431130000000  0.5953880000000 1.0
C      1  0.4574440000000  0.4775740000000  0.3999560000000 1.0
C      1  0.5191070000000  0.4561160000000  0.5998060000000 1.0
C      1  0.5615460000000  0.4436410000000  0.5623870000000 1.0
C      1  0.5530920000000  0.5677760000000  0.4383770000000 1.0
C      1  0.4349210000000  0.5576350000000  0.5615900000000 1.0
C      1  0.4465820000000  0.4329030000000  0.4371790000000 1.0
C      1  0.6323710000000  0.5841320000000  0.5308700000000 1.0
C      1  0.4009820000000  0.5785660000000  0.4725860000000 1.0
C      1  0.3693510000000  0.4150240000000  0.5305860000000 1.0
C      1  0.6002560000000  0.4185080000000  0.4749740000000 1.0
C      1  0.5160050000000  0.5648640000000  0.5755970000000 1.0
C      1  0.4326990000000  0.5121530000000  0.4168550000000 1.0
C      1  0.4833740000000  0.4333550000000  0.5821880000000 1.0
C      1  0.5665570000000  0.4889890000000  0.4176860000000 1.0
C      1  0.5000540000000  0.5001430000000  0.6093330000000 1.0
C      1  0.4997530000000  0.5005810000000  0.3882320000000 1.0
C      1  0.4982290000000  0.4975510000000  0.4996820000000 1.0
END
