TITL C-3201379-3821-856 18466.569201177 125000 -914.350322511603 0 0 150 (C1) n - 1
REM
REM in /home/nfs/bkarasulu/CARBON/AIRSS/Generating-Clusters/LCBOP/Higher-Symm/SD-CG/FIRE-CG
REM
REM
REM
REM
REM
REM ./C.cell (b20cbc046b6831c77cfcea5457e17084)
REM AIRSS Version 0.9.1 bugfix July 2018 build 013d7b7c2542+ Fri, 06 Jul 2018 19:26:36 +0100
REM compiler GCC version 9.2.1 20190827 (Red Hat 9.2.1-1)
REM options -cpp -mtune=generic -march=x86-64 -g -O0 -fpre-include=/usr/include/finclude/math-vector-fortran.h
REM seed 387862780 1992187491 1601077897 1636253526 1592524218 -1971352945 -1268085235 1935902094 -1387647327 376380852 -2109252942 2004663289 1572609289 2040597377 -609905563 -1376577951 695153898 2129544726 -1033719176 1615489310 396281092 1965311077 296483638 109710324 -985245118 -835904886 203761727 -130766658 728794015 2006543924 1380447026 653921982 18835728
REM
CELL 1.54180   50.00000   50.00000   50.00000   90.00000   90.00000   90.00000
LATT -1
SFAC C  
C      1  0.5059070000000  0.4758140000000  0.4815960000000 1.0
C      1  0.5175720000000  0.4797350000000  0.5068670000000 1.0
C      1  0.4728970000000  0.4758640000000  0.5103760000000 1.0
C      1  0.4239710000000  0.5576730000000  0.4588110000000 1.0
C      1  0.5710030000000  0.5543380000000  0.4561130000000 1.0
C      1  0.5034870000000  0.5535130000000  0.5806150000000 1.0
C      1  0.3957640000000  0.4483180000000  0.5629900000000 1.0
C      1  0.4989850000000  0.4478500000000  0.3778360000000 1.0
C      1  0.6075340000000  0.4454670000000  0.5596010000000 1.0
C      1  0.6030770000000  0.5401810000000  0.5517760000000 1.0
C      1  0.4047230000000  0.5388250000000  0.5625370000000 1.0
C      1  0.4950410000000  0.5385950000000  0.3875430000000 1.0
C      1  0.4709430000000  0.5036570000000  0.5873390000000 1.0
C      1  0.4406950000000  0.5057950000000  0.4300370000000 1.0
C      1  0.5896840000000  0.5037260000000  0.4836990000000 1.0
C      1  0.5503510000000  0.5459850000000  0.5236650000000 1.0
C      1  0.4537690000000  0.5434920000000  0.5320470000000 1.0
C      1  0.4948300000000  0.5472170000000  0.4468390000000 1.0
C      1  0.5643440000000  0.4216020000000  0.5558570000000 1.0
C      1  0.4205930000000  0.4245200000000  0.5275890000000 1.0
C      1  0.5167370000000  0.4229530000000  0.4167360000000 1.0
C      1  0.4080690000000  0.4741410000000  0.4324960000000 1.0
C      1  0.6035910000000  0.4728940000000  0.4532480000000 1.0
C      1  0.4924560000000  0.4739440000000  0.6139710000000 1.0
C      1  0.5904700000000  0.4274790000000  0.5423500000000 1.0
C      1  0.4187840000000  0.4297220000000  0.5570510000000 1.0
C      1  0.4922240000000  0.4292170000000  0.4006220000000 1.0
C      1  0.5700770000000  0.4242460000000  0.4978650000000 1.0
C      1  0.4671830000000  0.4240740000000  0.5626370000000 1.0
C      1  0.4633430000000  0.4247580000000  0.4399810000000 1.0
C      1  0.4801870000000  0.5239330000000  0.4062010000000 1.0
C      1  0.5947040000000  0.5242730000000  0.5301270000000 1.0
C      1  0.4273120000000  0.5232100000000  0.5687400000000 1.0
C      1  0.5144380000000  0.4176950000000  0.4449030000000 1.0
C      1  0.5408120000000  0.4173740000000  0.5398930000000 1.0
C      1  0.4459070000000  0.4188460000000  0.5153330000000 1.0
C      1  0.4499930000000  0.4186530000000  0.4858190000000 1.0
C      1  0.5375620000000  0.4173830000000  0.4634340000000 1.0
C      1  0.5133570000000  0.4178300000000  0.5507810000000 1.0
C      1  0.4685390000000  0.4358560000000  0.4148550000000 1.0
C      1  0.5891010000000  0.4351760000000  0.5150400000000 1.0
C      1  0.4426100000000  0.4341340000000  0.5719880000000 1.0
C      1  0.4874390000000  0.4995730000000  0.4464660000000 1.0
C      1  0.5555490000000  0.5007170000000  0.5177600000000 1.0
C      1  0.4609220000000  0.4989250000000  0.5452730000000 1.0
C      1  0.4153300000000  0.5808620000000  0.5020290000000 1.0
C      1  0.5390740000000  0.5784000000000  0.4271610000000 1.0
C      1  0.5436980000000  0.5793530000000  0.5683170000000 1.0
C      1  0.4707620000000  0.5585500000000  0.4915220000000 1.0
C      1  0.4981510000000  0.5610640000000  0.4914730000000 1.0
C      1  0.5082390000000  0.5631030000000  0.5169380000000 1.0
C      1  0.5689790000000  0.4314740000000  0.5826730000000 1.0
C      1  0.3957450000000  0.4356150000000  0.5177500000000 1.0
C      1  0.5379060000000  0.4334360000000  0.3999950000000 1.0
C      1  0.4071550000000  0.5325960000000  0.4190480000000 1.0
C      1  0.6148500000000  0.5311190000000  0.4594590000000 1.0
C      1  0.4807850000000  0.5325660000000  0.6193900000000 1.0
C      1  0.4255950000000  0.4785460000000  0.5901170000000 1.0
C      1  0.4629460000000  0.4804740000000  0.3921660000000 1.0
C      1  0.6120160000000  0.4790630000000  0.5219200000000 1.0
C      1  0.5463620000000  0.4132200000000  0.5109500000000 1.0
C      1  0.4676530000000  0.4140080000000  0.5350080000000 1.0
C      1  0.4864740000000  0.4137740000000  0.4541360000000 1.0
C      1  0.5183440000000  0.3787510000000  0.4914080000000 1.0
C      1  0.4984320000000  0.3789660000000  0.5211940000000 1.0
C      1  0.4827250000000  0.3790880000000  0.4876800000000 1.0
C      1  0.4376810000000  0.4861940000000  0.4764370000000 1.0
C      1  0.5490500000000  0.4835160000000  0.4587990000000 1.0
C      1  0.5108720000000  0.4830260000000  0.5585150000000 1.0
C      1  0.4605340000000  0.5674440000000  0.5477770000000 1.0
C      1  0.4757590000000  0.5692050000000  0.4421810000000 1.0
C      1  0.5622390000000  0.5679150000000  0.5083600000000 1.0
C      1  0.5491880000000  0.6010830000000  0.5501780000000 1.0
C      1  0.4293480000000  0.6005390000000  0.5176170000000 1.0
C      1  0.5189050000000  0.5986210000000  0.4310440000000 1.0
C      1  0.5665510000000  0.5238300000000  0.5277390000000 1.0
C      1  0.4453910000000  0.5216480000000  0.5469880000000 1.0
C      1  0.4907880000000  0.5235830000000  0.4325580000000 1.0
C      1  0.4450330000000  0.4611240000000  0.5784350000000 1.0
C      1  0.4652930000000  0.4634510000000  0.4150180000000 1.0
C      1  0.5900280000000  0.4628470000000  0.5133830000000 1.0
C      1  0.4876240000000  0.4972500000000  0.4741790000000 1.0
C      1  0.5332310000000  0.5037090000000  0.5013760000000 1.0
C      1  0.4820650000000  0.4980570000000  0.5270390000000 1.0
C      1  0.5933290000000  0.4446390000000  0.5848690000000 1.0
C      1  0.3816680000000  0.4488070000000  0.5376860000000 1.0
C      1  0.5279680000000  0.4472120000000  0.3780350000000 1.0
C      1  0.5654890000000  0.4314290000000  0.4689180000000 1.0
C      1  0.4949940000000  0.4317630000000  0.5726540000000 1.0
C      1  0.4406420000000  0.4324940000000  0.4585430000000 1.0
C      1  0.6098510000000  0.5015020000000  0.4624150000000 1.0
C      1  0.4810760000000  0.5026290000000  0.6149010000000 1.0
C      1  0.4125380000000  0.5029740000000  0.4224830000000 1.0
C      1  0.4525220000000  0.5652300000000  0.4249380000000 1.0
C      1  0.5885430000000  0.5642500000000  0.4961570000000 1.0
C      1  0.4601030000000  0.5646420000000  0.5771650000000 1.0
C      1  0.5439830000000  0.5903260000000  0.5020140000000 1.0
C      1  0.4743350000000  0.5898680000000  0.5332790000000 1.0
C      1  0.4800340000000  0.5926800000000  0.4605960000000 1.0
C      1  0.4792010000000  0.5528520000000  0.5962190000000 1.0
C      1  0.4256110000000  0.5547620000000  0.4300150000000 1.0
C      1  0.5960710000000  0.5526810000000  0.4704140000000 1.0
C      1  0.5315970000000  0.6014510000000  0.5267210000000 1.0
C      1  0.4582030000000  0.6016090000000  0.5111050000000 1.0
C      1  0.5091690000000  0.6000850000000  0.4591670000000 1.0
C      1  0.5351550000000  0.5912960000000  0.4742320000000 1.0
C      1  0.5051180000000  0.5863790000000  0.5353550000000 1.0
C      1  0.4574930000000  0.5972100000000  0.4798010000000 1.0
C      1  0.5032920000000  0.5183230000000  0.5291490000000 1.0
C      1  0.4705470000000  0.5148550000000  0.4890950000000 1.0
C      1  0.5259020000000  0.5238720000000  0.4821130000000 1.0
C      1  0.5595700000000  0.5561280000000  0.5753430000000 1.0
C      1  0.4038650000000  0.5564900000000  0.5125630000000 1.0
C      1  0.5374900000000  0.5548150000000  0.4108600000000 1.0
C      1  0.5445730000000  0.5318330000000  0.5805420000000 1.0
C      1  0.4068820000000  0.5336350000000  0.4954760000000 1.0
C      1  0.5493320000000  0.5311140000000  0.4220170000000 1.0
C      1  0.4987920000000  0.5049380000000  0.5730530000000 1.0
C      1  0.4364580000000  0.5092800000000  0.4598600000000 1.0
C      1  0.5651410000000  0.5060360000000  0.4654610000000 1.0
C      1  0.4202000000000  0.4520100000000  0.4463900000000 1.0
C      1  0.5857830000000  0.4507680000000  0.4570180000000 1.0
C      1  0.4965600000000  0.4515660000000  0.5961660000000 1.0
C      1  0.4604380000000  0.5368570000000  0.5049450000000 1.0
C      1  0.5100730000000  0.5452040000000  0.4713940000000 1.0
C      1  0.5217660000000  0.5407670000000  0.5264920000000 1.0
C      1  0.4575520000000  0.4747320000000  0.5577710000000 1.0
C      1  0.4805460000000  0.4758540000000  0.4344960000000 1.0
C      1  0.5658540000000  0.4753310000000  0.5188250000000 1.0
C      1  0.6044420000000  0.5051570000000  0.5108660000000 1.0
C      1  0.4392210000000  0.5048240000000  0.5878670000000 1.0
C      1  0.4578610000000  0.5063620000000  0.4049860000000 1.0
C      1  0.4806050000000  0.4693280000000  0.3724160000000 1.0
C      1  0.6212000000000  0.4671330000000  0.5464130000000 1.0
C      1  0.3997580000000  0.4687080000000  0.5827640000000 1.0
C      1  0.5144000000000  0.5749040000000  0.5649320000000 1.0
C      1  0.4304140000000  0.5805410000000  0.4758840000000 1.0
C      1  0.5522270000000  0.5761290000000  0.4537000000000 1.0
C      1  0.4510440000000  0.4722670000000  0.4949690000000 1.0
C      1  0.5258920000000  0.4701340000000  0.4621000000000 1.0
C      1  0.5165110000000  0.4719150000000  0.5342710000000 1.0
C      1  0.5164420000000  0.5280650000000  0.5786950000000 1.0
C      1  0.4218320000000  0.5320120000000  0.4714690000000 1.0
C      1  0.5620060000000  0.5287900000000  0.4472010000000 1.0
C      1  0.3975170000000  0.5519380000000  0.5398750000000 1.0
C      1  0.5184870000000  0.5516110000000  0.3903190000000 1.0
C      1  0.5871790000000  0.5534380000000  0.5693720000000 1.0
C      1  0.4939980000000  0.4026110000000  0.5338490000000 1.0
C      1  0.4740000000000  0.4027630000000  0.4775650000000 1.0
C      1  0.5323170000000  0.4019480000000  0.4885220000000 1.0
END
