TITL C-3201377-4638-1282 0.0137973117873239 125000 -491.678409391417 0 0 81 (C1) n - 1
REM
REM in /home/nfs/bkarasulu/CARBON/AIRSS/Generating-Clusters/LCBOP/Higher-Symm/SD-CG/FIRE-CG
REM
REM
REM
REM
REM
REM ./C.cell (b20cbc046b6831c77cfcea5457e17084)
REM AIRSS Version 0.9.1 bugfix July 2018 build 013d7b7c2542+ Fri, 06 Jul 2018 19:26:36 +0100
REM compiler GCC version 9.2.1 20190827 (Red Hat 9.2.1-1)
REM options -cpp -mtune=generic -march=x86-64 -g -O0 -fpre-include=/usr/include/finclude/math-vector-fortran.h
REM seed 1936816636 568660164 688462371 135190734 -1587477329 -1857994225 -547881223 -731435302 1777532212 381290202 154016350 721260269 -761929344 -1890099851 -1155055845 395487520 -2024305251 1613596923 -794632664 708346818 -1837106356 -75761499 1728406135 1187717670 -1448956596 733753530 -911225294 1983422826 982627927 -16377671 -215571829 -2109873077 -2039107164
REM
CELL 1.54180   50.00000   50.00000   50.00000   90.00000   90.00000   90.00000
LATT -1
SFAC C  
C      1  0.5755100000000  0.4457440000000  0.5729410000000 1.0
C      1  0.5820930000000  0.5529520000000  0.5662500000000 1.0
C      1  0.4293450000000  0.5549240000000  0.5752940000000 1.0
C      1  0.4193460000000  0.4476590000000  0.5663760000000 1.0
C      1  0.5630910000000  0.5539270000000  0.4687790000000 1.0
C      1  0.4435620000000  0.5659830000000  0.4723870000000 1.0
C      1  0.4371310000000  0.4456480000000  0.4684760000000 1.0
C      1  0.5549970000000  0.4350820000000  0.4715110000000 1.0
C      1  0.5266230000000  0.4356370000000  0.4604720000000 1.0
C      1  0.5635380000000  0.5260120000000  0.4585780000000 1.0
C      1  0.4715630000000  0.5653390000000  0.4623210000000 1.0
C      1  0.4403770000000  0.4733700000000  0.4589660000000 1.0
C      1  0.5450700000000  0.5324440000000  0.5463190000000 1.0
C      1  0.4507250000000  0.5262580000000  0.5472230000000 1.0
C      1  0.4574730000000  0.4672940000000  0.5473470000000 1.0
C      1  0.5435190000000  0.4701020000000  0.5509400000000 1.0
C      1  0.4368140000000  0.5531540000000  0.5474780000000 1.0
C      1  0.4353490000000  0.4466090000000  0.5427110000000 1.0
C      1  0.5605380000000  0.4448400000000  0.5482010000000 1.0
C      1  0.5657060000000  0.5549280000000  0.5428910000000 1.0
C      1  0.5263830000000  0.4144450000000  0.5018160000000 1.0
C      1  0.5893390000000  0.5275390000000  0.4966000000000 1.0
C      1  0.4722720000000  0.5834180000000  0.5046930000000 1.0
C      1  0.4109770000000  0.4737260000000  0.4942220000000 1.0
C      1  0.4875610000000  0.5233120000000  0.4312860000000 1.0
C      1  0.4824690000000  0.4874390000000  0.4313090000000 1.0
C      1  0.5118010000000  0.4806190000000  0.4327690000000 1.0
C      1  0.5218520000000  0.5082990000000  0.4305040000000 1.0
C      1  0.5077340000000  0.4231940000000  0.4808340000000 1.0
C      1  0.5786140000000  0.5077940000000  0.4775700000000 1.0
C      1  0.4909720000000  0.5760370000000  0.4831040000000 1.0
C      1  0.4230030000000  0.4925520000000  0.4747200000000 1.0
C      1  0.4489170000000  0.4837930000000  0.5706450000000 1.0
C      1  0.5529340000000  0.4872670000000  0.5724430000000 1.0
C      1  0.5540300000000  0.5152300000000  0.5689170000000 1.0
C      1  0.4485930000000  0.5118640000000  0.5720830000000 1.0
C      1  0.4865230000000  0.4836620000000  0.5072940000000 1.0
C      1  0.5181250000000  0.4873980000000  0.5086620000000 1.0
C      1  0.5243660000000  0.5166000000000  0.5036660000000 1.0
C      1  0.4717920000000  0.5119960000000  0.5062350000000 1.0
C      1  0.4303640000000  0.5572000000000  0.5189910000000 1.0
C      1  0.4388140000000  0.4369450000000  0.5159540000000 1.0
C      1  0.5656600000000  0.4420810000000  0.5192530000000 1.0
C      1  0.5617210000000  0.5653990000000  0.5162860000000 1.0
C      1  0.4598960000000  0.4093700000000  0.4440480000000 1.0
C      1  0.5896480000000  0.4558700000000  0.4428840000000 1.0
C      1  0.5366950000000  0.5860360000000  0.4421680000000 1.0
C      1  0.4112290000000  0.5474450000000  0.4397130000000 1.0
C      1  0.4673670000000  0.4780760000000  0.4532840000000 1.0
C      1  0.5214310000000  0.4634100000000  0.4543200000000 1.0
C      1  0.5375920000000  0.5179830000000  0.4515860000000 1.0
C      1  0.4766230000000  0.5390070000000  0.4530400000000 1.0
C      1  0.5397270000000  0.5710350000000  0.4648590000000 1.0
C      1  0.4253460000000  0.5449850000000  0.4629930000000 1.0
C      1  0.4588790000000  0.4268450000000  0.4650040000000 1.0
C      1  0.5736680000000  0.4567700000000  0.4650700000000 1.0
C      1  0.5276650000000  0.5363100000000  0.5230920000000 1.0
C      1  0.4492840000000  0.5163320000000  0.5211310000000 1.0
C      1  0.4755340000000  0.4629000000000  0.5247810000000 1.0
C      1  0.5415350000000  0.4799160000000  0.5247160000000 1.0
C      1  0.5743570000000  0.4792530000000  0.4838370000000 1.0
C      1  0.5199700000000  0.5716120000000  0.4864840000000 1.0
C      1  0.4230220000000  0.5216560000000  0.4801820000000 1.0
C      1  0.4793230000000  0.4277990000000  0.4856910000000 1.0
C      1  0.5220500000000  0.5175550000000  0.4751250000000 1.0
C      1  0.4768790000000  0.5233900000000  0.4783840000000 1.0
C      1  0.4841110000000  0.4799130000000  0.4767650000000 1.0
C      1  0.5266340000000  0.4748710000000  0.4807440000000 1.0
C      1  0.5647350000000  0.4706950000000  0.5095970000000 1.0
C      1  0.5321840000000  0.5627950000000  0.5112020000000 1.0
C      1  0.4278240000000  0.5295630000000  0.5072970000000 1.0
C      1  0.4682930000000  0.4381970000000  0.5103380000000 1.0
C      1  0.5769010000000  0.5540510000000  0.4947740000000 1.0
C      1  0.4447040000000  0.5742450000000  0.5009320000000 1.0
C      1  0.4232560000000  0.4471620000000  0.4942980000000 1.0
C      1  0.5534340000000  0.4250490000000  0.4996440000000 1.0
C      1  0.5750910000000  0.5309990000000  0.5814870000000 1.0
C      1  0.4361180000000  0.5317500000000  0.5893340000000 1.0
C      1  0.4276800000000  0.4681360000000  0.5829370000000 1.0
C      1  0.5711910000000  0.4695670000000  0.5867160000000 1.0
C      1  0.4974980000000  0.5052220000000  0.4706150000000 1.0
END
