TITL C-3201374-830-247 -3.17711979988509e-07 125000 -1259.43761994451 0 0 198 (C1) n - 1
REM
REM in /home/nfs/bkarasulu/CARBON/AIRSS/Generating-Clusters/LCBOP/Higher-Symm/SD-CG/FIRE-CG
REM
REM
REM
REM
REM
REM ./C.cell (b20cbc046b6831c77cfcea5457e17084)
REM AIRSS Version 0.9.1 bugfix July 2018 build 013d7b7c2542+ Fri, 06 Jul 2018 19:26:36 +0100
REM compiler GCC version 9.2.1 20190827 (Red Hat 9.2.1-1)
REM options -cpp -mtune=generic -march=x86-64 -g -O0 -fpre-include=/usr/include/finclude/math-vector-fortran.h
REM seed -1531310702 -131770618 189138139 -1223768044 78160361 -1999982573 521299568 1080809258 831930971 -389011010 175560848 -42949128 -867909954 2066650788 -587506824 -544761420 -418104027 -205574371 1438825453 -1863033718 1200404129 1431347458 1022365800 887606106 -1264650119 -1802112317 -883012965 -42388810 -570244573 -2029477042 -533677736 1707449968 380708758
REM
CELL 1.54180   50.00000   50.00000   50.00000   90.00000   90.00000   90.00000
LATT -1
SFAC C  
C      1  0.5548800000000  0.6010800000000  0.5788070000000 1.0
C      1  0.5492910000000  0.4521080000000  0.6231070000000 1.0
C      1  0.5551920000000  0.3714280000000  0.4956550000000 1.0
C      1  0.5526980000000  0.4653950000000  0.3764660000000 1.0
C      1  0.5493480000000  0.6119210000000  0.4253780000000 1.0
C      1  0.3944010000000  0.4631790000000  0.4398000000000 1.0
C      1  0.3958770000000  0.5460760000000  0.4467190000000 1.0
C      1  0.3953740000000  0.5658270000000  0.5278290000000 1.0
C      1  0.3936920000000  0.4947460000000  0.5711260000000 1.0
C      1  0.3943830000000  0.4316050000000  0.5164000000000 1.0
C      1  0.5325260000000  0.5216120000000  0.5888190000000 1.0
C      1  0.5279730000000  0.4245740000000  0.5489080000000 1.0
C      1  0.5324630000000  0.4336360000000  0.4452600000000 1.0
C      1  0.5301390000000  0.5346050000000  0.4152230000000 1.0
C      1  0.5317940000000  0.5853030000000  0.5030120000000 1.0
C      1  0.4902540000000  0.6157750000000  0.6110980000000 1.0
C      1  0.4831870000000  0.4311860000000  0.6472850000000 1.0
C      1  0.4895760000000  0.3426270000000  0.4788040000000 1.0
C      1  0.4874090000000  0.4697160000000  0.3421570000000 1.0
C      1  0.4829800000000  0.6422940000000  0.4252870000000 1.0
C      1  0.5683150000000  0.5648110000000  0.4193390000000 1.0
C      1  0.5716160000000  0.5924020000000  0.5308770000000 1.0
C      1  0.5707010000000  0.4930580000000  0.6012110000000 1.0
C      1  0.5706890000000  0.4063650000000  0.5296210000000 1.0
C      1  0.5728270000000  0.4482640000000  0.4204360000000 1.0
C      1  0.4835520000000  0.4985880000000  0.6350660000000 1.0
C      1  0.4845730000000  0.3737380000000  0.5383090000000 1.0
C      1  0.4853040000000  0.4220800000000  0.3905570000000 1.0
C      1  0.4812910000000  0.5806130000000  0.3940320000000 1.0
C      1  0.4848400000000  0.6229980000000  0.5440000000000 1.0
C      1  0.4462350000000  0.5058910000000  0.5523680000000 1.0
C      1  0.4461580000000  0.4537730000000  0.5196630000000 1.0
C      1  0.4469200000000  0.4661280000000  0.4607710000000 1.0
C      1  0.4476350000000  0.5242780000000  0.4581570000000 1.0
C      1  0.4474850000000  0.5493180000000  0.5130340000000 1.0
C      1  0.5008590000000  0.3641350000000  0.5196580000000 1.0
C      1  0.5000610000000  0.4371780000000  0.3744800000000 1.0
C      1  0.4947250000000  0.6013970000000  0.4036480000000 1.0
C      1  0.5008280000000  0.6213980000000  0.5651120000000 1.0
C      1  0.4969620000000  0.4761660000000  0.6396990000000 1.0
C      1  0.4812090000000  0.4398210000000  0.5528530000000 1.0
C      1  0.4840860000000  0.4294780000000  0.4591250000000 1.0
C      1  0.4838260000000  0.5190830000000  0.4225440000000 1.0
C      1  0.4838400000000  0.5783750000000  0.4910920000000 1.0
C      1  0.4861550000000  0.5312360000000  0.5747990000000 1.0
C      1  0.5904340000000  0.5463700000000  0.4182390000000 1.0
C      1  0.5923210000000  0.5854300000000  0.5117040000000 1.0
C      1  0.5913600000000  0.5065940000000  0.5852390000000 1.0
C      1  0.5892530000000  0.4226030000000  0.5444650000000 1.0
C      1  0.5926380000000  0.4453540000000  0.4417300000000 1.0
C      1  0.6038910000000  0.5466150000000  0.5365770000000 1.0
C      1  0.5932600000000  0.4700230000000  0.5508660000000 1.0
C      1  0.5947210000000  0.4504180000000  0.5051800000000 1.0
C      1  0.5973650000000  0.4940850000000  0.4512440000000 1.0
C      1  0.5973680000000  0.5402540000000  0.4651000000000 1.0
C      1  0.4645710000000  0.4840470000000  0.5505590000000 1.0
C      1  0.4642820000000  0.4484190000000  0.4984680000000 1.0
C      1  0.4657530000000  0.4827600000000  0.4472630000000 1.0
C      1  0.4663810000000  0.5370230000000  0.4746410000000 1.0
C      1  0.4662960000000  0.5445210000000  0.5337810000000 1.0
C      1  0.5320960000000  0.5314880000000  0.5429000000000 1.0
C      1  0.5229610000000  0.4722770000000  0.5479090000000 1.0
C      1  0.5240500000000  0.4475130000000  0.4897240000000 1.0
C      1  0.5295100000000  0.5008130000000  0.4470290000000 1.0
C      1  0.5234770000000  0.5463090000000  0.4770140000000 1.0
C      1  0.4187890000000  0.3638450000000  0.4864750000000 1.0
C      1  0.4169320000000  0.4693780000000  0.3653800000000 1.0
C      1  0.4128970000000  0.6205220000000  0.4319610000000 1.0
C      1  0.4197180000000  0.6032330000000  0.5918850000000 1.0
C      1  0.4130460000000  0.4456720000000  0.6285290000000 1.0
C      1  0.3750830000000  0.4854900000000  0.4804890000000 1.0
C      1  0.3756400000000  0.5146690000000  0.4798990000000 1.0
C      1  0.3754960000000  0.5244130000000  0.5073800000000 1.0
C      1  0.3750780000000  0.5011940000000  0.5250620000000 1.0
C      1  0.3749930000000  0.4772170000000  0.5084700000000 1.0
C      1  0.5458310000000  0.5520500000000  0.4319680000000 1.0
C      1  0.5489120000000  0.5750290000000  0.5250640000000 1.0
C      1  0.5458890000000  0.4965560000000  0.5863640000000 1.0
C      1  0.5459650000000  0.4213830000000  0.5259060000000 1.0
C      1  0.5481750000000  0.4561950000000  0.4343650000000 1.0
C      1  0.4009590000000  0.4631260000000  0.6125790000000 1.0
C      1  0.4054060000000  0.3833550000000  0.4985430000000 1.0
C      1  0.4040730000000  0.4644190000000  0.3880810000000 1.0
C      1  0.4013630000000  0.5966510000000  0.4333740000000 1.0
C      1  0.4065380000000  0.5944800000000  0.5705480000000 1.0
C      1  0.4925090000000  0.5404330000000  0.5241590000000 1.0
C      1  0.4838270000000  0.4940510000000  0.5325050000000 1.0
C      1  0.4829700000000  0.4695220000000  0.4966620000000 1.0
C      1  0.4915900000000  0.4806720000000  0.4572250000000 1.0
C      1  0.4819700000000  0.5183160000000  0.4887080000000 1.0
C      1  0.5672190000000  0.6045700000000  0.4765300000000 1.0
C      1  0.5710440000000  0.5483330000000  0.5986310000000 1.0
C      1  0.5606210000000  0.4142590000000  0.5830550000000 1.0
C      1  0.5705020000000  0.4052030000000  0.4544050000000 1.0
C      1  0.5665300000000  0.5178930000000  0.3882030000000 1.0
C      1  0.4750220000000  0.6167540000000  0.5201210000000 1.0
C      1  0.4759330000000  0.5200500000000  0.6213860000000 1.0
C      1  0.4731870000000  0.3918190000000  0.5541390000000 1.0
C      1  0.4762830000000  0.4127900000000  0.4137630000000 1.0
C      1  0.4736290000000  0.5552780000000  0.3915010000000 1.0
C      1  0.5159120000000  0.4224830000000  0.5982840000000 1.0
C      1  0.5258630000000  0.3852500000000  0.4570960000000 1.0
C      1  0.5209650000000  0.5047810000000  0.3762360000000 1.0
C      1  0.5214300000000  0.6186180000000  0.4662770000000 1.0
C      1  0.5257600000000  0.5681970000000  0.6038380000000 1.0
C      1  0.4610860000000  0.5089850000000  0.4378360000000 1.0
C      1  0.4616070000000  0.5603680000000  0.4897640000000 1.0
C      1  0.4620480000000  0.5300940000000  0.5576950000000 1.0
C      1  0.4595920000000  0.4568480000000  0.5452250000000 1.0
C      1  0.4602410000000  0.4415310000000  0.4709860000000 1.0
C      1  0.4888910000000  0.4157980000000  0.5933300000000 1.0
C      1  0.4996970000000  0.3860010000000  0.4463920000000 1.0
C      1  0.4940970000000  0.5138050000000  0.3759970000000 1.0
C      1  0.4955930000000  0.6225470000000  0.4769100000000 1.0
C      1  0.4989960000000  0.5612170000000  0.6102020000000 1.0
C      1  0.4832780000000  0.5390970000000  0.6023610000000 1.0
C      1  0.4768020000000  0.4159120000000  0.5678180000000 1.0
C      1  0.4828190000000  0.4078270000000  0.4404380000000 1.0
C      1  0.4799410000000  0.5283860000000  0.3956560000000 1.0
C      1  0.4809390000000  0.6065250000000  0.4948390000000 1.0
C      1  0.4570400000000  0.4261400000000  0.6481860000000 1.0
C      1  0.4634980000000  0.3403180000000  0.4737780000000 1.0
C      1  0.4613020000000  0.4736330000000  0.3384890000000 1.0
C      1  0.4570650000000  0.6475060000000  0.4285140000000 1.0
C      1  0.4641440000000  0.6148790000000  0.6164640000000 1.0
C      1  0.4240380000000  0.5033470000000  0.5303540000000 1.0
C      1  0.4239900000000  0.4733660000000  0.5114070000000 1.0
C      1  0.4244160000000  0.4812580000000  0.4780760000000 1.0
C      1  0.4244970000000  0.5143480000000  0.4755350000000 1.0
C      1  0.4247350000000  0.5282480000000  0.5082960000000 1.0
C      1  0.5510170000000  0.4856020000000  0.4374180000000 1.0
C      1  0.5476850000000  0.5508130000000  0.4614100000000 1.0
C      1  0.5537810000000  0.5493020000000  0.5395270000000 1.0
C      1  0.5448320000000  0.4762100000000  0.5657840000000 1.0
C      1  0.5475040000000  0.4364280000000  0.5009770000000 1.0
C      1  0.5150790000000  0.5279920000000  0.5669890000000 1.0
C      1  0.5093130000000  0.4465140000000  0.5481680000000 1.0
C      1  0.5120300000000  0.4378930000000  0.4651830000000 1.0
C      1  0.5124870000000  0.5176950000000  0.4300700000000 1.0
C      1  0.5116720000000  0.5689640000000  0.4906660000000 1.0
C      1  0.3950110000000  0.4807580000000  0.5936440000000 1.0
C      1  0.3975130000000  0.4060770000000  0.5097950000000 1.0
C      1  0.3969180000000  0.4611840000000  0.4134460000000 1.0
C      1  0.3965080000000  0.5708420000000  0.4372180000000 1.0
C      1  0.3986690000000  0.5826700000000  0.5480980000000 1.0
C      1  0.5277540000000  0.4774680000000  0.3699430000000 1.0
C      1  0.5250860000000  0.6192340000000  0.4377940000000 1.0
C      1  0.5310460000000  0.5941170000000  0.5924790000000 1.0
C      1  0.5236300000000  0.4399860000000  0.6199710000000 1.0
C      1  0.5308850000000  0.3701670000000  0.4811330000000 1.0
C      1  0.5705750000000  0.4531850000000  0.3927380000000 1.0
C      1  0.5658570000000  0.5925780000000  0.4167410000000 1.0
C      1  0.5701150000000  0.6035550000000  0.5566780000000 1.0
C      1  0.5680220000000  0.4714430000000  0.6193440000000 1.0
C      1  0.5710430000000  0.3827450000000  0.5143360000000 1.0
C      1  0.3964890000000  0.4592830000000  0.5145040000000 1.0
C      1  0.3965120000000  0.4738530000000  0.4653490000000 1.0
C      1  0.3976520000000  0.5249910000000  0.4647540000000 1.0
C      1  0.3972260000000  0.5421920000000  0.5132860000000 1.0
C      1  0.3963850000000  0.5013470000000  0.5442460000000 1.0
C      1  0.5689400000000  0.4598560000000  0.5644460000000 1.0
C      1  0.5744360000000  0.4395460000000  0.4886470000000 1.0
C      1  0.5764120000000  0.4997850000000  0.4324540000000 1.0
C      1  0.5749120000000  0.5564810000000  0.4732730000000 1.0
C      1  0.5801560000000  0.5421430000000  0.5512550000000 1.0
C      1  0.5159760000000  0.4930010000000  0.4720040000000 1.0
C      1  0.5124860000000  0.5199000000000  0.4869380000000 1.0
C      1  0.5176170000000  0.5217620000000  0.5187130000000 1.0
C      1  0.5139450000000  0.4911720000000  0.5260610000000 1.0
C      1  0.5136740000000  0.4741300000000  0.4978480000000 1.0
C      1  0.6047910000000  0.4911420000000  0.5653510000000 1.0
C      1  0.5994760000000  0.4480050000000  0.5327000000000 1.0
C      1  0.6079420000000  0.4681280000000  0.4484700000000 1.0
C      1  0.6082170000000  0.5483220000000  0.4400190000000 1.0
C      1  0.6115060000000  0.5673170000000  0.5212170000000 1.0
C      1  0.5832370000000  0.4286870000000  0.4632880000000 1.0
C      1  0.5821850000000  0.5192960000000  0.4115180000000 1.0
C      1  0.5821110000000  0.5822450000000  0.4850290000000 1.0
C      1  0.5845040000000  0.5337980000000  0.5785250000000 1.0
C      1  0.5768900000000  0.4319750000000  0.5692860000000 1.0
C      1  0.5025230000000  0.4488280000000  0.6371820000000 1.0
C      1  0.5083550000000  0.3574980000000  0.4934550000000 1.0
C      1  0.5064370000000  0.4607530000000  0.3607500000000 1.0
C      1  0.5018640000000  0.6219620000000  0.4213480000000 1.0
C      1  0.5087020000000  0.6119130000000  0.5902860000000 1.0
C      1  0.4391550000000  0.6102040000000  0.6086170000000 1.0
C      1  0.4321090000000  0.4320690000000  0.6410770000000 1.0
C      1  0.4384400000000  0.3485670000000  0.4771740000000 1.0
C      1  0.4363200000000  0.4731150000000  0.3475990000000 1.0
C      1  0.4319820000000  0.6389570000000  0.4306920000000 1.0
C      1  0.5334280000000  0.4159150000000  0.5765810000000 1.0
C      1  0.5431490000000  0.4062460000000  0.4480000000000 1.0
C      1  0.5388390000000  0.5221080000000  0.3902390000000 1.0
C      1  0.5402280000000  0.6064450000000  0.4841710000000 1.0
C      1  0.5432190000000  0.5456740000000  0.6013860000000 1.0
C      1  0.6129250000000  0.5058940000000  0.4960200000000 1.0
C      1  0.6025020000000  0.5130940000000  0.4718880000000 1.0
C      1  0.4739290000000  0.4959100000000  0.5050580000000 1.0
END
