TITL C-3201372-1405-301 257784.247342966 125000 -1126.94822279722 0 0 187 (C1) n - 1
REM
REM in /home/nfs/bkarasulu/CARBON/AIRSS/Generating-Clusters/LCBOP/Higher-Symm/SD-CG/FIRE-CG
REM
REM
REM
REM
REM
REM ./C.cell (b20cbc046b6831c77cfcea5457e17084)
REM AIRSS Version 0.9.1 bugfix July 2018 build 013d7b7c2542+ Fri, 06 Jul 2018 19:26:36 +0100
REM compiler GCC version 9.2.1 20190827 (Red Hat 9.2.1-1)
REM options -cpp -mtune=generic -march=x86-64 -g -O0 -fpre-include=/usr/include/finclude/math-vector-fortran.h
REM seed -654112029 217420160 653384533 737591980 -1491766299 1941387007 1308746448 -1744408182 820362165 1643670447 -414001935 -1737194140 859242289 569913404 -310448880 -484963949 1575318275 593151631 -1867606725 1041621820 526309978 -760702839 1612890032 -259867953 -212729973 -1998623324 -1665459090 1433681311 1792187469 1984744688 -1971729916 -1500287395 1629109627
REM
CELL 1.54180   50.00000   50.00000   50.00000   90.00000   90.00000   90.00000
LATT -1
SFAC C  
C      1  0.4371610000000  0.4756760000000  0.4052090000000 1.0
C      1  0.4336540000000  0.5995140000000  0.5276160000000 1.0
C      1  0.4462060000000  0.4300340000000  0.5761420000000 1.0
C      1  0.4774740000000  0.5980500000000  0.4827750000000 1.0
C      1  0.4537850000000  0.4851920000000  0.5999110000000 1.0
C      1  0.4872340000000  0.4320320000000  0.4220040000000 1.0
C      1  0.3991280000000  0.5278190000000  0.5028220000000 1.0
C      1  0.3912890000000  0.4504440000000  0.5183500000000 1.0
C      1  0.4023900000000  0.5204720000000  0.4741190000000 1.0
C      1  0.4059920000000  0.5410730000000  0.4003200000000 1.0
C      1  0.4111780000000  0.5467090000000  0.5765950000000 1.0
C      1  0.4111560000000  0.3967800000000  0.5221930000000 1.0
C      1  0.4905310000000  0.4259200000000  0.5974130000000 1.0
C      1  0.4832890000000  0.4570830000000  0.3842090000000 1.0
C      1  0.4805840000000  0.6214970000000  0.5191780000000 1.0
C      1  0.4565340000000  0.5713150000000  0.6195950000000 1.0
C      1  0.4673360000000  0.3741830000000  0.4978910000000 1.0
C      1  0.4654360000000  0.5685540000000  0.3914530000000 1.0
C      1  0.5400720000000  0.4442890000000  0.4847200000000 1.0
C      1  0.5473250000000  0.5394270000000  0.4534890000000 1.0
C      1  0.5400430000000  0.5036440000000  0.5607480000000 1.0
C      1  0.4844260000000  0.5135480000000  0.6226270000000 1.0
C      1  0.4931310000000  0.3860990000000  0.4403080000000 1.0
C      1  0.5023500000000  0.6098310000000  0.4407110000000 1.0
C      1  0.5138960000000  0.3926970000000  0.5593380000000 1.0
C      1  0.5070320000000  0.5029890000000  0.3802910000000 1.0
C      1  0.5019790000000  0.6047580000000  0.5651210000000 1.0
C      1  0.5257500000000  0.5394480000000  0.4140020000000 1.0
C      1  0.5288760000000  0.5543420000000  0.5794930000000 1.0
C      1  0.5290110000000  0.3980910000000  0.5052860000000 1.0
C      1  0.5129100000000  0.4498660000000  0.4848900000000 1.0
C      1  0.5079830000000  0.5545490000000  0.4782390000000 1.0
C      1  0.5145920000000  0.4929580000000  0.5545650000000 1.0
C      1  0.5965510000000  0.4366330000000  0.3826930000000 1.0
C      1  0.5754420000000  0.6175780000000  0.5171590000000 1.0
C      1  0.5947210000000  0.4317030000000  0.6118770000000 1.0
C      1  0.5646180000000  0.5646470000000  0.4021400000000 1.0
C      1  0.5697700000000  0.5492660000000  0.6039740000000 1.0
C      1  0.5669090000000  0.3834670000000  0.4831120000000 1.0
C      1  0.4431040000000  0.5046890000000  0.5608670000000 1.0
C      1  0.4543230000000  0.4466270000000  0.4519630000000 1.0
C      1  0.4422200000000  0.5824520000000  0.4609460000000 1.0
C      1  0.5959260000000  0.4523590000000  0.4921420000000 1.0
C      1  0.5944510000000  0.5205220000000  0.4628750000000 1.0
C      1  0.5942750000000  0.5180600000000  0.5406080000000 1.0
C      1  0.4485960000000  0.6022620000000  0.4812330000000 1.0
C      1  0.4357100000000  0.5064520000000  0.5890940000000 1.0
C      1  0.4596300000000  0.4391330000000  0.4244910000000 1.0
C      1  0.5073660000000  0.5824750000000  0.4374280000000 1.0
C      1  0.4912110000000  0.5307130000000  0.6015660000000 1.0
C      1  0.4974970000000  0.3909670000000  0.4676030000000 1.0
C      1  0.4857390000000  0.5093070000000  0.4829590000000 1.0
C      1  0.4850320000000  0.5038240000000  0.5120990000000 1.0
C      1  0.4767990000000  0.4753920000000  0.5140420000000 1.0
C      1  0.5719530000000  0.5231820000000  0.6107750000000 1.0
C      1  0.5479590000000  0.3922110000000  0.4623780000000 1.0
C      1  0.5516440000000  0.5803830000000  0.4225500000000 1.0
C      1  0.4656380000000  0.5338270000000  0.4193820000000 1.0
C      1  0.4660940000000  0.5617560000000  0.5746980000000 1.0
C      1  0.4707120000000  0.4170710000000  0.5111840000000 1.0
C      1  0.5317280000000  0.6000450000000  0.5600620000000 1.0
C      1  0.5476700000000  0.4023900000000  0.5560780000000 1.0
C      1  0.5400530000000  0.4945760000000  0.3900870000000 1.0
C      1  0.4998290000000  0.5302810000000  0.3734840000000 1.0
C      1  0.4922630000000  0.5999180000000  0.5923320000000 1.0
C      1  0.5021970000000  0.3736590000000  0.5406390000000 1.0
C      1  0.5247610000000  0.5682000000000  0.4220320000000 1.0
C      1  0.5154040000000  0.5436650000000  0.6011850000000 1.0
C      1  0.5230660000000  0.3924310000000  0.4778290000000 1.0
C      1  0.5449110000000  0.6053790000000  0.4683600000000 1.0
C      1  0.5485750000000  0.4784680000000  0.6142730000000 1.0
C      1  0.5418930000000  0.4187100000000  0.4190780000000 1.0
C      1  0.4504150000000  0.4771410000000  0.5535450000000 1.0
C      1  0.4557340000000  0.4745880000000  0.4593670000000 1.0
C      1  0.4830730000000  0.5541980000000  0.5215050000000 1.0
C      1  0.4394960000000  0.5502340000000  0.6157810000000 1.0
C      1  0.4404770000000  0.3663040000000  0.4964300000000 1.0
C      1  0.4394820000000  0.5737460000000  0.3811070000000 1.0
C      1  0.5590340000000  0.4769260000000  0.5139670000000 1.0
C      1  0.5444030000000  0.4984520000000  0.4747540000000 1.0
C      1  0.5497690000000  0.5219550000000  0.5175790000000 1.0
C      1  0.5852050000000  0.5444030000000  0.4770050000000 1.0
C      1  0.5858010000000  0.4920170000000  0.5527400000000 1.0
C      1  0.5821240000000  0.4545710000000  0.4654910000000 1.0
C      1  0.4525960000000  0.6000340000000  0.5502990000000 1.0
C      1  0.4669210000000  0.4148240000000  0.5594550000000 1.0
C      1  0.4570290000000  0.4949120000000  0.3934370000000 1.0
C      1  0.4682180000000  0.4920750000000  0.6230950000000 1.0
C      1  0.4918330000000  0.4042760000000  0.4206440000000 1.0
C      1  0.4897750000000  0.6157290000000  0.4639310000000 1.0
C      1  0.4973460000000  0.4584010000000  0.5062860000000 1.0
C      1  0.5061840000000  0.5263520000000  0.4744450000000 1.0
C      1  0.5099390000000  0.5011120000000  0.5274970000000 1.0
C      1  0.4693290000000  0.4730370000000  0.5764740000000 1.0
C      1  0.5036110000000  0.4525130000000  0.4360440000000 1.0
C      1  0.4780140000000  0.5754020000000  0.5022910000000 1.0
C      1  0.4932220000000  0.4100210000000  0.5725060000000 1.0
C      1  0.4832510000000  0.4855290000000  0.3842240000000 1.0
C      1  0.4795320000000  0.6104560000000  0.5457200000000 1.0
C      1  0.5503710000000  0.5399220000000  0.3975910000000 1.0
C      1  0.5543960000000  0.5650850000000  0.5864540000000 1.0
C      1  0.5563290000000  0.3880510000000  0.5098860000000 1.0
C      1  0.4451280000000  0.6142700000000  0.5067020000000 1.0
C      1  0.4617780000000  0.4326270000000  0.6007590000000 1.0
C      1  0.4509910000000  0.4513080000000  0.4016960000000 1.0
C      1  0.4852310000000  0.5532580000000  0.3765410000000 1.0
C      1  0.4755910000000  0.5889480000000  0.6109850000000 1.0
C      1  0.4853480000000  0.3672130000000  0.5199900000000 1.0
C      1  0.4197420000000  0.5190830000000  0.4110250000000 1.0
C      1  0.4205040000000  0.5660230000000  0.5581900000000 1.0
C      1  0.4268440000000  0.4155820000000  0.5356260000000 1.0
C      1  0.5719470000000  0.4459400000000  0.5649530000000 1.0
C      1  0.5677900000000  0.4643870000000  0.4192140000000 1.0
C      1  0.5541040000000  0.5694780000000  0.5051640000000 1.0
C      1  0.5299850000000  0.4590500000000  0.6151300000000 1.0
C      1  0.5274650000000  0.4274090000000  0.3971690000000 1.0
C      1  0.5277000000000  0.6171370000000  0.4873910000000 1.0
C      1  0.4261090000000  0.5326460000000  0.5970460000000 1.0
C      1  0.4174110000000  0.3761090000000  0.5061570000000 1.0
C      1  0.4154450000000  0.5625710000000  0.3867810000000 1.0
C      1  0.5417590000000  0.4742180000000  0.4106650000000 1.0
C      1  0.5255820000000  0.5623220000000  0.5022540000000 1.0
C      1  0.5476030000000  0.4319920000000  0.5585260000000 1.0
C      1  0.4225410000000  0.5365480000000  0.4625920000000 1.0
C      1  0.4138110000000  0.5107480000000  0.5216270000000 1.0
C      1  0.4073530000000  0.4575510000000  0.4955160000000 1.0
C      1  0.5114360000000  0.4404750000000  0.6094550000000 1.0
C      1  0.5067390000000  0.4403280000000  0.3840850000000 1.0
C      1  0.5065630000000  0.6235690000000  0.5049050000000 1.0
C      1  0.4457450000000  0.5778310000000  0.5659350000000 1.0
C      1  0.4555580000000  0.4129660000000  0.5338320000000 1.0
C      1  0.4481360000000  0.5189920000000  0.4044580000000 1.0
C      1  0.4916020000000  0.4884610000000  0.5684660000000 1.0
C      1  0.4982440000000  0.4440680000000  0.4628640000000 1.0
C      1  0.4928780000000  0.5673710000000  0.4567170000000 1.0
C      1  0.4336000000000  0.4610680000000  0.5062620000000 1.0
C      1  0.4466030000000  0.5225040000000  0.4601260000000 1.0
C      1  0.4408140000000  0.5215270000000  0.5201540000000 1.0
C      1  0.5188850000000  0.5088050000000  0.4315330000000 1.0
C      1  0.5255750000000  0.5483320000000  0.5512050000000 1.0
C      1  0.5194140000000  0.4194040000000  0.5214360000000 1.0
C      1  0.4035770000000  0.4589700000000  0.5441070000000 1.0
C      1  0.4039940000000  0.4918260000000  0.4541420000000 1.0
C      1  0.4012870000000  0.5562900000000  0.5124630000000 1.0
C      1  0.5423490000000  0.5267450000000  0.5439720000000 1.0
C      1  0.5525980000000  0.4520930000000  0.5080720000000 1.0
C      1  0.5286370000000  0.5166370000000  0.4585260000000 1.0
C      1  0.5817790000000  0.5687210000000  0.5487820000000 1.0
C      1  0.5893010000000  0.4169850000000  0.5285110000000 1.0
C      1  0.5829920000000  0.5104880000000  0.4138840000000 1.0
C      1  0.4723230000000  0.4297930000000  0.4674600000000 1.0
C      1  0.4653620000000  0.5714530000000  0.4466050000000 1.0
C      1  0.4699740000000  0.5186800000000  0.5567040000000 1.0
C      1  0.5890790000000  0.5018010000000  0.4410970000000 1.0
C      1  0.5882950000000  0.5459520000000  0.5311770000000 1.0
C      1  0.5948650000000  0.4452200000000  0.5216130000000 1.0
C      1  0.4055150000000  0.4888870000000  0.5394070000000 1.0
C      1  0.4009780000000  0.4687370000000  0.4703620000000 1.0
C      1  0.4207940000000  0.5644740000000  0.4612100000000 1.0
C      1  0.5845130000000  0.4401730000000  0.5894420000000 1.0
C      1  0.5828930000000  0.4489290000000  0.4011700000000 1.0
C      1  0.5618150000000  0.5958380000000  0.5121830000000 1.0
C      1  0.5612010000000  0.5143360000000  0.3950250000000 1.0
C      1  0.5611960000000  0.5819520000000  0.5645850000000 1.0
C      1  0.5677910000000  0.3978780000000  0.5338580000000 1.0
C      1  0.4635890000000  0.5011630000000  0.4667310000000 1.0
C      1  0.4700950000000  0.5263300000000  0.5272380000000 1.0
C      1  0.4524030000000  0.4691750000000  0.5258000000000 1.0
C      1  0.5258800000000  0.4378920000000  0.5408370000000 1.0
C      1  0.5182900000000  0.4778380000000  0.4279900000000 1.0
C      1  0.5112890000000  0.5574650000000  0.5281150000000 1.0
C      1  0.5588590000000  0.5856910000000  0.4508100000000 1.0
C      1  0.5644600000000  0.4977210000000  0.6008340000000 1.0
C      1  0.5516900000000  0.4157590000000  0.4462770000000 1.0
C      1  0.5821000000000  0.4737600000000  0.4436700000000 1.0
C      1  0.5774810000000  0.5506800000000  0.5044750000000 1.0
C      1  0.5874040000000  0.4627230000000  0.5453840000000 1.0
C      1  0.5580040000000  0.4381580000000  0.4635180000000 1.0
C      1  0.5664210000000  0.5591960000000  0.4602720000000 1.0
C      1  0.5643230000000  0.4959140000000  0.5724000000000 1.0
C      1  0.4163980000000  0.4918170000000  0.4237260000000 1.0
C      1  0.4148810000000  0.5750910000000  0.5303040000000 1.0
C      1  0.4217450000000  0.4367920000000  0.5564980000000 1.0
C      1  0.4750670000000  0.4027630000000  0.4848150000000 1.0
C      1  0.4648540000000  0.5618770000000  0.4197950000000 1.0
C      1  0.4762610000000  0.5365190000000  0.5782130000000 1.0
C      1  0.5532920000000  0.5003570000000  0.5010010000000 1.0
END
