TITL C-3201377-4638-123 -1.66666679907579e-07 125000 -384.532528501567 0 0 62 (C3i) n - 1
REM
REM in /home/nfs/bkarasulu/CARBON/AIRSS/Generating-Clusters/LCBOP/Higher-Symm/SD-CG/FIRE-CG
REM
REM
REM
REM
REM
REM ./C.cell (b20cbc046b6831c77cfcea5457e17084)
REM AIRSS Version 0.9.1 bugfix July 2018 build 013d7b7c2542+ Fri, 06 Jul 2018 19:26:36 +0100
REM compiler GCC version 9.2.1 20190827 (Red Hat 9.2.1-1)
REM options -cpp -mtune=generic -march=x86-64 -g -O0 -fpre-include=/usr/include/finclude/math-vector-fortran.h
REM seed -1648227990 -1575312100 -1604539202 -916967195 -1867520748 1273579471 -1390141428 -1195693276 351959995 -1249914379 613236345 -1160182451 219630533 710708809 -1380877593 362290958 -421919125 -687935266 -579202797 -616564315 16605473 -1495179697 -2129732542 -709886483 -1093576060 1369254768 1874117280 -980088244 1310103608 116050637 -1355539974 647617908 1300531378
REM
CELL 1.54180   50.00000   50.00000   50.00000   90.00000   90.00000   90.00000
LATT -1
SFAC C  
C      1  0.4315610000000  0.5293580000000  0.4990020000000 1.0
C      1  0.4912220000000  0.5742270000000  0.5009250000000 1.0
C      1  0.5599110000000  0.5449920000000  0.4990260000000 1.0
C      1  0.5689370000000  0.4708900000000  0.5009980000000 1.0
C      1  0.5092760000000  0.4260210000000  0.4990750000000 1.0
C      1  0.4405870000000  0.4552560000000  0.5009740000000 1.0
C      1  0.4610520000000  0.4360970000000  0.5040480000000 1.0
C      1  0.4252010000000  0.5020520000000  0.4959560000000 1.0
C      1  0.4643950000000  0.5660850000000  0.5039810000000 1.0
C      1  0.5394450000000  0.5641510000000  0.4959520000000 1.0
C      1  0.5752960000000  0.4981960000000  0.5040440000000 1.0
C      1  0.5361030000000  0.4341630000000  0.4960190000000 1.0
C      1  0.4787680000000  0.5311200000000  0.4641170000000 1.0
C      1  0.5163540000000  0.5342610000000  0.5358480000000 1.0
C      1  0.5378620000000  0.5032090000000  0.4641460000000 1.0
C      1  0.5217300000000  0.4691280000000  0.5358830000000 1.0
C      1  0.4841440000000  0.4659870000000  0.4641520000000 1.0
C      1  0.4626360000000  0.4970390000000  0.5358540000000 1.0
C      1  0.4822930000000  0.4791000000000  0.5754940000000 1.0
C      1  0.4730570000000  0.5050870000000  0.4245030000000 1.0
C      1  0.4909570000000  0.5262300000000  0.5754720000000 1.0
C      1  0.5182050000000  0.5211480000000  0.4245060000000 1.0
C      1  0.5274410000000  0.4951610000000  0.5754970000000 1.0
C      1  0.5095400000000  0.4740180000000  0.4245280000000 1.0
C      1  0.5097670000000  0.4664580000000  0.4521620000000 1.0
C      1  0.4758560000000  0.4750950000000  0.5478650000000 1.0
C      1  0.4663730000000  0.5086870000000  0.4521290000000 1.0
C      1  0.4907310000000  0.5337900000000  0.5478380000000 1.0
C      1  0.5246420000000  0.5251520000000  0.4521350000000 1.0
C      1  0.5341240000000  0.4915610000000  0.5478710000000 1.0
C      1  0.5566940000000  0.4163660000000  0.5044080000000 1.0
C      1  0.4559340000000  0.4093580000000  0.4956860000000 1.0
C      1  0.3994860000000  0.4931230000000  0.5043290000000 1.0
C      1  0.4438040000000  0.5838820000000  0.4955920000000 1.0
C      1  0.5445640000000  0.5908900000000  0.5043140000000 1.0
C      1  0.6010120000000  0.5071250000000  0.4956710000000 1.0
C      1  0.5371750000000  0.5153510000000  0.5320300000000 1.0
C      1  0.5318970000000  0.4757270000000  0.4679910000000 1.0
C      1  0.4949470000000  0.4605490000000  0.5320490000000 1.0
C      1  0.4633230000000  0.4848960000000  0.4679700000000 1.0
C      1  0.4686010000000  0.5245210000000  0.5320090000000 1.0
C      1  0.5055510000000  0.5396980000000  0.4679510000000 1.0
C      1  0.4134630000000  0.5489720000000  0.4891420000000 1.0
C      1  0.4991600000000  0.5997180000000  0.5107590000000 1.0
C      1  0.5859540000000  0.5508530000000  0.4891840000000 1.0
C      1  0.5870350000000  0.4512760000000  0.5108580000000 1.0
C      1  0.5013380000000  0.4005300000000  0.4892410000000 1.0
C      1  0.4145440000000  0.4493950000000  0.5108160000000 1.0
C      1  0.4755560000000  0.3923560000000  0.4879780000000 1.0
C      1  0.3945740000000  0.4676370000000  0.5120630000000 1.0
C      1  0.4192760000000  0.5753850000000  0.4878690000000 1.0
C      1  0.5249420000000  0.6078910000000  0.5120220000000 1.0
C      1  0.6059240000000  0.5326110000000  0.4879370000000 1.0
C      1  0.5812220000000  0.4248620000000  0.5121310000000 1.0
C      1  0.5450290000000  0.4605680000000  0.4879900000000 1.0
C      1  0.4883830000000  0.4415770000000  0.5120690000000 1.0
C      1  0.4436120000000  0.4811150000000  0.4879540000000 1.0
C      1  0.4554690000000  0.5396800000000  0.5120100000000 1.0
C      1  0.5121150000000  0.5586700000000  0.4879310000000 1.0
C      1  0.5568850000000  0.5191330000000  0.5120460000000 1.0
C      1  0.5002690000000  0.5000810000000  0.4171440000000 1.0
C      1  0.5002280000000  0.5001670000000  0.5828560000000 1.0
END
