TITL C-3201376-6384-822 8.04005881518189e-08 125000 -16.8347182444993 0 0 13 (Ih) n - 1
REM
REM in /home/nfs/bkarasulu/CARBON/AIRSS/Generating-Clusters/LCBOP/Higher-Symm/SD-CG/FIRE-CG
REM
REM
REM
REM
REM
REM ./C.cell (b20cbc046b6831c77cfcea5457e17084)
REM AIRSS Version 0.9.1 bugfix July 2018 build 013d7b7c2542+ Fri, 06 Jul 2018 19:26:36 +0100
REM compiler GCC version 9.2.1 20190827 (Red Hat 9.2.1-1)
REM options -cpp -mtune=generic -march=x86-64 -g -O0 -fpre-include=/usr/include/finclude/math-vector-fortran.h
REM seed -1400353493 -1798040882 1278904811 2137467150 -107417710 -19220657 1199476461 1409619715 -313695097 -1839164744 -2041263160 560199335 720090985 1649569630 181602326 -1191330454 -1236194919 539096049 162711035 -553296036 1407748683 2033077907 947063493 -854194535 -1722059793 -2045512327 -985641294 413599368 -771737359 964951325 -1273865674 518481851 1483267438
REM
CELL 1.54180   50.00000   50.00000   50.00000   90.00000   90.00000   90.00000
LATT -1
SFAC C  
C      1  0.4996180000000  0.5302490000000  0.5191230000000 1.0
C      1  0.4996180000000  0.4693600000000  0.5191230000000 1.0
C      1  0.5184340000000  0.4998050000000  0.4698620000000 1.0
C      1  0.4808020000000  0.4998050000000  0.5307520000000 1.0
C      1  0.4996180000000  0.4693600000000  0.4814910000000 1.0
C      1  0.4996180000000  0.5302490000000  0.4814910000000 1.0
C      1  0.5300630000000  0.5186210000000  0.5003070000000 1.0
C      1  0.5184340000000  0.4998050000000  0.5307520000000 1.0
C      1  0.5300630000000  0.4809890000000  0.5003070000000 1.0
C      1  0.4691730000000  0.4809890000000  0.5003070000000 1.0
C      1  0.4691730000000  0.5186210000000  0.5003070000000 1.0
C      1  0.4808020000000  0.4998050000000  0.4698620000000 1.0
C      1  0.4996180000000  0.4998050000000  0.5003070000000 1.0
END
