TITL C-3201373-1215-771 146.534872048202 125000 -747.378050597969 0 0 127 (C1) n - 1
REM
REM in /home/nfs/bkarasulu/CARBON/AIRSS/Generating-Clusters/LCBOP/Higher-Symm/SD-CG/FIRE-CG
REM
REM
REM
REM
REM
REM ./C.cell (b20cbc046b6831c77cfcea5457e17084)
REM AIRSS Version 0.9.1 bugfix July 2018 build 013d7b7c2542+ Fri, 06 Jul 2018 19:26:36 +0100
REM compiler GCC version 9.2.1 20190827 (Red Hat 9.2.1-1)
REM options -cpp -mtune=generic -march=x86-64 -g -O0 -fpre-include=/usr/include/finclude/math-vector-fortran.h
REM seed -1934950040 -572257626 1375912047 1233358526 -768818011 -2008113964 -1769087931 -145681061 -257215448 1556015221 -1237362216 -1639989046 296661559 -513749818 -729841480 -1455476415 -827499996 726241251 -378638039 -353931880 1966609148 2059043504 827489925 403287701 2085661940 -1378769 -1948157837 -938735561 1645423207 1437733495 -202044344 2083633772 901514666
REM
CELL 1.54180   50.00000   50.00000   50.00000   90.00000   90.00000   90.00000
LATT -1
SFAC C  
C      1  0.5205340000000  0.4298510000000  0.5567440000000 1.0
C      1  0.5523300000000  0.5551980000000  0.5574720000000 1.0
C      1  0.4233940000000  0.5210890000000  0.5645360000000 1.0
C      1  0.4829500000000  0.4943450000000  0.5310540000000 1.0
C      1  0.5087880000000  0.4819870000000  0.5296160000000 1.0
C      1  0.4901630000000  0.5211130000000  0.5279100000000 1.0
C      1  0.3915910000000  0.5003530000000  0.4980320000000 1.0
C      1  0.5535330000000  0.4043310000000  0.4974560000000 1.0
C      1  0.5555530000000  0.5946910000000  0.4965950000000 1.0
C      1  0.4917690000000  0.5902020000000  0.5328890000000 1.0
C      1  0.4235660000000  0.4472080000000  0.5342200000000 1.0
C      1  0.5802350000000  0.4629080000000  0.5304640000000 1.0
C      1  0.5464520000000  0.5381870000000  0.4084840000000 1.0
C      1  0.4604970000000  0.5203130000000  0.4244850000000 1.0
C      1  0.5083020000000  0.4354430000000  0.4091440000000 1.0
C      1  0.5033840000000  0.4492590000000  0.4883220000000 1.0
C      1  0.5434260000000  0.5296710000000  0.4881280000000 1.0
C      1  0.4496870000000  0.5236540000000  0.5029220000000 1.0
C      1  0.5570990000000  0.5268790000000  0.4324610000000 1.0
C      1  0.4546150000000  0.5307300000000  0.4493570000000 1.0
C      1  0.4931900000000  0.4338010000000  0.4334250000000 1.0
C      1  0.4024980000000  0.4816640000000  0.4788390000000 1.0
C      1  0.5651000000000  0.4256200000000  0.4813510000000 1.0
C      1  0.5308610000000  0.5939960000000  0.4813720000000 1.0
C      1  0.4998520000000  0.5551450000000  0.4672220000000 1.0
C      1  0.4508730000000  0.4724100000000  0.4638830000000 1.0
C      1  0.5460320000000  0.4715270000000  0.4664430000000 1.0
C      1  0.5433430000000  0.4394940000000  0.4664090000000 1.0
C      1  0.5290520000000  0.5682640000000  0.4663600000000 1.0
C      1  0.4221330000000  0.4947460000000  0.4620080000000 1.0
C      1  0.5402160000000  0.5195060000000  0.5931760000000 1.0
C      1  0.4642560000000  0.5274450000000  0.5975330000000 1.0
C      1  0.4951720000000  0.4573970000000  0.5927600000000 1.0
C      1  0.4721070000000  0.4120600000000  0.4669760000000 1.0
C      1  0.5879700000000  0.5200760000000  0.4647720000000 1.0
C      1  0.4379020000000  0.5675260000000  0.4667930000000 1.0
C      1  0.4102230000000  0.4535300000000  0.4396100000000 1.0
C      1  0.5930270000000  0.4376120000000  0.4440660000000 1.0
C      1  0.5048440000000  0.6109510000000  0.4446960000000 1.0
C      1  0.4975220000000  0.4802980000000  0.6080260000000 1.0
C      1  0.5192750000000  0.5103750000000  0.6087310000000 1.0
C      1  0.4834140000000  0.5127800000000  0.6112640000000 1.0
C      1  0.4915230000000  0.5923520000000  0.5620500000000 1.0
C      1  0.4232670000000  0.4463990000000  0.5638320000000 1.0
C      1  0.5824620000000  0.4630740000000  0.5593860000000 1.0
C      1  0.5276920000000  0.4029280000000  0.5118930000000 1.0
C      1  0.5704930000000  0.5734720000000  0.5107560000000 1.0
C      1  0.3998200000000  0.5235320000000  0.5145840000000 1.0
C      1  0.5142500000000  0.4738320000000  0.4309470000000 1.0
C      1  0.5115510000000  0.5220580000000  0.4315150000000 1.0
C      1  0.5001680000000  0.4968740000000  0.4226070000000 1.0
C      1  0.5917790000000  0.5564430000000  0.5000180000000 1.0
C      1  0.4054640000000  0.5502510000000  0.5030170000000 1.0
C      1  0.5017990000000  0.3926790000000  0.5026840000000 1.0
C      1  0.5888680000000  0.4401230000000  0.4723690000000 1.0
C      1  0.5061460000000  0.6074790000000  0.4733270000000 1.0
C      1  0.4050690000000  0.4538680000000  0.4690430000000 1.0
C      1  0.4677020000000  0.4541480000000  0.5320960000000 1.0
C      1  0.5519140000000  0.4971980000000  0.5285160000000 1.0
C      1  0.4798470000000  0.5463840000000  0.5334340000000 1.0
C      1  0.4293690000000  0.4617170000000  0.4214390000000 1.0
C      1  0.5786290000000  0.4437690000000  0.4219960000000 1.0
C      1  0.5051050000000  0.5943140000000  0.4232530000000 1.0
C      1  0.4734030000000  0.5723690000000  0.4685170000000 1.0
C      1  0.4499760000000  0.4401430000000  0.4670240000000 1.0
C      1  0.5742800000000  0.4865310000000  0.4661240000000 1.0
C      1  0.4252840000000  0.5700990000000  0.4930740000000 1.0
C      1  0.4749630000000  0.3998140000000  0.4930060000000 1.0
C      1  0.5980830000000  0.5294190000000  0.4903930000000 1.0
C      1  0.4663220000000  0.5508210000000  0.5583470000000 1.0
C      1  0.4732970000000  0.4403580000000  0.5555640000000 1.0
C      1  0.5585410000000  0.5082210000000  0.5526440000000 1.0
C      1  0.5193210000000  0.4454140000000  0.5809460000000 1.0
C      1  0.5395590000000  0.5468100000000  0.5820320000000 1.0
C      1  0.4406990000000  0.5129790000000  0.5863810000000 1.0
C      1  0.4122860000000  0.5214640000000  0.4525800000000 1.0
C      1  0.5234640000000  0.4174320000000  0.4603140000000 1.0
C      1  0.5575420000000  0.5619920000000  0.4585080000000 1.0
C      1  0.4566130000000  0.5479640000000  0.5156360000000 1.0
C      1  0.4773690000000  0.4415240000000  0.5088160000000 1.0
C      1  0.5598130000000  0.5126280000000  0.5060700000000 1.0
C      1  0.4697460000000  0.4501500000000  0.5814560000000 1.0
C      1  0.5566540000000  0.5005340000000  0.5792540000000 1.0
C      1  0.4730570000000  0.5521680000000  0.5853070000000 1.0
C      1  0.4592290000000  0.4179940000000  0.5086380000000 1.0
C      1  0.5892800000000  0.5078380000000  0.5070770000000 1.0
C      1  0.4477400000000  0.5749560000000  0.5113310000000 1.0
C      1  0.5174730000000  0.4926670000000  0.5033950000000 1.0
C      1  0.5045300000000  0.5198330000000  0.5033960000000 1.0
C      1  0.4727860000000  0.4864310000000  0.5036770000000 1.0
C      1  0.4816100000000  0.5963510000000  0.4844130000000 1.0
C      1  0.4241860000000  0.4367740000000  0.4831740000000 1.0
C      1  0.5914270000000  0.4674100000000  0.4820530000000 1.0
C      1  0.4937800000000  0.5730410000000  0.5846740000000 1.0
C      1  0.4419380000000  0.4588040000000  0.5836200000000 1.0
C      1  0.5643950000000  0.4725520000000  0.5807120000000 1.0
C      1  0.5035460000000  0.5641390000000  0.5251870000000 1.0
C      1  0.4423900000000  0.4698780000000  0.5295990000000 1.0
C      1  0.5518030000000  0.4681430000000  0.5231020000000 1.0
C      1  0.4305160000000  0.4284130000000  0.5107150000000 1.0
C      1  0.5948260000000  0.4782600000000  0.5088990000000 1.0
C      1  0.4708070000000  0.5941940000000  0.5113840000000 1.0
C      1  0.4294950000000  0.5449430000000  0.4505900000000 1.0
C      1  0.4958120000000  0.4124540000000  0.4515230000000 1.0
C      1  0.5751590000000  0.5402190000000  0.4493730000000 1.0
C      1  0.5305750000000  0.4493470000000  0.5123050000000 1.0
C      1  0.5291530000000  0.5530530000000  0.5142410000000 1.0
C      1  0.4367110000000  0.4987460000000  0.5240930000000 1.0
C      1  0.5445580000000  0.4547540000000  0.5900710000000 1.0
C      1  0.5198080000000  0.5646590000000  0.5919920000000 1.0
C      1  0.4378070000000  0.4852570000000  0.5929500000000 1.0
C      1  0.5012430000000  0.4561060000000  0.4519730000000 1.0
C      1  0.5349280000000  0.5224700000000  0.4523700000000 1.0
C      1  0.4569510000000  0.5232090000000  0.4762920000000 1.0
C      1  0.4165560000000  0.5145920000000  0.5375990000000 1.0
C      1  0.5258910000000  0.4261700000000  0.5291210000000 1.0
C      1  0.5524640000000  0.5603970000000  0.5294720000000 1.0
C      1  0.5280260000000  0.4565340000000  0.4114660000000 1.0
C      1  0.5182030000000  0.5436170000000  0.4119960000000 1.0
C      1  0.4718040000000  0.4957960000000  0.4167040000000 1.0
C      1  0.5079870000000  0.5698700000000  0.4121950000000 1.0
C      1  0.4524440000000  0.4745170000000  0.4138190000000 1.0
C      1  0.5557230000000  0.4521330000000  0.4106030000000 1.0
C      1  0.5221880000000  0.4863710000000  0.4759610000000 1.0
C      1  0.4980430000000  0.5269380000000  0.4763250000000 1.0
C      1  0.4734590000000  0.4845850000000  0.4752910000000 1.0
C      1  0.4968850000000  0.4985140000000  0.4652490000000 1.0
END
