TITL C-3201378-2706-981 29752.2157469632 125000 -1078.70309668751 0 0 179 (C1) n - 1
REM
REM in /home/nfs/bkarasulu/CARBON/AIRSS/Generating-Clusters/LCBOP/Higher-Symm/SD-CG/FIRE-CG
REM
REM
REM
REM
REM
REM ./C.cell (b20cbc046b6831c77cfcea5457e17084)
REM AIRSS Version 0.9.1 bugfix July 2018 build 013d7b7c2542+ Fri, 06 Jul 2018 19:26:36 +0100
REM compiler GCC version 9.2.1 20190827 (Red Hat 9.2.1-1)
REM options -cpp -mtune=generic -march=x86-64 -g -O0 -fpre-include=/usr/include/finclude/math-vector-fortran.h
REM seed -1153112722 -1780983722 -1583166557 1684949832 1210198837 -1949331363 122082452 -650715333 1214637335 715556657 -1353556654 435926764 1038427728 1294256105 -36325953 -1189021304 240920861 1475703420 -127806043 1346762372 -405667599 -1153279555 1309826624 822281485 -750393759 2009340615 -1966742988 634253860 1563328203 2010138123 -373999310 819361412 -434688022
REM
CELL 1.54180   50.00000   50.00000   50.00000   90.00000   90.00000   90.00000
LATT -1
SFAC C  
C      1  0.4166910000000  0.4687420000000  0.5003120000000 1.0
C      1  0.5594900000000  0.4545020000000  0.5079350000000 1.0
C      1  0.5087330000000  0.5879900000000  0.4952460000000 1.0
C      1  0.3490900000000  0.4937830000000  0.4951560000000 1.0
C      1  0.5784310000000  0.3830000000000  0.4996000000000 1.0
C      1  0.5706020000000  0.6256460000000  0.5029840000000 1.0
C      1  0.4010330000000  0.4390910000000  0.5324710000000 1.0
C      1  0.5979440000000  0.4427870000000  0.5248340000000 1.0
C      1  0.4946630000000  0.6150000000000  0.5305890000000 1.0
C      1  0.5100820000000  0.4405840000000  0.5048860000000 1.0
C      1  0.5424980000000  0.5467070000000  0.4995670000000 1.0
C      1  0.4342850000000  0.5228190000000  0.5027860000000 1.0
C      1  0.4103460000000  0.5799240000000  0.4929490000000 1.0
C      1  0.4772450000000  0.3866200000000  0.4986490000000 1.0
C      1  0.6131140000000  0.5298730000000  0.4841350000000 1.0
C      1  0.4520570000000  0.5187280000000  0.6192530000000 1.0
C      1  0.5046430000000  0.4468750000000  0.6194330000000 1.0
C      1  0.5473960000000  0.5265080000000  0.6146310000000 1.0
C      1  0.4135360000000  0.5854660000000  0.5231440000000 1.0
C      1  0.4710670000000  0.3880830000000  0.5293700000000 1.0
C      1  0.6235580000000  0.5195880000000  0.5092900000000 1.0
C      1  0.5546870000000  0.6058690000000  0.4928470000000 1.0
C      1  0.3760220000000  0.4927290000000  0.4907220000000 1.0
C      1  0.5636610000000  0.4066130000000  0.4958460000000 1.0
C      1  0.4198870000000  0.4783200000000  0.5791880000000 1.0
C      1  0.5594710000000  0.4423410000000  0.5753490000000 1.0
C      1  0.5200850000000  0.5698550000000  0.5765570000000 1.0
C      1  0.5367270000000  0.5495640000000  0.4695330000000 1.0
C      1  0.4320970000000  0.5149800000000  0.4741440000000 1.0
C      1  0.5173910000000  0.4422550000000  0.4759390000000 1.0
C      1  0.4370470000000  0.5264830000000  0.5958890000000 1.0
C      1  0.5047070000000  0.4306330000000  0.5957870000000 1.0
C      1  0.5572870000000  0.5344420000000  0.5891270000000 1.0
C      1  0.5561040000000  0.5397290000000  0.4511870000000 1.0
C      1  0.4352080000000  0.5337290000000  0.4531770000000 1.0
C      1  0.5011280000000  0.4320510000000  0.4555090000000 1.0
C      1  0.4786110000000  0.4717410000000  0.3875950000000 1.0
C      1  0.5748500000000  0.5342010000000  0.3647280000000 1.0
C      1  0.4951830000000  0.5361950000000  0.3872760000000 1.0
C      1  0.5408090000000  0.5005420000000  0.6199960000000 1.0
C      1  0.4789520000000  0.5237180000000  0.6219910000000 1.0
C      1  0.4840370000000  0.4639070000000  0.6251330000000 1.0
C      1  0.5220980000000  0.5244050000000  0.5060950000000 1.0
C      1  0.4634380000000  0.5138260000000  0.5065570000000 1.0
C      1  0.5014470000000  0.4700420000000  0.5085550000000 1.0
C      1  0.4349900000000  0.6034670000000  0.5320020000000 1.0
C      1  0.4417750000000  0.3943580000000  0.5356020000000 1.0
C      1  0.6179850000000  0.4947320000000  0.5227480000000 1.0
C      1  0.6042560000000  0.4966520000000  0.5465420000000 1.0
C      1  0.4699630000000  0.5639460000000  0.5411200000000 1.0
C      1  0.4574730000000  0.4497840000000  0.5432910000000 1.0
C      1  0.5871600000000  0.5188660000000  0.5522180000000 1.0
C      1  0.4445710000000  0.5571080000000  0.5336230000000 1.0
C      1  0.4761670000000  0.4315830000000  0.5351720000000 1.0
C      1  0.4595820000000  0.5554860000000  0.4859220000000 1.0
C      1  0.4688090000000  0.4429360000000  0.4871950000000 1.0
C      1  0.5620510000000  0.5087730000000  0.4862970000000 1.0
C      1  0.5741310000000  0.5821710000000  0.4729990000000 1.0
C      1  0.3885740000000  0.5201770000000  0.4709200000000 1.0
C      1  0.5344800000000  0.3997140000000  0.4772450000000 1.0
C      1  0.4932630000000  0.5284980000000  0.4658160000000 1.0
C      1  0.4700060000000  0.4866820000000  0.4709300000000 1.0
C      1  0.5196990000000  0.4894610000000  0.4687150000000 1.0
C      1  0.5392100000000  0.4806460000000  0.5996150000000 1.0
C      1  0.4981150000000  0.5283610000000  0.6006500000000 1.0
C      1  0.4657850000000  0.4753280000000  0.6064370000000 1.0
C      1  0.4757680000000  0.5625640000000  0.4192210000000 1.0
C      1  0.4602300000000  0.4369980000000  0.4138050000000 1.0
C      1  0.5700320000000  0.5006920000000  0.4003690000000 1.0
C      1  0.4780540000000  0.4894250000000  0.5854720000000 1.0
C      1  0.5243880000000  0.4882850000000  0.5763740000000 1.0
C      1  0.5016140000000  0.5046440000000  0.5840680000000 1.0
C      1  0.5651690000000  0.5279000000000  0.3897630000000 1.0
C      1  0.4689930000000  0.5389500000000  0.4019670000000 1.0
C      1  0.4854980000000  0.4440320000000  0.3990080000000 1.0
C      1  0.4721020000000  0.5668550000000  0.5868170000000 1.0
C      1  0.4491760000000  0.4367820000000  0.5875470000000 1.0
C      1  0.5816250000000  0.4851910000000  0.5843180000000 1.0
C      1  0.4475670000000  0.4630250000000  0.4204320000000 1.0
C      1  0.5537920000000  0.4764810000000  0.3974630000000 1.0
C      1  0.5042660000000  0.5576000000000  0.4278130000000 1.0
C      1  0.5502530000000  0.5489350000000  0.4047820000000 1.0
C      1  0.4498940000000  0.5163800000000  0.4102340000000 1.0
C      1  0.5132460000000  0.4408410000000  0.4098800000000 1.0
C      1  0.5168920000000  0.4232580000000  0.4334290000000 1.0
C      1  0.5614020000000  0.5583590000000  0.4303090000000 1.0
C      1  0.4260880000000  0.5223870000000  0.4285840000000 1.0
C      1  0.4213610000000  0.4113900000000  0.5212430000000 1.0
C      1  0.6136410000000  0.4698580000000  0.5081680000000 1.0
C      1  0.4606120000000  0.6125420000000  0.5189220000000 1.0
C      1  0.5090660000000  0.4831430000000  0.5318970000000 1.0
C      1  0.5040140000000  0.5281600000000  0.5276060000000 1.0
C      1  0.4680840000000  0.4995850000000  0.5302660000000 1.0
C      1  0.6156510000000  0.4784910000000  0.4803480000000 1.0
C      1  0.4521220000000  0.6120520000000  0.4908950000000 1.0
C      1  0.4279830000000  0.4043440000000  0.4937210000000 1.0
C      1  0.5885810000000  0.4485120000000  0.5532550000000 1.0
C      1  0.5002620000000  0.5946470000000  0.5588500000000 1.0
C      1  0.4126900000000  0.4526860000000  0.5584810000000 1.0
C      1  0.4639300000000  0.4874750000000  0.4113550000000 1.0
C      1  0.5285820000000  0.4660690000000  0.4073720000000 1.0
C      1  0.5200810000000  0.5414400000000  0.4064750000000 1.0
C      1  0.4201340000000  0.5533210000000  0.5458130000000 1.0
C      1  0.4888040000000  0.4070560000000  0.5447470000000 1.0
C      1  0.5733780000000  0.5352280000000  0.5340260000000 1.0
C      1  0.5007030000000  0.5785660000000  0.4707080000000 1.0
C      1  0.4247480000000  0.4681510000000  0.4736340000000 1.0
C      1  0.5573510000000  0.4643230000000  0.4819400000000 1.0
C      1  0.4933090000000  0.5538060000000  0.5294970000000 1.0
C      1  0.4526810000000  0.4761390000000  0.5341010000000 1.0
C      1  0.5302770000000  0.4766330000000  0.5492570000000 1.0
C      1  0.4750980000000  0.5815630000000  0.5625140000000 1.0
C      1  0.4385950000000  0.4389360000000  0.5611930000000 1.0
C      1  0.5977890000000  0.4741870000000  0.5629670000000 1.0
C      1  0.4527850000000  0.3948190000000  0.4806260000000 1.0
C      1  0.6118090000000  0.5046020000000  0.4672510000000 1.0
C      1  0.4318690000000  0.5963440000000  0.4759320000000 1.0
C      1  0.5722970000000  0.6533120000000  0.4045400000000 1.0
C      1  0.4092530000000  0.4553190000000  0.4540290000000 1.0
C      1  0.5968870000000  0.3707220000000  0.4068510000000 1.0
C      1  0.4412260000000  0.4634790000000  0.5984330000000 1.0
C      1  0.5617920000000  0.4658970000000  0.5924350000000 1.0
C      1  0.4988780000000  0.5553450000000  0.5914800000000 1.0
C      1  0.5762800000000  0.4311940000000  0.5084660000000 1.0
C      1  0.5192780000000  0.6116310000000  0.5040250000000 1.0
C      1  0.3913780000000  0.4625330000000  0.5070030000000 1.0
C      1  0.4528280000000  0.4129490000000  0.4275430000000 1.0
C      1  0.5902160000000  0.4992200000000  0.4203710000000 1.0
C      1  0.4587070000000  0.5840560000000  0.4278410000000 1.0
C      1  0.4406280000000  0.5515170000000  0.5065860000000 1.0
C      1  0.4825000000000  0.4300170000000  0.5080500000000 1.0
C      1  0.5673950000000  0.5297170000000  0.5060480000000 1.0
C      1  0.5166830000000  0.4169460000000  0.5503930000000 1.0
C      1  0.5547020000000  0.5554310000000  0.5444460000000 1.0
C      1  0.4155570000000  0.5244010000000  0.5502830000000 1.0
C      1  0.5088750000000  0.5531960000000  0.4572770000000 1.0
C      1  0.4422950000000  0.4893120000000  0.4678650000000 1.0
C      1  0.5329160000000  0.4643480000000  0.4685330000000 1.0
C      1  0.4426150000000  0.5834870000000  0.4516160000000 1.0
C      1  0.4583380000000  0.4084500000000  0.4552240000000 1.0
C      1  0.5916750000000  0.5057020000000  0.4474070000000 1.0
C      1  0.5133820000000  0.4884420000000  0.4165040000000 1.0
C      1  0.5245900000000  0.5132690000000  0.4147840000000 1.0
C      1  0.4886420000000  0.4907150000000  0.4294540000000 1.0
C      1  0.5696880000000  0.5831570000000  0.4434710000000 1.0
C      1  0.3987560000000  0.5131620000000  0.4376690000000 1.0
C      1  0.5357810000000  0.4043310000000  0.4467780000000 1.0
C      1  0.5451030000000  0.5552780000000  0.5715870000000 1.0
C      1  0.4221750000000  0.5096850000000  0.5760260000000 1.0
C      1  0.5269470000000  0.4268370000000  0.5761190000000 1.0
C      1  0.4472150000000  0.5571260000000  0.4609000000000 1.0
C      1  0.4743210000000  0.4308450000000  0.4625760000000 1.0
C      1  0.5684860000000  0.5160260000000  0.4592570000000 1.0
C      1  0.5730390000000  0.6302640000000  0.4167010000000 1.0
C      1  0.3925950000000  0.4642130000000  0.4348530000000 1.0
C      1  0.5759450000000  0.3803690000000  0.4190160000000 1.0
C      1  0.4758080000000  0.4254540000000  0.5905560000000 1.0
C      1  0.5756240000000  0.5144380000000  0.5784930000000 1.0
C      1  0.4474850000000  0.5529730000000  0.5902310000000 1.0
C      1  0.3955070000000  0.5524230000000  0.4822760000000 1.0
C      1  0.5070500000000  0.3891990000000  0.4888090000000 1.0
C      1  0.5974480000000  0.5574550000000  0.4809510000000 1.0
C      1  0.5385880000000  0.5646590000000  0.5228490000000 1.0
C      1  0.4195930000000  0.5096150000000  0.5255000000000 1.0
C      1  0.5264180000000  0.4329950000000  0.5287760000000 1.0
C      1  0.5728320000000  0.6069620000000  0.4293010000000 1.0
C      1  0.3876480000000  0.4896030000000  0.4273170000000 1.0
C      1  0.5553020000000  0.3909890000000  0.4317770000000 1.0
C      1  0.4778420000000  0.4698840000000  0.4911420000000 1.0
C      1  0.5328400000000  0.5040010000000  0.4893170000000 1.0
C      1  0.4770280000000  0.5327300000000  0.4884890000000 1.0
C      1  0.5439110000000  0.4562350000000  0.5325960000000 1.0
C      1  0.5114960000000  0.5715530000000  0.5184820000000 1.0
C      1  0.4278070000000  0.4822820000000  0.5222430000000 1.0
C      1  0.5918200000000  0.3608100000000  0.5023120000000 1.0
C      1  0.5861060000000  0.6441640000000  0.5127750000000 1.0
C      1  0.3233960000000  0.4949260000000  0.4993580000000 1.0
C      1  0.4937020000000  0.5048830000000  0.5381120000000 1.0
C      1  0.4927840000000  0.4996220000000  0.4573520000000 1.0
END
