TITL C-3201373-1215-1818 2.62074718234055e-06 125000 -703.977146747863 0 0 115 (C1) n - 1
REM
REM in /home/nfs/bkarasulu/CARBON/AIRSS/Generating-Clusters/LCBOP/Higher-Symm/SD-CG/FIRE-CG
REM
REM
REM
REM
REM
REM ./C.cell (b20cbc046b6831c77cfcea5457e17084)
REM AIRSS Version 0.9.1 bugfix July 2018 build 013d7b7c2542+ Fri, 06 Jul 2018 19:26:36 +0100
REM compiler GCC version 9.2.1 20190827 (Red Hat 9.2.1-1)
REM options -cpp -mtune=generic -march=x86-64 -g -O0 -fpre-include=/usr/include/finclude/math-vector-fortran.h
REM seed 114312930 1609741949 -625903799 -488208797 280920592 19450814 272715854 -464934703 -22340079 -1828779019 -832791043 616971726 2017308126 2118525681 24125071 972773601 -966139189 -903647738 1212825982 1583470237 -1620548086 -1000336607 -102786460 -1121161196 -711391009 -2124413252 1692634409 789338046 -873024431 1630539825 1990726889 -238338191 -70437295
REM
CELL 1.54180   50.00000   50.00000   50.00000   90.00000   90.00000   90.00000
LATT -1
SFAC C  
C      1  0.5733210000000  0.4969820000000  0.3936380000000 1.0
C      1  0.4221790000000  0.4997830000000  0.3999230000000 1.0
C      1  0.5985320000000  0.4385630000000  0.4854710000000 1.0
C      1  0.4085800000000  0.4322160000000  0.4904790000000 1.0
C      1  0.4738460000000  0.6007530000000  0.4849530000000 1.0
C      1  0.5293690000000  0.6085460000000  0.4979130000000 1.0
C      1  0.5958340000000  0.5190460000000  0.5017890000000 1.0
C      1  0.4068590000000  0.5139020000000  0.4965330000000 1.0
C      1  0.4855810000000  0.4376220000000  0.5879230000000 1.0
C      1  0.5153140000000  0.4381590000000  0.5875630000000 1.0
C      1  0.5726600000000  0.4701280000000  0.3926270000000 1.0
C      1  0.4213380000000  0.4729010000000  0.3987210000000 1.0
C      1  0.4025830000000  0.4989050000000  0.4728030000000 1.0
C      1  0.5976810000000  0.5058770000000  0.4761230000000 1.0
C      1  0.4315270000000  0.5226750000000  0.5514030000000 1.0
C      1  0.5673330000000  0.5228330000000  0.5558900000000 1.0
C      1  0.5543140000000  0.4514770000000  0.4031590000000 1.0
C      1  0.4403660000000  0.4529150000000  0.4046420000000 1.0
C      1  0.4754520000000  0.4594710000000  0.6047970000000 1.0
C      1  0.5248300000000  0.4602720000000  0.6041250000000 1.0
C      1  0.5281450000000  0.5185430000000  0.6277980000000 1.0
C      1  0.4680690000000  0.5178640000000  0.6270690000000 1.0
C      1  0.5549300000000  0.5155130000000  0.3998910000000 1.0
C      1  0.4408190000000  0.5188550000000  0.4033150000000 1.0
C      1  0.5381900000000  0.4268070000000  0.4688690000000 1.0
C      1  0.4666790000000  0.4277580000000  0.4665760000000 1.0
C      1  0.5412240000000  0.4993250000000  0.4984260000000 1.0
C      1  0.4642760000000  0.4978470000000  0.5070530000000 1.0
C      1  0.5289800000000  0.5260580000000  0.4518460000000 1.0
C      1  0.4907150000000  0.5382540000000  0.4914550000000 1.0
C      1  0.5238930000000  0.4728470000000  0.4704320000000 1.0
C      1  0.4568320000000  0.4925590000000  0.4559390000000 1.0
C      1  0.5412070000000  0.5161490000000  0.5672770000000 1.0
C      1  0.4566530000000  0.5156340000000  0.5659800000000 1.0
C      1  0.5862520000000  0.5018300000000  0.5490020000000 1.0
C      1  0.4118530000000  0.5015260000000  0.5464700000000 1.0
C      1  0.4858500000000  0.4244770000000  0.5392590000000 1.0
C      1  0.5146130000000  0.4238290000000  0.5397050000000 1.0
C      1  0.4959420000000  0.5518120000000  0.4670450000000 1.0
C      1  0.5210660000000  0.5541310000000  0.4554030000000 1.0
C      1  0.5610130000000  0.4388200000000  0.4553930000000 1.0
C      1  0.4413500000000  0.4357540000000  0.4550780000000 1.0
C      1  0.5233920000000  0.4673960000000  0.4452720000000 1.0
C      1  0.4720280000000  0.4750810000000  0.4442950000000 1.0
C      1  0.5862240000000  0.4995510000000  0.5197090000000 1.0
C      1  0.4144320000000  0.4970100000000  0.5174280000000 1.0
C      1  0.4386120000000  0.4655190000000  0.5392540000000 1.0
C      1  0.5599400000000  0.4669300000000  0.5370210000000 1.0
C      1  0.4649640000000  0.5832640000000  0.5296100000000 1.0
C      1  0.5271970000000  0.5781930000000  0.5345450000000 1.0
C      1  0.4838670000000  0.5928220000000  0.5112340000000 1.0
C      1  0.5124290000000  0.5939640000000  0.5164330000000 1.0
C      1  0.5133890000000  0.5200330000000  0.4277960000000 1.0
C      1  0.4844630000000  0.5297070000000  0.4261520000000 1.0
C      1  0.4833220000000  0.5308620000000  0.6072070000000 1.0
C      1  0.5129480000000  0.5310210000000  0.6075940000000 1.0
C      1  0.5373870000000  0.4947030000000  0.6363760000000 1.0
C      1  0.4602030000000  0.4936690000000  0.6360580000000 1.0
C      1  0.5167200000000  0.4220660000000  0.4874820000000 1.0
C      1  0.4866840000000  0.4232560000000  0.4866540000000 1.0
C      1  0.5818210000000  0.4741140000000  0.5556430000000 1.0
C      1  0.4158870000000  0.4744590000000  0.5556410000000 1.0
C      1  0.5587350000000  0.5450890000000  0.4848080000000 1.0
C      1  0.4441340000000  0.5400380000000  0.4849530000000 1.0
C      1  0.4679890000000  0.4885100000000  0.5680300000000 1.0
C      1  0.5301320000000  0.4892540000000  0.5669890000000 1.0
C      1  0.4615970000000  0.4637460000000  0.5545580000000 1.0
C      1  0.5364900000000  0.4652160000000  0.5521480000000 1.0
C      1  0.5576630000000  0.5729930000000  0.4770550000000 1.0
C      1  0.4516410000000  0.5574930000000  0.4631250000000 1.0
C      1  0.5707020000000  0.5463370000000  0.5387160000000 1.0
C      1  0.4295570000000  0.5440450000000  0.5309080000000 1.0
C      1  0.4625190000000  0.4677600000000  0.6282640000000 1.0
C      1  0.5369110000000  0.4689380000000  0.6278770000000 1.0
C      1  0.5894920000000  0.4815070000000  0.4661550000000 1.0
C      1  0.4092830000000  0.4735130000000  0.4656660000000 1.0
C      1  0.4831530000000  0.4608280000000  0.4229620000000 1.0
C      1  0.5109460000000  0.4581060000000  0.4224030000000 1.0
C      1  0.4218530000000  0.5380750000000  0.5023700000000 1.0
C      1  0.5902010000000  0.5436410000000  0.5167390000000 1.0
C      1  0.5261050000000  0.4182050000000  0.5145620000000 1.0
C      1  0.4754060000000  0.4208340000000  0.5132650000000 1.0
C      1  0.4741500000000  0.4388060000000  0.5609120000000 1.0
C      1  0.5259880000000  0.4396250000000  0.5602700000000 1.0
C      1  0.4896200000000  0.6209180000000  0.4727750000000 1.0
C      1  0.5155300000000  0.6251530000000  0.4796830000000 1.0
C      1  0.5408770000000  0.5733740000000  0.4540760000000 1.0
C      1  0.4747140000000  0.5472470000000  0.4476460000000 1.0
C      1  0.5618980000000  0.4847750000000  0.5132000000000 1.0
C      1  0.4405300000000  0.4830900000000  0.5155980000000 1.0
C      1  0.4439190000000  0.5679530000000  0.5354220000000 1.0
C      1  0.5505070000000  0.5659560000000  0.5396440000000 1.0
C      1  0.4787550000000  0.4758770000000  0.3793720000000 1.0
C      1  0.5147470000000  0.4699030000000  0.3770320000000 1.0
C      1  0.4548470000000  0.5850510000000  0.4707380000000 1.0
C      1  0.5545190000000  0.5964010000000  0.4923920000000 1.0
C      1  0.5824650000000  0.4535200000000  0.4686500000000 1.0
C      1  0.4199240000000  0.4474240000000  0.4705900000000 1.0
C      1  0.4900440000000  0.4876220000000  0.5121630000000 1.0
C      1  0.5154320000000  0.4953430000000  0.5094340000000 1.0
C      1  0.5136360000000  0.4829320000000  0.5890350000000 1.0
C      1  0.4854240000000  0.4827360000000  0.5895900000000 1.0
C      1  0.4660660000000  0.5244880000000  0.4955240000000 1.0
C      1  0.5445070000000  0.5204090000000  0.4773890000000 1.0
C      1  0.4823610000000  0.5044560000000  0.3838940000000 1.0
C      1  0.5115000000000  0.5045160000000  0.3825340000000 1.0
C      1  0.5228490000000  0.5346610000000  0.5797040000000 1.0
C      1  0.4741040000000  0.5346050000000  0.5790180000000 1.0
C      1  0.5614830000000  0.4378690000000  0.4269680000000 1.0
C      1  0.4370040000000  0.4356800000000  0.4269430000000 1.0
C      1  0.5270580000000  0.5153220000000  0.4030240000000 1.0
C      1  0.4689630000000  0.5201520000000  0.4036090000000 1.0
C      1  0.4675420000000  0.4598410000000  0.3992200000000 1.0
C      1  0.5263180000000  0.4564470000000  0.3984660000000 1.0
C      1  0.4986340000000  0.5426800000000  0.5654480000000 1.0
END
