TITL C-3201377-4638-1617 9596.74942165646 125000 -1125.1535732509 0 0 190 (C1) n - 1
REM
REM in /home/nfs/bkarasulu/CARBON/AIRSS/Generating-Clusters/LCBOP/Higher-Symm/SD-CG/FIRE-CG
REM
REM
REM
REM
REM
REM ./C.cell (b20cbc046b6831c77cfcea5457e17084)
REM AIRSS Version 0.9.1 bugfix July 2018 build 013d7b7c2542+ Fri, 06 Jul 2018 19:26:36 +0100
REM compiler GCC version 9.2.1 20190827 (Red Hat 9.2.1-1)
REM options -cpp -mtune=generic -march=x86-64 -g -O0 -fpre-include=/usr/include/finclude/math-vector-fortran.h
REM seed 1615229019 415619049 1722351657 -1841586406 -159673119 1778907989 -635888761 2111949604 1358716269 818889661 1168671570 705415210 1405445171 2120084946 -1318843546 189848721 1652475503 613039590 -1748760559 -2108438536 778585425 -129278213 1568035332 -1664330007 359054944 -555444414 -1021577603 2044818680 1797527240 1504668398 -12184735 -1943940472 -1131333335
REM
CELL 1.54180   50.00000   50.00000   50.00000   90.00000   90.00000   90.00000
LATT -1
SFAC C  
C      1  0.5420710000000  0.3645180000000  0.5539760000000 1.0
C      1  0.5716310000000  0.5217310000000  0.3853000000000 1.0
C      1  0.3808760000000  0.5749680000000  0.5134300000000 1.0
C      1  0.4760080000000  0.3826210000000  0.4414200000000 1.0
C      1  0.5196010000000  0.6162440000000  0.4257630000000 1.0
C      1  0.4749100000000  0.6149160000000  0.5700910000000 1.0
C      1  0.4231330000000  0.5233140000000  0.6109200000000 1.0
C      1  0.5655080000000  0.4687520000000  0.6132750000000 1.0
C      1  0.4314540000000  0.4837710000000  0.3860100000000 1.0
C      1  0.6145580000000  0.5687470000000  0.4797040000000 1.0
C      1  0.3808020000000  0.4349890000000  0.4830560000000 1.0
C      1  0.6224650000000  0.4328420000000  0.5123630000000 1.0
C      1  0.5139630000000  0.5689720000000  0.5979630000000 1.0
C      1  0.6204790000000  0.5054530000000  0.5751170000000 1.0
C      1  0.5705230000000  0.6097060000000  0.5113460000000 1.0
C      1  0.4863580000000  0.5640380000000  0.3931880000000 1.0
C      1  0.5004780000000  0.4185580000000  0.3931730000000 1.0
C      1  0.4886720000000  0.4336830000000  0.6066180000000 1.0
C      1  0.3964300000000  0.5183260000000  0.4320440000000 1.0
C      1  0.6161880000000  0.4868950000000  0.4399750000000 1.0
C      1  0.3756520000000  0.4922940000000  0.5590750000000 1.0
C      1  0.4285710000000  0.6139500000000  0.4862370000000 1.0
C      1  0.5789960000000  0.4041170000000  0.4795010000000 1.0
C      1  0.4329110000000  0.3897720000000  0.5217570000000 1.0
C      1  0.4784500000000  0.3838950000000  0.5162530000000 1.0
C      1  0.5090750000000  0.4619980000000  0.3839590000000 1.0
C      1  0.3731820000000  0.5063870000000  0.4688180000000 1.0
C      1  0.5411980000000  0.3795180000000  0.4798690000000 1.0
C      1  0.4711690000000  0.6274030000000  0.4934840000000 1.0
C      1  0.5289310000000  0.6267330000000  0.5063150000000 1.0
C      1  0.5093290000000  0.4728310000000  0.6156380000000 1.0
C      1  0.5139540000000  0.5328420000000  0.6249630000000 1.0
C      1  0.5001850000000  0.5240060000000  0.3771360000000 1.0
C      1  0.6215070000000  0.5138440000000  0.5307400000000 1.0
C      1  0.3655670000000  0.5050660000000  0.5169130000000 1.0
C      1  0.6253740000000  0.5026210000000  0.4813350000000 1.0
C      1  0.5029440000000  0.4449790000000  0.5300880000000 1.0
C      1  0.5304820000000  0.4973220000000  0.4575970000000 1.0
C      1  0.4513970000000  0.5268090000000  0.4967320000000 1.0
C      1  0.5072010000000  0.4619510000000  0.4807910000000 1.0
C      1  0.5000060000000  0.5483170000000  0.4739520000000 1.0
C      1  0.4963770000000  0.5425630000000  0.5282360000000 1.0
C      1  0.4641520000000  0.5105270000000  0.5498550000000 1.0
C      1  0.5201320000000  0.5058760000000  0.5418680000000 1.0
C      1  0.4737690000000  0.4971610000000  0.4633420000000 1.0
C      1  0.5357430000000  0.5285020000000  0.5006330000000 1.0
C      1  0.4510380000000  0.4748410000000  0.5001660000000 1.0
C      1  0.5417940000000  0.4706320000000  0.5110030000000 1.0
C      1  0.4603590000000  0.4462250000000  0.4567200000000 1.0
C      1  0.4614980000000  0.4734460000000  0.4466150000000 1.0
C      1  0.4372570000000  0.4490940000000  0.4756280000000 1.0
C      1  0.5181730000000  0.4230070000000  0.5412200000000 1.0
C      1  0.4723720000000  0.5586320000000  0.5340130000000 1.0
C      1  0.5242550000000  0.5615450000000  0.4606720000000 1.0
C      1  0.5618430000000  0.4627020000000  0.5595230000000 1.0
C      1  0.4408350000000  0.5285620000000  0.5471790000000 1.0
C      1  0.5461260000000  0.5220470000000  0.4465210000000 1.0
C      1  0.5621840000000  0.4588060000000  0.5299200000000 1.0
C      1  0.4440300000000  0.5486870000000  0.5256050000000 1.0
C      1  0.5483590000000  0.5425650000000  0.4699680000000 1.0
C      1  0.5380310000000  0.3994320000000  0.5006470000000 1.0
C      1  0.5131430000000  0.5268790000000  0.4028550000000 1.0
C      1  0.3926280000000  0.5151120000000  0.5211120000000 1.0
C      1  0.4704300000000  0.4069410000000  0.4979290000000 1.0
C      1  0.5300980000000  0.6038510000000  0.4887770000000 1.0
C      1  0.4686860000000  0.6022160000000  0.5075280000000 1.0
C      1  0.4939940000000  0.5274050000000  0.6046100000000 1.0
C      1  0.5173310000000  0.4665870000000  0.5880550000000 1.0
C      1  0.4899080000000  0.4624570000000  0.4055910000000 1.0
C      1  0.5977390000000  0.5106260000000  0.4765240000000 1.0
C      1  0.3987640000000  0.4927580000000  0.4716770000000 1.0
C      1  0.6029260000000  0.4916420000000  0.5333320000000 1.0
C      1  0.4371860000000  0.4368090000000  0.4071920000000 1.0
C      1  0.4069180000000  0.4530400000000  0.4408780000000 1.0
C      1  0.4304110000000  0.4016660000000  0.4575460000000 1.0
C      1  0.5478390000000  0.4251070000000  0.5877640000000 1.0
C      1  0.4474150000000  0.5600190000000  0.5857420000000 1.0
C      1  0.5509890000000  0.5618970000000  0.4116630000000 1.0
C      1  0.6068350000000  0.4392870000000  0.5612920000000 1.0
C      1  0.3985930000000  0.5540110000000  0.5577040000000 1.0
C      1  0.5933350000000  0.5471960000000  0.4377120000000 1.0
C      1  0.5702640000000  0.4075410000000  0.5464200000000 1.0
C      1  0.4322810000000  0.5930030000000  0.5501750000000 1.0
C      1  0.5627890000000  0.5940830000000  0.4447050000000 1.0
C      1  0.4741660000000  0.4805320000000  0.4198100000000 1.0
C      1  0.4101860000000  0.4720820000000  0.4861720000000 1.0
C      1  0.4792920000000  0.4231470000000  0.4753930000000 1.0
C      1  0.5400220000000  0.4755750000000  0.5731520000000 1.0
C      1  0.4777320000000  0.5050470000000  0.6024250000000 1.0
C      1  0.5345990000000  0.5162680000000  0.4171490000000 1.0
C      1  0.5871820000000  0.4738420000000  0.5181870000000 1.0
C      1  0.4107090000000  0.5333720000000  0.5099380000000 1.0
C      1  0.5795440000000  0.5295850000000  0.4856490000000 1.0
C      1  0.5209990000000  0.4016670000000  0.5226650000000 1.0
C      1  0.4826490000000  0.5860710000000  0.5255060000000 1.0
C      1  0.5157340000000  0.5903370000000  0.4691520000000 1.0
C      1  0.6096000000000  0.5617410000000  0.4539270000000 1.0
C      1  0.4491540000000  0.6087410000000  0.5644510000000 1.0
C      1  0.5598420000000  0.4427360000000  0.6055740000000 1.0
C      1  0.3841150000000  0.5685710000000  0.5397100000000 1.0
C      1  0.6204250000000  0.4310820000000  0.5392780000000 1.0
C      1  0.3886930000000  0.4404300000000  0.4572360000000 1.0
C      1  0.5456400000000  0.6103080000000  0.4310400000000 1.0
C      1  0.4494760000000  0.3860240000000  0.4460280000000 1.0
C      1  0.5617490000000  0.3830850000000  0.5543490000000 1.0
C      1  0.4295180000000  0.4572060000000  0.3909560000000 1.0
C      1  0.5648960000000  0.5468960000000  0.3935270000000 1.0
C      1  0.4311870000000  0.5479080000000  0.6034250000000 1.0
C      1  0.5578500000000  0.5932070000000  0.4912740000000 1.0
C      1  0.4933360000000  0.5515300000000  0.5868410000000 1.0
C      1  0.6031940000000  0.4861230000000  0.5628050000000 1.0
C      1  0.4400610000000  0.5940890000000  0.5037940000000 1.0
C      1  0.5628630000000  0.4152650000000  0.5009530000000 1.0
C      1  0.4410420000000  0.4091170000000  0.5025910000000 1.0
C      1  0.5048410000000  0.5538340000000  0.4128360000000 1.0
C      1  0.4836180000000  0.4337520000000  0.4110700000000 1.0
C      1  0.5052610000000  0.4397090000000  0.5839070000000 1.0
C      1  0.4127820000000  0.4992700000000  0.4460940000000 1.0
C      1  0.5929650000000  0.5015260000000  0.4483880000000 1.0
C      1  0.3979220000000  0.5077990000000  0.5498280000000 1.0
C      1  0.4543540000000  0.3740850000000  0.5288280000000 1.0
C      1  0.5152200000000  0.4357880000000  0.3771450000000 1.0
C      1  0.3725110000000  0.5216700000000  0.4456310000000 1.0
C      1  0.5657940000000  0.3828600000000  0.4674620000000 1.0
C      1  0.4472800000000  0.6337310000000  0.4807970000000 1.0
C      1  0.5530890000000  0.6296520000000  0.5197060000000 1.0
C      1  0.4921950000000  0.4533760000000  0.6257970000000 1.0
C      1  0.5255630000000  0.5575640000000  0.6204100000000 1.0
C      1  0.4843810000000  0.5462810000000  0.3719080000000 1.0
C      1  0.6313460000000  0.5217290000000  0.5554930000000 1.0
C      1  0.3562860000000  0.4914180000000  0.5392730000000 1.0
C      1  0.6356310000000  0.4885170000000  0.4596770000000 1.0
C      1  0.4380790000000  0.5422460000000  0.4754050000000 1.0
C      1  0.4771960000000  0.4496150000000  0.5405130000000 1.0
C      1  0.5427760000000  0.4759660000000  0.4388930000000 1.0
C      1  0.5584070000000  0.5449390000000  0.5232270000000 1.0
C      1  0.4359400000000  0.4669130000000  0.5234980000000 1.0
C      1  0.5617080000000  0.4612680000000  0.4803270000000 1.0
C      1  0.5203230000000  0.4413810000000  0.4636060000000 1.0
C      1  0.4781810000000  0.5636680000000  0.4607780000000 1.0
C      1  0.5184300000000  0.5612470000000  0.5424660000000 1.0
C      1  0.4570700000000  0.4864110000000  0.5637250000000 1.0
C      1  0.5386920000000  0.5204850000000  0.5608410000000 1.0
C      1  0.4657770000000  0.5207350000000  0.4423570000000 1.0
C      1  0.5171340000000  0.3607120000000  0.5436180000000 1.0
C      1  0.5663480000000  0.4956030000000  0.3922880000000 1.0
C      1  0.3920050000000  0.5689090000000  0.4890600000000 1.0
C      1  0.5000190000000  0.3950480000000  0.4455680000000 1.0
C      1  0.4943150000000  0.6089270000000  0.4335240000000 1.0
C      1  0.5002150000000  0.6075030000000  0.5630810000000 1.0
C      1  0.4311200000000  0.4982390000000  0.6045760000000 1.0
C      1  0.5627320000000  0.4955640000000  0.6056230000000 1.0
C      1  0.4434930000000  0.5063520000000  0.3954380000000 1.0
C      1  0.6034320000000  0.5641300000000  0.5042850000000 1.0
C      1  0.3882900000000  0.4414010000000  0.5090750000000 1.0
C      1  0.6102310000000  0.4440270000000  0.4907400000000 1.0
C      1  0.5818280000000  0.5460150000000  0.5082990000000 1.0
C      1  0.5062620000000  0.5885560000000  0.5428210000000 1.0
C      1  0.5482960000000  0.5027220000000  0.5813900000000 1.0
C      1  0.4116580000000  0.5484860000000  0.4858340000000 1.0
C      1  0.5880430000000  0.4618920000000  0.4912880000000 1.0
C      1  0.4082090000000  0.4619350000000  0.5132390000000 1.0
C      1  0.4891000000000  0.5911520000000  0.4554190000000 1.0
C      1  0.5035340000000  0.4185000000000  0.4612960000000 1.0
C      1  0.5039410000000  0.3795920000000  0.5271010000000 1.0
C      1  0.4632940000000  0.5073950000000  0.4157200000000 1.0
C      1  0.5472130000000  0.4891560000000  0.4127530000000 1.0
C      1  0.4553820000000  0.4912700000000  0.5917730000000 1.0
C      1  0.4293340000000  0.4202630000000  0.4795760000000 1.0
C      1  0.4591320000000  0.4310380000000  0.4242870000000 1.0
C      1  0.4254690000000  0.4755550000000  0.4389370000000 1.0
C      1  0.5672400000000  0.4275450000000  0.5259650000000 1.0
C      1  0.4317590000000  0.5776520000000  0.5255720000000 1.0
C      1  0.5642920000000  0.5785960000000  0.4683650000000 1.0
C      1  0.5242640000000  0.4238630000000  0.5696880000000 1.0
C      1  0.4712250000000  0.5580600000000  0.5709190000000 1.0
C      1  0.5269390000000  0.5628400000000  0.4282850000000 1.0
C      1  0.5901690000000  0.4615870000000  0.5679310000000 1.0
C      1  0.4140710000000  0.5294390000000  0.5583060000000 1.0
C      1  0.5777210000000  0.5229260000000  0.4380480000000 1.0
C      1  0.4923560000000  0.5154660000000  0.5414200000000 1.0
C      1  0.5343340000000  0.5004950000000  0.5157810000000 1.0
C      1  0.5072160000000  0.5390800000000  0.5000240000000 1.0
C      1  0.5146370000000  0.4586640000000  0.5080970000000 1.0
C      1  0.5042570000000  0.4885700000000  0.4681560000000 1.0
C      1  0.4593540000000  0.4999750000000  0.4900360000000 1.0
C      1  0.4535170000000  0.4642650000000  0.5461070000000 1.0
C      1  0.5460510000000  0.4539700000000  0.4575150000000 1.0
C      1  0.4568400000000  0.5458290000000  0.4542040000000 1.0
C      1  0.5429770000000  0.5463660000000  0.5468570000000 1.0
END
