TITL C-3201374-830-388 -8.25363561988458e-07 125000 -783.753513456397 0 0 132 (C1) n - 1
REM
REM in /home/nfs/bkarasulu/CARBON/AIRSS/Generating-Clusters/LCBOP/Higher-Symm/SD-CG/FIRE-CG
REM
REM
REM
REM
REM
REM ./C.cell (b20cbc046b6831c77cfcea5457e17084)
REM AIRSS Version 0.9.1 bugfix July 2018 build 013d7b7c2542+ Fri, 06 Jul 2018 19:26:36 +0100
REM compiler GCC version 9.2.1 20190827 (Red Hat 9.2.1-1)
REM options -cpp -mtune=generic -march=x86-64 -g -O0 -fpre-include=/usr/include/finclude/math-vector-fortran.h
REM seed 485959975 -1623066916 -1801965913 -958253830 -1652242138 -733495530 -72971128 -96039942 1380315011 592967471 -1085752166 2004224674 1878897084 -2078031598 -781516801 -648940761 -1825620417 -1481098127 -1498867540 -1986043627 -1082311713 548941165 846903124 -1167107275 -1814223741 1817426747 257956890 -1479023978 804527787 -1962901702 -135861589 -1780117610 -1334470365
REM
CELL 1.54180   50.00000   50.00000   50.00000   90.00000   90.00000   90.00000
LATT -1
SFAC C  
C      1  0.5093860000000  0.5417680000000  0.4653970000000 1.0
C      1  0.5127670000000  0.5278200000000  0.5447890000000 1.0
C      1  0.5134110000000  0.4645750000000  0.5283560000000 1.0
C      1  0.5094400000000  0.4752240000000  0.4629270000000 1.0
C      1  0.4869320000000  0.4608330000000  0.4737420000000 1.0
C      1  0.4886650000000  0.4750670000000  0.5406880000000 1.0
C      1  0.4892950000000  0.5385740000000  0.5328930000000 1.0
C      1  0.4855780000000  0.5335430000000  0.4523440000000 1.0
C      1  0.4535310000000  0.4228530000000  0.4783260000000 1.0
C      1  0.4526750000000  0.5241690000000  0.4168130000000 1.0
C      1  0.4530150000000  0.5742670000000  0.5234710000000 1.0
C      1  0.4519780000000  0.4772170000000  0.5765990000000 1.0
C      1  0.5464250000000  0.5755960000000  0.4759580000000 1.0
C      1  0.5460870000000  0.4778850000000  0.4255620000000 1.0
C      1  0.5476330000000  0.4257670000000  0.5226650000000 1.0
C      1  0.5469120000000  0.5216600000000  0.5803870000000 1.0
C      1  0.4314120000000  0.5640620000000  0.5403260000000 1.0
C      1  0.4308930000000  0.4604530000000  0.5649940000000 1.0
C      1  0.4318640000000  0.4330220000000  0.4618050000000 1.0
C      1  0.4325960000000  0.5407660000000  0.4301650000000 1.0
C      1  0.5691560000000  0.4344480000000  0.5401400000000 1.0
C      1  0.5668030000000  0.5375480000000  0.5661760000000 1.0
C      1  0.5673690000000  0.5646300000000  0.4588240000000 1.0
C      1  0.5675460000000  0.4604610000000  0.4349350000000 1.0
C      1  0.5535390000000  0.4982980000000  0.4073960000000 1.0
C      1  0.5547750000000  0.5906800000000  0.4982500000000 1.0
C      1  0.5549290000000  0.5002830000000  0.5970580000000 1.0
C      1  0.5544690000000  0.4084000000000  0.5014060000000 1.0
C      1  0.4441770000000  0.5011220000000  0.4030560000000 1.0
C      1  0.4466970000000  0.4055710000000  0.4995640000000 1.0
C      1  0.4441810000000  0.4978590000000  0.5943710000000 1.0
C      1  0.4453510000000  0.5896590000000  0.5011050000000 1.0
C      1  0.6109850000000  0.4807190000000  0.4651510000000 1.0
C      1  0.6100880000000  0.5336970000000  0.4801530000000 1.0
C      1  0.6076190000000  0.5173420000000  0.5323160000000 1.0
C      1  0.6110130000000  0.4647260000000  0.5175620000000 1.0
C      1  0.3952880000000  0.5173530000000  0.4652080000000 1.0
C      1  0.3912760000000  0.4647590000000  0.4808580000000 1.0
C      1  0.3878690000000  0.4809730000000  0.5328550000000 1.0
C      1  0.3890620000000  0.5336270000000  0.5174100000000 1.0
C      1  0.4832760000000  0.4307810000000  0.4756020000000 1.0
C      1  0.4830680000000  0.5271390000000  0.4229940000000 1.0
C      1  0.4835400000000  0.5680590000000  0.5265600000000 1.0
C      1  0.4823440000000  0.4756540000000  0.5704060000000 1.0
C      1  0.5157400000000  0.5706060000000  0.4730800000000 1.0
C      1  0.5158650000000  0.4766600000000  0.4327860000000 1.0
C      1  0.5180270000000  0.4341740000000  0.5250380000000 1.0
C      1  0.5169680000000  0.5245760000000  0.5743210000000 1.0
C      1  0.3865760000000  0.5316900000000  0.4886350000000 1.0
C      1  0.3822880000000  0.5093750000000  0.5317450000000 1.0
C      1  0.3824050000000  0.4668490000000  0.5081940000000 1.0
C      1  0.4020040000000  0.4896280000000  0.4693620000000 1.0
C      1  0.6161560000000  0.4658600000000  0.4892900000000 1.0
C      1  0.6150320000000  0.4896280000000  0.5314380000000 1.0
C      1  0.6133420000000  0.5325260000000  0.5086980000000 1.0
C      1  0.6167650000000  0.5091090000000  0.4662930000000 1.0
C      1  0.5477230000000  0.5497680000000  0.4102900000000 1.0
C      1  0.5478180000000  0.5855440000000  0.5495660000000 1.0
C      1  0.5479010000000  0.4495360000000  0.5880750000000 1.0
C      1  0.5477400000000  0.4126220000000  0.4501600000000 1.0
C      1  0.4513400000000  0.4506950000000  0.4141830000000 1.0
C      1  0.4528960000000  0.4131980000000  0.5502040000000 1.0
C      1  0.4517530000000  0.5488990000000  0.5885550000000 1.0
C      1  0.4520600000000  0.5874680000000  0.4492820000000 1.0
C      1  0.5930210000000  0.4698420000000  0.4451740000000 1.0
C      1  0.5925150000000  0.5537480000000  0.4685180000000 1.0
C      1  0.5899490000000  0.5273210000000  0.5525980000000 1.0
C      1  0.5943300000000  0.4442260000000  0.5294920000000 1.0
C      1  0.4094100000000  0.5303820000000  0.4437250000000 1.0
C      1  0.4062720000000  0.4416180000000  0.4719770000000 1.0
C      1  0.4057400000000  0.4697950000000  0.5532040000000 1.0
C      1  0.4061280000000  0.5538750000000  0.5298080000000 1.0
C      1  0.4964930000000  0.5477580000000  0.4063400000000 1.0
C      1  0.4964850000000  0.5859300000000  0.5469630000000 1.0
C      1  0.4959230000000  0.4532070000000  0.5852890000000 1.0
C      1  0.4965890000000  0.4153270000000  0.4538320000000 1.0
C      1  0.5027210000000  0.4539930000000  0.4177910000000 1.0
C      1  0.5044020000000  0.4185680000000  0.5470730000000 1.0
C      1  0.5036130000000  0.5465580000000  0.5897540000000 1.0
C      1  0.5032090000000  0.5893790000000  0.4534220000000 1.0
C      1  0.5670040000000  0.4825970000000  0.5237840000000 1.0
C      1  0.5678450000000  0.4813340000000  0.4959270000000 1.0
C      1  0.5708520000000  0.5060740000000  0.4826450000000 1.0
C      1  0.5646220000000  0.5283710000000  0.4989570000000 1.0
C      1  0.4295770000000  0.5067460000000  0.5195320000000 1.0
C      1  0.4351380000000  0.5295190000000  0.5035900000000 1.0
C      1  0.4298820000000  0.4872920000000  0.4762950000000 1.0
C      1  0.4321010000000  0.4827760000000  0.5045570000000 1.0
C      1  0.4304310000000  0.5098860000000  0.5464630000000 1.0
C      1  0.4354410000000  0.4578250000000  0.5147970000000 1.0
C      1  0.4502260000000  0.4992930000000  0.4613380000000 1.0
C      1  0.4615590000000  0.5299370000000  0.4946630000000 1.0
C      1  0.5635560000000  0.4843800000000  0.5494010000000 1.0
C      1  0.5374840000000  0.5301010000000  0.5040670000000 1.0
C      1  0.5688000000000  0.5097860000000  0.4557370000000 1.0
C      1  0.5614880000000  0.4580700000000  0.4835340000000 1.0
C      1  0.4427470000000  0.5241810000000  0.5985280000000 1.0
C      1  0.4443300000000  0.4020770000000  0.5258800000000 1.0
C      1  0.4416860000000  0.4745830000000  0.4030680000000 1.0
C      1  0.4426150000000  0.5936940000000  0.4749630000000 1.0
C      1  0.5569370000000  0.4737020000000  0.5995270000000 1.0
C      1  0.5572400000000  0.5939160000000  0.5245260000000 1.0
C      1  0.5562100000000  0.5242660000000  0.4020980000000 1.0
C      1  0.5567240000000  0.4036750000000  0.4752540000000 1.0
C      1  0.5222830000000  0.5220850000000  0.4805870000000 1.0
C      1  0.5279590000000  0.5135990000000  0.5256950000000 1.0
C      1  0.5229500000000  0.4869770000000  0.5123630000000 1.0
C      1  0.5196900000000  0.4931440000000  0.4828130000000 1.0
C      1  0.4750420000000  0.4751500000000  0.4952120000000 1.0
C      1  0.4771470000000  0.4906030000000  0.5191480000000 1.0
C      1  0.4770960000000  0.5193420000000  0.5160120000000 1.0
C      1  0.4656880000000  0.5218690000000  0.4683440000000 1.0
C      1  0.4786320000000  0.5554910000000  0.5938330000000 1.0
C      1  0.4803400000000  0.4108850000000  0.5558650000000 1.0
C      1  0.4786220000000  0.4451470000000  0.4104280000000 1.0
C      1  0.4787360000000  0.5945410000000  0.4438020000000 1.0
C      1  0.5204220000000  0.4440930000000  0.5912680000000 1.0
C      1  0.5211000000000  0.5917270000000  0.5557240000000 1.0
C      1  0.5214830000000  0.5570020000000  0.4031360000000 1.0
C      1  0.5205860000000  0.4082450000000  0.4444400000000 1.0
C      1  0.4373160000000  0.4329740000000  0.5626630000000 1.0
C      1  0.4373310000000  0.4375620000000  0.4345600000000 1.0
C      1  0.4388370000000  0.5679990000000  0.4340540000000 1.0
C      1  0.4373970000000  0.5613170000000  0.5678070000000 1.0
C      1  0.5611530000000  0.5649850000000  0.5630880000000 1.0
C      1  0.5612570000000  0.5624190000000  0.4313600000000 1.0
C      1  0.5617700000000  0.4328760000000  0.4367000000000 1.0
C      1  0.5628900000000  0.4368890000000  0.5677110000000 1.0
C      1  0.4990760000000  0.5000260000000  0.5803260000000 1.0
C      1  0.5010630000000  0.4251600000000  0.5005300000000 1.0
C      1  0.4999040000000  0.5738270000000  0.5001160000000 1.0
C      1  0.4997600000000  0.5011390000000  0.4215690000000 1.0
END
