TITL C-3201376-6384-1310 0.233360568143382 125000 -705.571552327941 0 0 114 (C1) n - 1
REM
REM in /home/nfs/bkarasulu/CARBON/AIRSS/Generating-Clusters/LCBOP/Higher-Symm/SD-CG/FIRE-CG
REM
REM
REM
REM
REM
REM ./C.cell (b20cbc046b6831c77cfcea5457e17084)
REM AIRSS Version 0.9.1 bugfix July 2018 build 013d7b7c2542+ Fri, 06 Jul 2018 19:26:36 +0100
REM compiler GCC version 9.2.1 20190827 (Red Hat 9.2.1-1)
REM options -cpp -mtune=generic -march=x86-64 -g -O0 -fpre-include=/usr/include/finclude/math-vector-fortran.h
REM seed -1841384678 -1700942636 922440627 1918225575 108968328 -293314353 110461745 -191683334 238384836 152794598 -1958860080 -765856807 -587597837 746382789 -1354922550 -1285125866 1308472355 269217680 -572015088 2074243667 -642572110 494294763 -1935915555 1597083078 1864534399 180748607 782136243 -397818149 1595618943 1191394373 -969370866 1039214171 -1091226982
REM
CELL 1.54180   50.00000   50.00000   50.00000   90.00000   90.00000   90.00000
LATT -1
SFAC C  
C      1  0.4055040000000  0.5273130000000  0.4482570000000 1.0
C      1  0.5956480000000  0.5104280000000  0.4686670000000 1.0
C      1  0.4515340000000  0.4474650000000  0.5490270000000 1.0
C      1  0.4623900000000  0.5535820000000  0.4916260000000 1.0
C      1  0.5104350000000  0.4569360000000  0.5882420000000 1.0
C      1  0.6164620000000  0.5091030000000  0.4247320000000 1.0
C      1  0.5940430000000  0.5134380000000  0.4399480000000 1.0
C      1  0.4409240000000  0.5613620000000  0.5527250000000 1.0
C      1  0.4651320000000  0.4403300000000  0.5706890000000 1.0
C      1  0.4541760000000  0.4716800000000  0.4405300000000 1.0
C      1  0.5675590000000  0.4829740000000  0.5780360000000 1.0
C      1  0.4680430000000  0.6192050000000  0.5616110000000 1.0
C      1  0.4796880000000  0.5399890000000  0.5088340000000 1.0
C      1  0.5976920000000  0.3971290000000  0.4791780000000 1.0
C      1  0.5075280000000  0.6600100000000  0.4594510000000 1.0
C      1  0.4821830000000  0.5696230000000  0.4455970000000 1.0
C      1  0.4342870000000  0.5143310000000  0.5560590000000 1.0
C      1  0.4443440000000  0.4573480000000  0.5239770000000 1.0
C      1  0.4066850000000  0.4900730000000  0.4814730000000 1.0
C      1  0.5413490000000  0.5437190000000  0.5255210000000 1.0
C      1  0.4445890000000  0.5490070000000  0.4237840000000 1.0
C      1  0.5697890000000  0.4491120000000  0.5407140000000 1.0
C      1  0.4796950000000  0.4701510000000  0.4829750000000 1.0
C      1  0.4418880000000  0.4190840000000  0.4848590000000 1.0
C      1  0.5784910000000  0.4481860000000  0.5117590000000 1.0
C      1  0.5219370000000  0.6179640000000  0.5171180000000 1.0
C      1  0.4136270000000  0.4955530000000  0.5537970000000 1.0
C      1  0.5890650000000  0.5459840000000  0.5048430000000 1.0
C      1  0.4210880000000  0.5324900000000  0.5132890000000 1.0
C      1  0.4617100000000  0.4563180000000  0.5015930000000 1.0
C      1  0.5439320000000  0.4096420000000  0.4338060000000 1.0
C      1  0.5477640000000  0.4575120000000  0.4250990000000 1.0
C      1  0.5224300000000  0.3472170000000  0.5923760000000 1.0
C      1  0.5600490000000  0.4790280000000  0.4682160000000 1.0
C      1  0.5555460000000  0.4033050000000  0.4571150000000 1.0
C      1  0.5297930000000  0.5504380000000  0.5842150000000 1.0
C      1  0.5044870000000  0.4559540000000  0.4894280000000 1.0
C      1  0.5629800000000  0.4586960000000  0.4491140000000 1.0
C      1  0.5042830000000  0.4899590000000  0.5529520000000 1.0
C      1  0.4727520000000  0.5704240000000  0.4720210000000 1.0
C      1  0.5834980000000  0.4877120000000  0.4812400000000 1.0
C      1  0.3595010000000  0.4881540000000  0.3676680000000 1.0
C      1  0.5549050000000  0.5034210000000  0.4089930000000 1.0
C      1  0.4072650000000  0.4824050000000  0.4325660000000 1.0
C      1  0.5097250000000  0.4841750000000  0.5803470000000 1.0
C      1  0.4649700000000  0.5617880000000  0.5964890000000 1.0
C      1  0.5194240000000  0.4798090000000  0.5319560000000 1.0
C      1  0.4174850000000  0.4630750000000  0.5174100000000 1.0
C      1  0.5578770000000  0.4614170000000  0.5939460000000 1.0
C      1  0.3441240000000  0.4904100000000  0.3467370000000 1.0
C      1  0.4648360000000  0.5043140000000  0.5918980000000 1.0
C      1  0.4068880000000  0.4872710000000  0.5279940000000 1.0
C      1  0.4845160000000  0.5227350000000  0.4321310000000 1.0
C      1  0.5168800000000  0.5452520000000  0.5388910000000 1.0
C      1  0.5288030000000  0.3715450000000  0.5855100000000 1.0
C      1  0.5428210000000  0.4175170000000  0.5184010000000 1.0
C      1  0.5371300000000  0.4961150000000  0.4662290000000 1.0
C      1  0.5498230000000  0.4285490000000  0.5445850000000 1.0
C      1  0.5183110000000  0.6054620000000  0.5402920000000 1.0
C      1  0.4929460000000  0.5315560000000  0.5317590000000 1.0
C      1  0.5211960000000  0.4688340000000  0.5078160000000 1.0
C      1  0.3907610000000  0.4837030000000  0.4102240000000 1.0
C      1  0.4603770000000  0.5080920000000  0.5642040000000 1.0
C      1  0.5693160000000  0.5209700000000  0.4270090000000 1.0
C      1  0.5401470000000  0.4224290000000  0.5703650000000 1.0
C      1  0.5030770000000  0.6135120000000  0.4483100000000 1.0
C      1  0.5096410000000  0.6336920000000  0.4665930000000 1.0
C      1  0.5557220000000  0.5444920000000  0.4361340000000 1.0
C      1  0.5370930000000  0.4836980000000  0.4202990000000 1.0
C      1  0.5349180000000  0.5235810000000  0.5920800000000 1.0
C      1  0.4718250000000  0.5477360000000  0.4305350000000 1.0
C      1  0.5443740000000  0.5639910000000  0.4196410000000 1.0
C      1  0.4597440000000  0.5725800000000  0.5709140000000 1.0
C      1  0.4080260000000  0.5072540000000  0.5062720000000 1.0
C      1  0.4969910000000  0.4276020000000  0.4946190000000 1.0
C      1  0.5183970000000  0.6266620000000  0.4922830000000 1.0
C      1  0.4861500000000  0.5176100000000  0.6052860000000 1.0
C      1  0.5016340000000  0.5881470000000  0.4365500000000 1.0
C      1  0.4211220000000  0.4368850000000  0.4749850000000 1.0
C      1  0.5169780000000  0.4128150000000  0.5079820000000 1.0
C      1  0.5666650000000  0.5485880000000  0.5190110000000 1.0
C      1  0.4675530000000  0.4274670000000  0.4946180000000 1.0
C      1  0.5375570000000  0.5222410000000  0.4764870000000 1.0
C      1  0.5465150000000  0.5436950000000  0.4628980000000 1.0
C      1  0.4864440000000  0.4426550000000  0.5865160000000 1.0
C      1  0.3751340000000  0.4858630000000  0.3889490000000 1.0
C      1  0.4300250000000  0.5380040000000  0.5407540000000 1.0
C      1  0.5648480000000  0.4251990000000  0.5003070000000 1.0
C      1  0.4200360000000  0.4389260000000  0.4468260000000 1.0
C      1  0.5771680000000  0.4748730000000  0.5526350000000 1.0
C      1  0.5584820000000  0.5089990000000  0.5851970000000 1.0
C      1  0.4117610000000  0.4609450000000  0.4889110000000 1.0
C      1  0.4753700000000  0.4808550000000  0.4567250000000 1.0
C      1  0.5116800000000  0.5074250000000  0.5972680000000 1.0
C      1  0.5167140000000  0.5621190000000  0.5619940000000 1.0
C      1  0.5049180000000  0.5877080000000  0.5575550000000 1.0
C      1  0.4936240000000  0.4987680000000  0.4436800000000 1.0
C      1  0.4796150000000  0.5444000000000  0.6109210000000 1.0
C      1  0.5226470000000  0.5795280000000  0.4200880000000 1.0
C      1  0.4774360000000  0.5934990000000  0.5631230000000 1.0
C      1  0.4840660000000  0.5095500000000  0.5477270000000 1.0
C      1  0.5887830000000  0.4749270000000  0.5057730000000 1.0
C      1  0.5727660000000  0.4085250000000  0.4788340000000 1.0
C      1  0.5401700000000  0.4314320000000  0.4183090000000 1.0
C      1  0.4350590000000  0.5474790000000  0.4939620000000 1.0
C      1  0.4042990000000  0.5000790000000  0.4548840000000 1.0
C      1  0.5904650000000  0.4888040000000  0.5311860000000 1.0
C      1  0.5359600000000  0.4445540000000  0.5879180000000 1.0
C      1  0.4202040000000  0.5438290000000  0.4332820000000 1.0
C      1  0.4279590000000  0.4632510000000  0.4350240000000 1.0
C      1  0.5350950000000  0.3962940000000  0.5784610000000 1.0
C      1  0.6011700000000  0.5323710000000  0.4853010000000 1.0
C      1  0.5210640000000  0.4925430000000  0.4425960000000 1.0
C      1  0.5580230000000  0.5055790000000  0.3818830000000 1.0
END
