TITL C-3201376-6384-407 5.18595819065032e-07 125000 -800.390838918801 0 0 130 (C1) n - 1
REM
REM in /home/nfs/bkarasulu/CARBON/AIRSS/Generating-Clusters/LCBOP/Higher-Symm/SD-CG/FIRE-CG
REM
REM
REM
REM
REM
REM ./C.cell (b20cbc046b6831c77cfcea5457e17084)
REM AIRSS Version 0.9.1 bugfix July 2018 build 013d7b7c2542+ Fri, 06 Jul 2018 19:26:36 +0100
REM compiler GCC version 9.2.1 20190827 (Red Hat 9.2.1-1)
REM options -cpp -mtune=generic -march=x86-64 -g -O0 -fpre-include=/usr/include/finclude/math-vector-fortran.h
REM seed -1205104628 -896575683 -1388093408 -1326034403 1463955248 -999747507 411651025 730955176 -426879616 -474422304 -831503661 -1855506578 -1466449818 609587358 -1532427423 -2013865753 1808209499 -1723081483 -134311541 -2046623311 -2106903058 -732307769 -1616789206 -1451911779 579286648 1536865676 290279517 1619227921 -1196147594 1785310412 -160746593 574643847 -1337624557
REM
CELL 1.54180   50.00000   50.00000   50.00000   90.00000   90.00000   90.00000
LATT -1
SFAC C  
C      1  0.4808330000000  0.4199030000000  0.4595310000000 1.0
C      1  0.4591940000000  0.4232770000000  0.5004590000000 1.0
C      1  0.4946200000000  0.4181100000000  0.5458990000000 1.0
C      1  0.5367530000000  0.4179680000000  0.5263250000000 1.0
C      1  0.5361570000000  0.4133340000000  0.4747000000000 1.0
C      1  0.5942780000000  0.5037560000000  0.5150840000000 1.0
C      1  0.5430610000000  0.5034080000000  0.4126620000000 1.0
C      1  0.4324870000000  0.5066490000000  0.4318720000000 1.0
C      1  0.4155150000000  0.5037730000000  0.5424460000000 1.0
C      1  0.5151320000000  0.5067710000000  0.5946040000000 1.0
C      1  0.4860720000000  0.5023390000000  0.5870530000000 1.0
C      1  0.5787870000000  0.4988960000000  0.5409130000000 1.0
C      1  0.5649530000000  0.4961960000000  0.4299840000000 1.0
C      1  0.4599150000000  0.5037040000000  0.4210590000000 1.0
C      1  0.4138420000000  0.4983330000000  0.5128500000000 1.0
C      1  0.4744790000000  0.5416480000000  0.4850380000000 1.0
C      1  0.4776230000000  0.5420240000000  0.5202790000000 1.0
C      1  0.5127990000000  0.5431740000000  0.5284760000000 1.0
C      1  0.5302530000000  0.5434140000000  0.4989420000000 1.0
C      1  0.5063390000000  0.5433630000000  0.4716040000000 1.0
C      1  0.4831440000000  0.4707040000000  0.5867950000000 1.0
C      1  0.5741850000000  0.4667030000000  0.5415960000000 1.0
C      1  0.5607570000000  0.4673620000000  0.4397560000000 1.0
C      1  0.4621670000000  0.4674660000000  0.4191470000000 1.0
C      1  0.4168280000000  0.4661460000000  0.5101890000000 1.0
C      1  0.5934980000000  0.5091550000000  0.4665320000000 1.0
C      1  0.4981930000000  0.5114050000000  0.3966560000000 1.0
C      1  0.4031080000000  0.5094350000000  0.4696760000000 1.0
C      1  0.4406660000000  0.5116130000000  0.5828620000000 1.0
C      1  0.5616180000000  0.5097270000000  0.5819890000000 1.0
C      1  0.5450610000000  0.4976180000000  0.5088160000000 1.0
C      1  0.5237040000000  0.5003980000000  0.4595030000000 1.0
C      1  0.4704520000000  0.4959720000000  0.4666180000000 1.0
C      1  0.4603850000000  0.4974460000000  0.5183340000000 1.0
C      1  0.5063540000000  0.4994780000000  0.5441220000000 1.0
C      1  0.4793540000000  0.5911930000000  0.4857630000000 1.0
C      1  0.4788480000000  0.5908510000000  0.5149740000000 1.0
C      1  0.5064160000000  0.5915600000000  0.5246280000000 1.0
C      1  0.5242620000000  0.5920510000000  0.5013900000000 1.0
C      1  0.5074500000000  0.5916300000000  0.4773610000000 1.0
C      1  0.4241400000000  0.5848920000000  0.4514240000000 1.0
C      1  0.4293080000000  0.5853310000000  0.5556260000000 1.0
C      1  0.5317230000000  0.5863360000000  0.5843930000000 1.0
C      1  0.5888200000000  0.5887100000000  0.4988430000000 1.0
C      1  0.5231420000000  0.5881440000000  0.4153910000000 1.0
C      1  0.4940570000000  0.4201660000000  0.4327300000000 1.0
C      1  0.4529780000000  0.4255570000000  0.4717020000000 1.0
C      1  0.4675080000000  0.4223170000000  0.5575260000000 1.0
C      1  0.5243110000000  0.4213620000000  0.5542190000000 1.0
C      1  0.5634320000000  0.4176260000000  0.4798550000000 1.0
C      1  0.4721710000000  0.5474060000000  0.5983550000000 1.0
C      1  0.5864650000000  0.5443570000000  0.5561570000000 1.0
C      1  0.5764050000000  0.5429640000000  0.4353470000000 1.0
C      1  0.4650360000000  0.5485420000000  0.4043150000000 1.0
C      1  0.3978290000000  0.5436300000000  0.5055230000000 1.0
C      1  0.5309990000000  0.4445450000000  0.5694630000000 1.0
C      1  0.5744990000000  0.4427410000000  0.4867940000000 1.0
C      1  0.5072900000000  0.4432290000000  0.4219520000000 1.0
C      1  0.4358520000000  0.4455780000000  0.4619990000000 1.0
C      1  0.4491780000000  0.4441490000000  0.5577120000000 1.0
C      1  0.5204630000000  0.4364940000000  0.4814310000000 1.0
C      1  0.4945540000000  0.4445240000000  0.4712550000000 1.0
C      1  0.4711160000000  0.4468300000000  0.5131420000000 1.0
C      1  0.4956800000000  0.4404280000000  0.5252020000000 1.0
C      1  0.5242640000000  0.4439030000000  0.5106170000000 1.0
C      1  0.5065390000000  0.5194900000000  0.4455370000000 1.0
C      1  0.4521530000000  0.5183970000000  0.4772950000000 1.0
C      1  0.4642280000000  0.5193230000000  0.5388500000000 1.0
C      1  0.5271060000000  0.5207670000000  0.5467350000000 1.0
C      1  0.5521950000000  0.5217520000000  0.4920100000000 1.0
C      1  0.5822980000000  0.5157980000000  0.4411680000000 1.0
C      1  0.4716310000000  0.5213820000000  0.4002580000000 1.0
C      1  0.3967440000000  0.5167930000000  0.4965590000000 1.0
C      1  0.4642000000000  0.5203710000000  0.5966570000000 1.0
C      1  0.5828720000000  0.5173550000000  0.5642020000000 1.0
C      1  0.5441310000000  0.5711200000000  0.5023060000000 1.0
C      1  0.5141320000000  0.5703310000000  0.4592410000000 1.0
C      1  0.4640870000000  0.5699270000000  0.4736660000000 1.0
C      1  0.4632620000000  0.5690610000000  0.5255900000000 1.0
C      1  0.5125200000000  0.5703840000000  0.5431900000000 1.0
C      1  0.4405110000000  0.5059460000000  0.5012780000000 1.0
C      1  0.4837520000000  0.5076560000000  0.5576080000000 1.0
C      1  0.5504430000000  0.5070040000000  0.5345000000000 1.0
C      1  0.5474340000000  0.5122250000000  0.4649790000000 1.0
C      1  0.4799150000000  0.5072470000000  0.4427580000000 1.0
C      1  0.4880330000000  0.4621570000000  0.4092210000000 1.0
C      1  0.4167800000000  0.4602540000000  0.4802670000000 1.0
C      1  0.4558740000000  0.4633230000000  0.5794150000000 1.0
C      1  0.5567210000000  0.4602400000000  0.5653460000000 1.0
C      1  0.5775400000000  0.4611340000000  0.4633080000000 1.0
C      1  0.4767390000000  0.4756880000000  0.5083080000000 1.0
C      1  0.5028740000000  0.4823970000000  0.5230400000000 1.0
C      1  0.5261500000000  0.4754180000000  0.5061670000000 1.0
C      1  0.5141930000000  0.4835930000000  0.4791090000000 1.0
C      1  0.4862690000000  0.4735570000000  0.4784260000000 1.0
C      1  0.5354680000000  0.4562560000000  0.4230290000000 1.0
C      1  0.4398610000000  0.4592830000000  0.4356290000000 1.0
C      1  0.4263300000000  0.4561970000000  0.5396250000000 1.0
C      1  0.5113260000000  0.4593490000000  0.5869860000000 1.0
C      1  0.5830940000000  0.4562850000000  0.5131170000000 1.0
C      1  0.5341880000000  0.5214670000000  0.5771150000000 1.0
C      1  0.5834120000000  0.5205270000000  0.4927860000000 1.0
C      1  0.5187440000000  0.5202570000000  0.4168480000000 1.0
C      1  0.4282410000000  0.5207160000000  0.4575320000000 1.0
C      1  0.4371810000000  0.5204180000000  0.5543000000000 1.0
C      1  0.5704910000000  0.5740200000000  0.5130470000000 1.0
C      1  0.5315760000000  0.5734460000000  0.4369450000000 1.0
C      1  0.4489110000000  0.5732260000000  0.4498530000000 1.0
C      1  0.4357110000000  0.5718150000000  0.5326170000000 1.0
C      1  0.5110730000000  0.5737920000000  0.5714350000000 1.0
C      1  0.4753510000000  0.3983730000000  0.5041380000000 1.0
C      1  0.4943710000000  0.3945190000000  0.5260760000000 1.0
C      1  0.5221010000000  0.3932690000000  0.5146570000000 1.0
C      1  0.5196260000000  0.3924510000000  0.4852460000000 1.0
C      1  0.4908660000000  0.3959340000000  0.4781450000000 1.0
C      1  0.4586380000000  0.5650650000000  0.4245480000000 1.0
C      1  0.4147650000000  0.5612810000000  0.5167150000000 1.0
C      1  0.4888750000000  0.5647020000000  0.5863970000000 1.0
C      1  0.5785780000000  0.5622220000000  0.5375800000000 1.0
C      1  0.5573330000000  0.5618000000000  0.4364250000000 1.0
C      1  0.5970360000000  0.4809550000000  0.4730930000000 1.0
C      1  0.5035360000000  0.4823800000000  0.3950220000000 1.0
C      1  0.4049760000000  0.4810090000000  0.4619660000000 1.0
C      1  0.4343880000000  0.4828590000000  0.5809110000000 1.0
C      1  0.5551620000000  0.4812660000000  0.5867940000000 1.0
C      1  0.6003200000000  0.4783160000000  0.5021030000000 1.0
C      1  0.5316250000000  0.4784230000000  0.4023720000000 1.0
C      1  0.4196590000000  0.4806020000000  0.4363350000000 1.0
C      1  0.4168310000000  0.4789290000000  0.5575730000000 1.0
C      1  0.5282640000000  0.4807900000000  0.5985840000000 1.0
END
