TITL C-3201378-2706-753 -7.97899049139573e-07 125000 -723.796167643852 0 0 117 (C1) n - 1
REM
REM in /home/nfs/bkarasulu/CARBON/AIRSS/Generating-Clusters/LCBOP/Higher-Symm/SD-CG/FIRE-CG
REM
REM
REM
REM
REM
REM ./C.cell (b20cbc046b6831c77cfcea5457e17084)
REM AIRSS Version 0.9.1 bugfix July 2018 build 013d7b7c2542+ Fri, 06 Jul 2018 19:26:36 +0100
REM compiler GCC version 9.2.1 20190827 (Red Hat 9.2.1-1)
REM options -cpp -mtune=generic -march=x86-64 -g -O0 -fpre-include=/usr/include/finclude/math-vector-fortran.h
REM seed 153809115 212916863 11842162 -1997934173 -1074689838 -1970157436 -1016853731 -1196660055 1005060530 -1540681352 -160063437 1607443410 11781536 767309315 1321103636 1959131697 -981468417 1804039146 1025430227 1713239095 -1325398812 -1475955578 369741912 -277790426 -429115858 -1123126390 -145557428 1296432813 1545152186 147745716 -103657768 -1357099671 -71691521
REM
CELL 1.54180   50.00000   50.00000   50.00000   90.00000   90.00000   90.00000
LATT -1
SFAC C  
C      1  0.3994920000000  0.4819080000000  0.4721660000000 1.0
C      1  0.5806450000000  0.4523000000000  0.4341500000000 1.0
C      1  0.5201990000000  0.4850330000000  0.5985010000000 1.0
C      1  0.5321620000000  0.5768250000000  0.5579200000000 1.0
C      1  0.4319460000000  0.5715910000000  0.5051490000000 1.0
C      1  0.5125320000000  0.6127890000000  0.4419880000000 1.0
C      1  0.5128380000000  0.4726970000000  0.4483030000000 1.0
C      1  0.5175340000000  0.4636670000000  0.5130790000000 1.0
C      1  0.4939750000000  0.4639570000000  0.5007720000000 1.0
C      1  0.5471420000000  0.4215860000000  0.5258410000000 1.0
C      1  0.4567720000000  0.4223380000000  0.5327630000000 1.0
C      1  0.4925720000000  0.4213990000000  0.4520450000000 1.0
C      1  0.4022700000000  0.5108980000000  0.4760140000000 1.0
C      1  0.5640680000000  0.5309190000000  0.4293840000000 1.0
C      1  0.5250660000000  0.5131740000000  0.5968480000000 1.0
C      1  0.5378140000000  0.5297610000000  0.5038940000000 1.0
C      1  0.4910300000000  0.5413780000000  0.5331470000000 1.0
C      1  0.4988390000000  0.5444400000000  0.4638180000000 1.0
C      1  0.5561750000000  0.4435480000000  0.4856070000000 1.0
C      1  0.4867970000000  0.4473770000000  0.5566390000000 1.0
C      1  0.4546420000000  0.4446230000000  0.4633120000000 1.0
C      1  0.5073430000000  0.5328500000000  0.6103480000000 1.0
C      1  0.3981890000000  0.5264330000000  0.4519480000000 1.0
C      1  0.5857140000000  0.5323310000000  0.4449110000000 1.0
C      1  0.5772610000000  0.5036380000000  0.5453360000000 1.0
C      1  0.4382880000000  0.4981610000000  0.5402570000000 1.0
C      1  0.4925730000000  0.5070020000000  0.4135280000000 1.0
C      1  0.5343700000000  0.4078020000000  0.5031880000000 1.0
C      1  0.4833060000000  0.4091170000000  0.5333950000000 1.0
C      1  0.4781410000000  0.4078650000000  0.4735900000000 1.0
C      1  0.4735000000000  0.5607220000000  0.5373410000000 1.0
C      1  0.4760420000000  0.5604610000000  0.4661470000000 1.0
C      1  0.5420820000000  0.5572890000000  0.5066830000000 1.0
C      1  0.5336090000000  0.5564600000000  0.5772360000000 1.0
C      1  0.4323550000000  0.5479770000000  0.4896810000000 1.0
C      1  0.5414730000000  0.5263260000000  0.3874000000000 1.0
C      1  0.5860990000000  0.4594550000000  0.5205310000000 1.0
C      1  0.4426570000000  0.4598980000000  0.5696670000000 1.0
C      1  0.4667390000000  0.4614540000000  0.4198500000000 1.0
C      1  0.5212970000000  0.5902650000000  0.5353640000000 1.0
C      1  0.4516570000000  0.5918370000000  0.5094200000000 1.0
C      1  0.5058830000000  0.6000290000000  0.4651720000000 1.0
C      1  0.5033790000000  0.5169960000000  0.5379910000000 1.0
C      1  0.4515720000000  0.5200660000000  0.4556020000000 1.0
C      1  0.5376590000000  0.5177970000000  0.4776990000000 1.0
C      1  0.4069550000000  0.5270320000000  0.4246920000000 1.0
C      1  0.6038750000000  0.5264930000000  0.4655820000000 1.0
C      1  0.4793310000000  0.5294160000000  0.6147610000000 1.0
C      1  0.5314760000000  0.5123590000000  0.5282680000000 1.0
C      1  0.4640440000000  0.5007860000000  0.4999580000000 1.0
C      1  0.5137500000000  0.5197040000000  0.4586900000000 1.0
C      1  0.6094050000000  0.4735010000000  0.4733490000000 1.0
C      1  0.4714350000000  0.4800170000000  0.6141190000000 1.0
C      1  0.4120610000000  0.4770930000000  0.4214520000000 1.0
C      1  0.6145020000000  0.5005950000000  0.4678700000000 1.0
C      1  0.4678160000000  0.5057950000000  0.6255220000000 1.0
C      1  0.4053410000000  0.5023610000000  0.4105570000000 1.0
C      1  0.5315590000000  0.5831130000000  0.5095510000000 1.0
C      1  0.4708700000000  0.5876320000000  0.5302080000000 1.0
C      1  0.4799960000000  0.5886440000000  0.4690930000000 1.0
C      1  0.6162160000000  0.5704970000000  0.4821250000000 1.0
C      1  0.5176990000000  0.5583560000000  0.6014040000000 1.0
C      1  0.4518970000000  0.5454460000000  0.4685360000000 1.0
C      1  0.4731580000000  0.4420040000000  0.4409760000000 1.0
C      1  0.5662580000000  0.4400470000000  0.5128700000000 1.0
C      1  0.4589290000000  0.4415050000000  0.5552750000000 1.0
C      1  0.4740380000000  0.5267370000000  0.4051060000000 1.0
C      1  0.5963650000000  0.5203130000000  0.5332770000000 1.0
C      1  0.4598900000000  0.5079330000000  0.5561190000000 1.0
C      1  0.5576910000000  0.4695680000000  0.4755980000000 1.0
C      1  0.4977370000000  0.4727930000000  0.5597310000000 1.0
C      1  0.4420850000000  0.4686140000000  0.4687340000000 1.0
C      1  0.4260700000000  0.4745610000000  0.5510220000000 1.0
C      1  0.4864170000000  0.4790070000000  0.4071040000000 1.0
C      1  0.5805300000000  0.4748140000000  0.5443560000000 1.0
C      1  0.5002240000000  0.4681830000000  0.3857010000000 1.0
C      1  0.5678590000000  0.4596700000000  0.5646580000000 1.0
C      1  0.4115550000000  0.4586440000000  0.5327090000000 1.0
C      1  0.4519020000000  0.5416810000000  0.4059490000000 1.0
C      1  0.6056340000000  0.5351520000000  0.5132430000000 1.0
C      1  0.4544740000000  0.5295080000000  0.5731740000000 1.0
C      1  0.4266260000000  0.5445060000000  0.4146010000000 1.0
C      1  0.6087040000000  0.5446760000000  0.4869890000000 1.0
C      1  0.4624900000000  0.5415740000000  0.5956630000000 1.0
C      1  0.5315590000000  0.4293310000000  0.5485530000000 1.0
C      1  0.4430970000000  0.4287490000000  0.5083780000000 1.0
C      1  0.5204010000000  0.4271020000000  0.4552730000000 1.0
C      1  0.4618330000000  0.6027410000000  0.4854490000000 1.0
C      1  0.5241140000000  0.5972150000000  0.4864580000000 1.0
C      1  0.4950050000000  0.6017510000000  0.5355340000000 1.0
C      1  0.4205580000000  0.5221820000000  0.4965460000000 1.0
C      1  0.5407650000000  0.5247870000000  0.4147700000000 1.0
C      1  0.5404790000000  0.5274960000000  0.5751950000000 1.0
C      1  0.5285000000000  0.4505170000000  0.4408090000000 1.0
C      1  0.5409950000000  0.4512470000000  0.5655790000000 1.0
C      1  0.4215960000000  0.4487890000000  0.5081680000000 1.0
C      1  0.5032180000000  0.4250760000000  0.5474580000000 1.0
C      1  0.4561240000000  0.4236310000000  0.4833790000000 1.0
C      1  0.5365770000000  0.4225490000000  0.4783980000000 1.0
C      1  0.5513970000000  0.5155760000000  0.5513540000000 1.0
C      1  0.4388750000000  0.5061320000000  0.5126780000000 1.0
C      1  0.5165030000000  0.5170680000000  0.4277860000000 1.0
C      1  0.4868880000000  0.4980350000000  0.5517570000000 1.0
C      1  0.4482150000000  0.4935180000000  0.4567320000000 1.0
C      1  0.5546330000000  0.4958240000000  0.4735930000000 1.0
C      1  0.5541990000000  0.4513550000000  0.4291510000000 1.0
C      1  0.5222740000000  0.4710240000000  0.5741990000000 1.0
C      1  0.4189960000000  0.4660000000000  0.4856530000000 1.0
C      1  0.4381340000000  0.4660890000000  0.4155660000000 1.0
C      1  0.6051070000000  0.4658460000000  0.5004230000000 1.0
C      1  0.4524170000000  0.4685790000000  0.5955780000000 1.0
C      1  0.5332320000000  0.4836370000000  0.5208170000000 1.0
C      1  0.4848510000000  0.4867510000000  0.4872540000000 1.0
C      1  0.5005430000000  0.4929230000000  0.4643110000000 1.0
C      1  0.4993280000000  0.4738240000000  0.6145330000000 1.0
C      1  0.3964240000000  0.4720630000000  0.4450900000000 1.0
C      1  0.6005980000000  0.4578280000000  0.4513590000000 1.0
END
