TITL C-3201373-1215-715 658699.326319191 125000 -1041.62620481199 0 0 174 (C1) n - 1
REM
REM in /home/nfs/bkarasulu/CARBON/AIRSS/Generating-Clusters/LCBOP/Higher-Symm/SD-CG/FIRE-CG
REM
REM
REM
REM
REM
REM ./C.cell (b20cbc046b6831c77cfcea5457e17084)
REM AIRSS Version 0.9.1 bugfix July 2018 build 013d7b7c2542+ Fri, 06 Jul 2018 19:26:36 +0100
REM compiler GCC version 9.2.1 20190827 (Red Hat 9.2.1-1)
REM options -cpp -mtune=generic -march=x86-64 -g -O0 -fpre-include=/usr/include/finclude/math-vector-fortran.h
REM seed 1344287686 1687553295 1606693831 1294694740 1041222427 -1192085798 956411644 -1247496120 -2093286185 1509793542 1355283466 -657288390 1782258831 371736698 813589304 -2058373964 1855430148 -329016477 1819838407 1586839045 -812495002 1407686959 -1500179073 892128968 1806498044 -1409345082 -778194988 -768191534 1846571520 1744566710 -1901124821 -600925313 -752836005
REM
CELL 1.54180   50.00000   50.00000   50.00000   90.00000   90.00000   90.00000
LATT -1
SFAC C  
C      1  0.4504230000000  0.5271180000000  0.4802660000000 1.0
C      1  0.4651250000000  0.4424150000000  0.5105920000000 1.0
C      1  0.5168120000000  0.4716360000000  0.4453820000000 1.0
C      1  0.5458990000000  0.5076260000000  0.5262340000000 1.0
C      1  0.4314120000000  0.4962760000000  0.5301660000000 1.0
C      1  0.5409420000000  0.4736030000000  0.4837810000000 1.0
C      1  0.5260160000000  0.4571210000000  0.4669000000000 1.0
C      1  0.4689620000000  0.5491390000000  0.4800840000000 1.0
C      1  0.5290030000000  0.5318490000000  0.5313900000000 1.0
C      1  0.4790790000000  0.4583250000000  0.5639720000000 1.0
C      1  0.5120870000000  0.5237550000000  0.5537250000000 1.0
C      1  0.4912460000000  0.5241170000000  0.4492510000000 1.0
C      1  0.4535380000000  0.4760150000000  0.4801730000000 1.0
C      1  0.4836820000000  0.5435200000000  0.5040170000000 1.0
C      1  0.5173650000000  0.5320750000000  0.4445980000000 1.0
C      1  0.5469510000000  0.4773400000000  0.5364230000000 1.0
C      1  0.4287640000000  0.5232660000000  0.5383830000000 1.0
C      1  0.5424480000000  0.5226780000000  0.4788860000000 1.0
C      1  0.5288530000000  0.5441930000000  0.4671650000000 1.0
C      1  0.4693950000000  0.4521110000000  0.4835840000000 1.0
C      1  0.5197680000000  0.4613320000000  0.5346150000000 1.0
C      1  0.4880790000000  0.5096870000000  0.5482310000000 1.0
C      1  0.5056810000000  0.4689620000000  0.5613610000000 1.0
C      1  0.4910810000000  0.4806870000000  0.4498720000000 1.0
C      1  0.5188560000000  0.3864620000000  0.4737390000000 1.0
C      1  0.4746610000000  0.5159600000000  0.3801740000000 1.0
C      1  0.3782690000000  0.4682680000000  0.5157180000000 1.0
C      1  0.4979350000000  0.3769690000000  0.5202310000000 1.0
C      1  0.5162110000000  0.6109050000000  0.5256300000000 1.0
C      1  0.4890340000000  0.6190290000000  0.4730180000000 1.0
C      1  0.5343050000000  0.5153510000000  0.6232620000000 1.0
C      1  0.4859640000000  0.4874130000000  0.6320150000000 1.0
C      1  0.5247800000000  0.4891900000000  0.3754240000000 1.0
C      1  0.6174070000000  0.4779190000000  0.4793610000000 1.0
C      1  0.3767760000000  0.5240650000000  0.4757800000000 1.0
C      1  0.6171090000000  0.5214970000000  0.5143550000000 1.0
C      1  0.5161270000000  0.6171360000000  0.4760790000000 1.0
C      1  0.4734890000000  0.4883430000000  0.3804550000000 1.0
C      1  0.3688950000000  0.5314420000000  0.5005400000000 1.0
C      1  0.4892020000000  0.6132430000000  0.5236430000000 1.0
C      1  0.5241220000000  0.3825620000000  0.5221850000000 1.0
C      1  0.4919540000000  0.3829920000000  0.4698340000000 1.0
C      1  0.5365360000000  0.4876490000000  0.6246910000000 1.0
C      1  0.4823690000000  0.5136070000000  0.6282420000000 1.0
C      1  0.5261410000000  0.5164590000000  0.3754930000000 1.0
C      1  0.6157480000000  0.5266960000000  0.4876890000000 1.0
C      1  0.3810240000000  0.4752730000000  0.4889210000000 1.0
C      1  0.6166900000000  0.4721830000000  0.5058280000000 1.0
C      1  0.5582290000000  0.5869870000000  0.5306380000000 1.0
C      1  0.5269300000000  0.5598790000000  0.5894910000000 1.0
C      1  0.5849440000000  0.5314450000000  0.5512300000000 1.0
C      1  0.4432730000000  0.5939300000000  0.4696960000000 1.0
C      1  0.5552110000000  0.4187560000000  0.4655890000000 1.0
C      1  0.4543080000000  0.3917840000000  0.5355360000000 1.0
C      1  0.4749820000000  0.5620780000000  0.4135590000000 1.0
C      1  0.5297790000000  0.4437610000000  0.4020750000000 1.0
C      1  0.4701610000000  0.4482030000000  0.6112250000000 1.0
C      1  0.4163380000000  0.5353810000000  0.4468840000000 1.0
C      1  0.5856430000000  0.4731130000000  0.4428270000000 1.0
C      1  0.4141040000000  0.4515290000000  0.5585900000000 1.0
C      1  0.5602690000000  0.4120220000000  0.5346650000000 1.0
C      1  0.5374370000000  0.4411240000000  0.5902470000000 1.0
C      1  0.6051650000000  0.4649750000000  0.5561340000000 1.0
C      1  0.4441980000000  0.4081980000000  0.4714200000000 1.0
C      1  0.5554860000000  0.5886200000000  0.4670340000000 1.0
C      1  0.4491360000000  0.5809050000000  0.5284990000000 1.0
C      1  0.4745230000000  0.4405690000000  0.4161040000000 1.0
C      1  0.5308030000000  0.5621160000000  0.4039670000000 1.0
C      1  0.4696040000000  0.5481810000000  0.5964740000000 1.0
C      1  0.4145090000000  0.4670390000000  0.4485060000000 1.0
C      1  0.5866150000000  0.5388160000000  0.4479770000000 1.0
C      1  0.3789470000000  0.5683250000000  0.5320430000000 1.0
C      1  0.5332790000000  0.4862430000000  0.4233800000000 1.0
C      1  0.4237430000000  0.5266040000000  0.4908850000000 1.0
C      1  0.4856620000000  0.4257200000000  0.5271780000000 1.0
C      1  0.4573760000000  0.4772420000000  0.5681370000000 1.0
C      1  0.5275190000000  0.5155900000000  0.5771180000000 1.0
C      1  0.4699420000000  0.5176040000000  0.4274980000000 1.0
C      1  0.5704630000000  0.5120670000000  0.5127770000000 1.0
C      1  0.4239830000000  0.4703650000000  0.5179350000000 1.0
C      1  0.5639750000000  0.4593100000000  0.4933800000000 1.0
C      1  0.5138300000000  0.4341080000000  0.4771960000000 1.0
C      1  0.4851690000000  0.5714250000000  0.4654490000000 1.0
C      1  0.5229820000000  0.5594500000000  0.5204090000000 1.0
C      1  0.5337820000000  0.5188840000000  0.4234580000000 1.0
C      1  0.4273680000000  0.4774310000000  0.4900150000000 1.0
C      1  0.4932780000000  0.5654720000000  0.5211860000000 1.0
C      1  0.4640840000000  0.5048460000000  0.5631480000000 1.0
C      1  0.5245950000000  0.4856040000000  0.5791560000000 1.0
C      1  0.4693900000000  0.4867180000000  0.4280970000000 1.0
C      1  0.5707500000000  0.4625650000000  0.5222050000000 1.0
C      1  0.4159650000000  0.5406750000000  0.5171060000000 1.0
C      1  0.5689230000000  0.5193050000000  0.4862890000000 1.0
C      1  0.5150010000000  0.5678490000000  0.4748710000000 1.0
C      1  0.4858470000000  0.4302850000000  0.4687320000000 1.0
C      1  0.5161730000000  0.4310500000000  0.5333960000000 1.0
C      1  0.5797910000000  0.5748700000000  0.5161390000000 1.0
C      1  0.5127160000000  0.5747410000000  0.5697330000000 1.0
C      1  0.5610920000000  0.5326670000000  0.5690770000000 1.0
C      1  0.4231790000000  0.5771740000000  0.4832400000000 1.0
C      1  0.5737520000000  0.4383890000000  0.4752210000000 1.0
C      1  0.4347170000000  0.4406300000000  0.5160900000000 1.0
C      1  0.4911730000000  0.5757870000000  0.4332970000000 1.0
C      1  0.5166540000000  0.4205590000000  0.4248110000000 1.0
C      1  0.4733080000000  0.4310130000000  0.5553670000000 1.0
C      1  0.4400220000000  0.5342250000000  0.4302520000000 1.0
C      1  0.5623890000000  0.4718140000000  0.4260730000000 1.0
C      1  0.4333450000000  0.4631480000000  0.5783250000000 1.0
C      1  0.5759320000000  0.4353940000000  0.5368380000000 1.0
C      1  0.5288610000000  0.4227250000000  0.5686110000000 1.0
C      1  0.5514160000000  0.4774270000000  0.5666230000000 1.0
C      1  0.4236000000000  0.4264040000000  0.4904970000000 1.0
C      1  0.5784310000000  0.5778650000000  0.4814270000000 1.0
C      1  0.4236820000000  0.5725540000000  0.5141970000000 1.0
C      1  0.4917770000000  0.4272100000000  0.4333860000000 1.0
C      1  0.5163400000000  0.5837140000000  0.4249360000000 1.0
C      1  0.4906310000000  0.5715010000000  0.5519030000000 1.0
C      1  0.4394620000000  0.4695240000000  0.4320840000000 1.0
C      1  0.5655800000000  0.5375350000000  0.4288210000000 1.0
C      1  0.4451650000000  0.5268390000000  0.5611590000000 1.0
C      1  0.4142020000000  0.5626840000000  0.4590980000000 1.0
C      1  0.4491230000000  0.4141250000000  0.5532770000000 1.0
C      1  0.5560660000000  0.4445120000000  0.4170380000000 1.0
C      1  0.5914990000000  0.5562280000000  0.5351420000000 1.0
C      1  0.4276790000000  0.4300270000000  0.5438750000000 1.0
C      1  0.5912800000000  0.4472150000000  0.4548900000000 1.0
C      1  0.5471920000000  0.4220100000000  0.4375200000000 1.0
C      1  0.4365890000000  0.5817540000000  0.4376440000000 1.0
C      1  0.5509880000000  0.5799140000000  0.5575720000000 1.0
C      1  0.4441750000000  0.4499150000000  0.6020760000000 1.0
C      1  0.5535710000000  0.5590660000000  0.5763170000000 1.0
C      1  0.4476110000000  0.5614200000000  0.4219680000000 1.0
C      1  0.4145990000000  0.4392750000000  0.4589850000000 1.0
C      1  0.4612030000000  0.5714690000000  0.5545340000000 1.0
C      1  0.5577620000000  0.5627290000000  0.4193320000000 1.0
C      1  0.5852900000000  0.4450050000000  0.5635310000000 1.0
C      1  0.3994830000000  0.5858320000000  0.5277160000000 1.0
C      1  0.5937600000000  0.5633580000000  0.4621720000000 1.0
C      1  0.5488460000000  0.5834900000000  0.4390210000000 1.0
C      1  0.4356830000000  0.4226980000000  0.4448180000000 1.0
C      1  0.5486430000000  0.4044070000000  0.5604260000000 1.0
C      1  0.4535540000000  0.5511190000000  0.5729980000000 1.0
C      1  0.5630010000000  0.4539600000000  0.5790810000000 1.0
C      1  0.4479070000000  0.4413530000000  0.4262150000000 1.0
C      1  0.4840030000000  0.5340340000000  0.4031040000000 1.0
C      1  0.3992490000000  0.4645480000000  0.5355490000000 1.0
C      1  0.5326030000000  0.4116360000000  0.4846240000000 1.0
C      1  0.5195700000000  0.5325090000000  0.6015130000000 1.0
C      1  0.4932590000000  0.4643780000000  0.6168720000000 1.0
C      1  0.5174330000000  0.4719260000000  0.3986170000000 1.0
C      1  0.6005150000000  0.4908280000000  0.4597090000000 1.0
C      1  0.4048340000000  0.5164130000000  0.4685510000000 1.0
C      1  0.5941910000000  0.5095060000000  0.5308290000000 1.0
C      1  0.4770840000000  0.3971520000000  0.5161330000000 1.0
C      1  0.5337920000000  0.5885950000000  0.5141940000000 1.0
C      1  0.4714460000000  0.5958500000000  0.4799840000000 1.0
C      1  0.4831650000000  0.4702450000000  0.4036650000000 1.0
C      1  0.3846940000000  0.5428010000000  0.5207100000000 1.0
C      1  0.5310870000000  0.5923790000000  0.4837950000000 1.0
C      1  0.5231150000000  0.4671700000000  0.6049140000000 1.0
C      1  0.4899950000000  0.5332180000000  0.6094020000000 1.0
C      1  0.5197170000000  0.5336630000000  0.3989050000000 1.0
C      1  0.5930770000000  0.5180580000000  0.4683080000000 1.0
C      1  0.4054590000000  0.4851620000000  0.4712470000000 1.0
C      1  0.5985170000000  0.4786330000000  0.5295730000000 1.0
C      1  0.4737290000000  0.5900310000000  0.5112290000000 1.0
C      1  0.5355920000000  0.4107580000000  0.5160780000000 1.0
C      1  0.4727040000000  0.4034180000000  0.4802900000000 1.0
C      1  0.4896910000000  0.4991590000000  0.5221090000000 1.0
C      1  0.4919620000000  0.5028430000000  0.4697120000000 1.0
C      1  0.5274330000000  0.4990930000000  0.4807560000000 1.0
C      1  0.4926670000000  0.5180370000000  0.5031980000000 1.0
C      1  0.4627070000000  0.5018190000000  0.4761800000000 1.0
C      1  0.5012020000000  0.4746200000000  0.5161870000000 1.0
END
