TITL C-3201379-3821-1270 -0.127635634119595 125000 -541.515170653298 0 0 90 (C1) n - 1
REM
REM in /home/nfs/bkarasulu/CARBON/AIRSS/Generating-Clusters/LCBOP/Higher-Symm/SD-CG/FIRE-CG
REM
REM
REM
REM
REM
REM ./C.cell (b20cbc046b6831c77cfcea5457e17084)
REM AIRSS Version 0.9.1 bugfix July 2018 build 013d7b7c2542+ Fri, 06 Jul 2018 19:26:36 +0100
REM compiler GCC version 9.2.1 20190827 (Red Hat 9.2.1-1)
REM options -cpp -mtune=generic -march=x86-64 -g -O0 -fpre-include=/usr/include/finclude/math-vector-fortran.h
REM seed -1406105456 -888572957 -1216011669 1965992327 -537724061 -82270205 1327375807 1403177700 -1798437778 2034564966 -100693632 -422553592 -1759203184 -1699264259 1742337595 181823351 831058257 -689893015 -757536373 -780309389 1464296374 -901760579 45245956 -1334516698 -1729118995 779541466 -1717170750 1616292949 1163960198 1322079087 -1227522874 -1122418212 -356368892
REM
CELL 1.54180   50.00000   50.00000   50.00000   90.00000   90.00000   90.00000
LATT -1
SFAC C  
C      1  0.4257720000000  0.5045880000000  0.5455810000000 1.0
C      1  0.4333620000000  0.5034210000000  0.4342160000000 1.0
C      1  0.5368180000000  0.3980920000000  0.4816700000000 1.0
C      1  0.5370840000000  0.4159650000000  0.5345180000000 1.0
C      1  0.5842270000000  0.4557100000000  0.3947050000000 1.0
C      1  0.5432740000000  0.4379690000000  0.6071800000000 1.0
C      1  0.5410190000000  0.5600270000000  0.5237950000000 1.0
C      1  0.5398970000000  0.5596330000000  0.4682700000000 1.0
C      1  0.5897440000000  0.5561370000000  0.4652830000000 1.0
C      1  0.5918030000000  0.5623030000000  0.5215320000000 1.0
C      1  0.5138340000000  0.5426250000000  0.5730360000000 1.0
C      1  0.5458270000000  0.5247330000000  0.4211810000000 1.0
C      1  0.4990850000000  0.5357720000000  0.5080790000000 1.0
C      1  0.4990670000000  0.5364150000000  0.4787980000000 1.0
C      1  0.5701430000000  0.5359660000000  0.4218440000000 1.0
C      1  0.5346070000000  0.5511480000000  0.5894510000000 1.0
C      1  0.5555070000000  0.4524110000000  0.5137250000000 1.0
C      1  0.5566840000000  0.4648100000000  0.4891110000000 1.0
C      1  0.4645540000000  0.4234410000000  0.5155070000000 1.0
C      1  0.4672060000000  0.4235400000000  0.4869010000000 1.0
C      1  0.3760760000000  0.5028630000000  0.4770320000000 1.0
C      1  0.4027540000000  0.4084650000000  0.5559420000000 1.0
C      1  0.4604870000000  0.5944390000000  0.4532140000000 1.0
C      1  0.4794660000000  0.5738560000000  0.5586090000000 1.0
C      1  0.5600460000000  0.4600070000000  0.4411410000000 1.0
C      1  0.5384420000000  0.4378250000000  0.5538140000000 1.0
C      1  0.4919340000000  0.4499880000000  0.5470470000000 1.0
C      1  0.5021390000000  0.4403430000000  0.4550830000000 1.0
C      1  0.3803070000000  0.4813920000000  0.4912020000000 1.0
C      1  0.4129240000000  0.4232150000000  0.5352980000000 1.0
C      1  0.4217450000000  0.5241480000000  0.4222830000000 1.0
C      1  0.4241750000000  0.5228720000000  0.5650030000000 1.0
C      1  0.5103640000000  0.4737990000000  0.5336370000000 1.0
C      1  0.5148200000000  0.4686510000000  0.4609540000000 1.0
C      1  0.5727210000000  0.4572650000000  0.4180430000000 1.0
C      1  0.5415510000000  0.4372560000000  0.5811880000000 1.0
C      1  0.5380090000000  0.4610730000000  0.5352610000000 1.0
C      1  0.5446360000000  0.4648840000000  0.4640660000000 1.0
C      1  0.4757400000000  0.5504570000000  0.4683950000000 1.0
C      1  0.4750470000000  0.5475050000000  0.5195400000000 1.0
C      1  0.4404940000000  0.5924810000000  0.4356630000000 1.0
C      1  0.4870280000000  0.5526410000000  0.5759770000000 1.0
C      1  0.5548230000000  0.5596150000000  0.6035450000000 1.0
C      1  0.5873620000000  0.5475570000000  0.4387410000000 1.0
C      1  0.5656840000000  0.5595960000000  0.4807010000000 1.0
C      1  0.5660810000000  0.5607980000000  0.5098630000000 1.0
C      1  0.4924610000000  0.4802160000000  0.5094710000000 1.0
C      1  0.4945420000000  0.4796970000000  0.4810060000000 1.0
C      1  0.5586050000000  0.4232910000000  0.5150300000000 1.0
C      1  0.5603420000000  0.4062100000000  0.4926580000000 1.0
C      1  0.5136750000000  0.4904970000000  0.4372550000000 1.0
C      1  0.5081530000000  0.4965150000000  0.5548240000000 1.0
C      1  0.4681680000000  0.5340040000000  0.5867250000000 1.0
C      1  0.4247650000000  0.5755200000000  0.4224120000000 1.0
C      1  0.5258630000000  0.5164870000000  0.4394420000000 1.0
C      1  0.5177940000000  0.5233230000000  0.5522830000000 1.0
C      1  0.5260370000000  0.5841640000000  0.5253470000000 1.0
C      1  0.5244970000000  0.5832280000000  0.4717590000000 1.0
C      1  0.4420480000000  0.4909890000000  0.5294500000000 1.0
C      1  0.4501370000000  0.4909690000000  0.4506340000000 1.0
C      1  0.5431400000000  0.5140710000000  0.4834990000000 1.0
C      1  0.5425930000000  0.5140070000000  0.5103660000000 1.0
C      1  0.4397320000000  0.4206460000000  0.5278000000000 1.0
C      1  0.4454220000000  0.4236520000000  0.4703900000000 1.0
C      1  0.4884640000000  0.4268800000000  0.5308740000000 1.0
C      1  0.4939100000000  0.4230210000000  0.4764900000000 1.0
C      1  0.4999420000000  0.5877370000000  0.5142890000000 1.0
C      1  0.4996630000000  0.5885260000000  0.4848550000000 1.0
C      1  0.5124620000000  0.4080780000000  0.4922030000000 1.0
C      1  0.5115770000000  0.4124830000000  0.5212130000000 1.0
C      1  0.4955890000000  0.4358930000000  0.4278840000000 1.0
C      1  0.4825840000000  0.4609500000000  0.5716960000000 1.0
C      1  0.3864590000000  0.4604220000000  0.5062060000000 1.0
C      1  0.3967290000000  0.4412140000000  0.5212890000000 1.0
C      1  0.5030190000000  0.4804470000000  0.4130250000000 1.0
C      1  0.4901480000000  0.4881240000000  0.5761810000000 1.0
C      1  0.5251180000000  0.5333950000000  0.5249790000000 1.0
C      1  0.5259360000000  0.5317710000000  0.4654990000000 1.0
C      1  0.4654160000000  0.4852780000000  0.5181280000000 1.0
C      1  0.4701160000000  0.4866030000000  0.4675780000000 1.0
C      1  0.6146450000000  0.5614530000000  0.5068490000000 1.0
C      1  0.6138960000000  0.5587480000000  0.4798260000000 1.0
C      1  0.4511010000000  0.5411080000000  0.4794420000000 1.0
C      1  0.4505870000000  0.5410140000000  0.5067150000000 1.0
C      1  0.4406210000000  0.5360570000000  0.5815780000000 1.0
C      1  0.4182220000000  0.5501280000000  0.4177430000000 1.0
C      1  0.4953580000000  0.4548820000000  0.4086140000000 1.0
C      1  0.4779410000000  0.5078160000000  0.5918080000000 1.0
C      1  0.4802060000000  0.5734690000000  0.5302740000000 1.0
C      1  0.4779460000000  0.5793200000000  0.4687850000000 1.0
END
