TITL C-3201375-1262-79 0.0200657634277296 125000 -314.279585206977 0 0 53 (C1) n - 1
REM
REM in /home/nfs/bkarasulu/CARBON/AIRSS/Generating-Clusters/LCBOP/Higher-Symm/SD-CG/FIRE-CG
REM
REM
REM
REM
REM
REM ./C.cell (b20cbc046b6831c77cfcea5457e17084)
REM AIRSS Version 0.9.1 bugfix July 2018 build 013d7b7c2542+ Fri, 06 Jul 2018 19:26:36 +0100
REM compiler GCC version 9.2.1 20190827 (Red Hat 9.2.1-1)
REM options -cpp -mtune=generic -march=x86-64 -g -O0 -fpre-include=/usr/include/finclude/math-vector-fortran.h
REM seed 1985928732 2065349819 907059455 -704887938 1914799180 -2041702534 -818587751 598724465 1649174069 -644424813 2104130462 1928490212 -126877042 -519117800 -283172048 -1117055135 -800476205 1213075787 1291500601 -1348902413 -745146407 1518806227 719936668 1253571960 1848610330 668729665 1852985184 407001017 -251484633 -771583269 92284392 -485606952 1371699596
REM
CELL 1.54180   50.00000   50.00000   50.00000   90.00000   90.00000   90.00000
LATT -1
SFAC C  
C      1  0.5540490000000  0.4449060000000  0.5220440000000 1.0
C      1  0.5239730000000  0.4178250000000  0.4397410000000 1.0
C      1  0.5327440000000  0.5283780000000  0.4976980000000 1.0
C      1  0.4240060000000  0.5827370000000  0.4004110000000 1.0
C      1  0.4909280000000  0.4114660000000  0.5233100000000 1.0
C      1  0.5463410000000  0.5374020000000  0.5583800000000 1.0
C      1  0.4787080000000  0.4677590000000  0.5698280000000 1.0
C      1  0.4723270000000  0.5149960000000  0.5389330000000 1.0
C      1  0.4391150000000  0.5170350000000  0.5743870000000 1.0
C      1  0.4584760000000  0.5331780000000  0.4705010000000 1.0
C      1  0.4261080000000  0.5184540000000  0.5277320000000 1.0
C      1  0.5363880000000  0.5886680000000  0.4560110000000 1.0
C      1  0.4471990000000  0.4849370000000  0.4751670000000 1.0
C      1  0.4894300000000  0.5251330000000  0.5192700000000 1.0
C      1  0.5874530000000  0.3919180000000  0.4695330000000 1.0
C      1  0.5408870000000  0.4141100000000  0.4856130000000 1.0
C      1  0.5385590000000  0.4236210000000  0.5125230000000 1.0
C      1  0.5382060000000  0.5558370000000  0.4957740000000 1.0
C      1  0.4466910000000  0.5830280000000  0.4132530000000 1.0
C      1  0.5201080000000  0.5785520000000  0.5558150000000 1.0
C      1  0.4991610000000  0.4829670000000  0.5776470000000 1.0
C      1  0.5113450000000  0.5123690000000  0.5060470000000 1.0
C      1  0.4413870000000  0.5122830000000  0.4793810000000 1.0
C      1  0.4456090000000  0.5164700000000  0.5479150000000 1.0
C      1  0.4609590000000  0.4575480000000  0.5527380000000 1.0
C      1  0.5090330000000  0.4873550000000  0.4942130000000 1.0
C      1  0.5354760000000  0.4224210000000  0.3886600000000 1.0
C      1  0.4778630000000  0.5513150000000  0.4804460000000 1.0
C      1  0.4955750000000  0.5830730000000  0.5458300000000 1.0
C      1  0.5189410000000  0.4156020000000  0.4671300000000 1.0
C      1  0.4696140000000  0.5830430000000  0.4265360000000 1.0
C      1  0.4809650000000  0.5727230000000  0.5258890000000 1.0
C      1  0.4815690000000  0.5506440000000  0.5086850000000 1.0
C      1  0.5488070000000  0.5668680000000  0.5194590000000 1.0
C      1  0.4922830000000  0.4154800000000  0.4763640000000 1.0
C      1  0.4971650000000  0.5658920000000  0.4658640000000 1.0
C      1  0.4653280000000  0.4651370000000  0.4835460000000 1.0
C      1  0.4242370000000  0.5179550000000  0.5010450000000 1.0
C      1  0.5173690000000  0.4134260000000  0.5281390000000 1.0
C      1  0.5604280000000  0.4681130000000  0.5333890000000 1.0
C      1  0.5296670000000  0.4201500000000  0.4139720000000 1.0
C      1  0.5413080000000  0.5624450000000  0.5465000000000 1.0
C      1  0.4924570000000  0.4718710000000  0.4804200000000 1.0
C      1  0.5176620000000  0.5953160000000  0.4368180000000 1.0
C      1  0.4926950000000  0.5816180000000  0.4416020000000 1.0
C      1  0.4524430000000  0.4505380000000  0.5284010000000 1.0
C      1  0.5574240000000  0.4910490000000  0.5465870000000 1.0
C      1  0.4778940000000  0.4209590000000  0.4999900000000 1.0
C      1  0.5254450000000  0.5698360000000  0.4749790000000 1.0
C      1  0.5649840000000  0.4024780000000  0.4774560000000 1.0
C      1  0.5421370000000  0.5097130000000  0.5610340000000 1.0
C      1  0.4610640000000  0.4440350000000  0.5023760000000 1.0
C      1  0.5200130000000  0.4993690000000  0.5750160000000 1.0
END
