TITL C-3201373-1215-2101 6.53882126310712e-07 125000 -560.676018348316 0 0 97 (C1) n - 1
REM
REM in /home/nfs/bkarasulu/CARBON/AIRSS/Generating-Clusters/LCBOP/Higher-Symm/SD-CG/FIRE-CG
REM
REM
REM
REM
REM
REM ./C.cell (b20cbc046b6831c77cfcea5457e17084)
REM AIRSS Version 0.9.1 bugfix July 2018 build 013d7b7c2542+ Fri, 06 Jul 2018 19:26:36 +0100
REM compiler GCC version 9.2.1 20190827 (Red Hat 9.2.1-1)
REM options -cpp -mtune=generic -march=x86-64 -g -O0 -fpre-include=/usr/include/finclude/math-vector-fortran.h
REM seed -378432759 1404178899 -1547108641 1456769507 249740430 1027046340 2097598801 -2141545000 1003063465 -674997524 -1413239393 -1572716858 1573265287 136581038 -1991314784 -552775674 1603917317 -1592149098 -976764755 -1725314869 1433079452 2100816582 -16449663 -391158819 -425116234 -417338284 -284072302 -862041415 743667830 1906276379 -769916292 -516648691 83897990
REM
CELL 1.54180   50.00000   50.00000   50.00000   90.00000   90.00000   90.00000
LATT -1
SFAC C  
C      1  0.5278830000000  0.4181200000000  0.5181930000000 1.0
C      1  0.4282430000000  0.4508900000000  0.5211600000000 1.0
C      1  0.4300320000000  0.5542550000000  0.5184480000000 1.0
C      1  0.5266320000000  0.5822900000000  0.5210600000000 1.0
C      1  0.5877280000000  0.4980270000000  0.5212410000000 1.0
C      1  0.4700470000000  0.5400280000000  0.5407950000000 1.0
C      1  0.5258570000000  0.5368090000000  0.5434680000000 1.0
C      1  0.5454500000000  0.4849350000000  0.5386030000000 1.0
C      1  0.5002650000000  0.4542800000000  0.5412290000000 1.0
C      1  0.4538120000000  0.4863660000000  0.5411010000000 1.0
C      1  0.4448170000000  0.5774800000000  0.5301020000000 1.0
C      1  0.5523360000000  0.5759540000000  0.5349580000000 1.0
C      1  0.5899670000000  0.4700650000000  0.5318830000000 1.0
C      1  0.5033820000000  0.4076490000000  0.5323920000000 1.0
C      1  0.4098120000000  0.4711470000000  0.5333860000000 1.0
C      1  0.5697610000000  0.5552940000000  0.5213160000000 1.0
C      1  0.5750660000000  0.4487440000000  0.5153660000000 1.0
C      1  0.4764200000000  0.4151210000000  0.5202320000000 1.0
C      1  0.4082550000000  0.4979800000000  0.5187760000000 1.0
C      1  0.4711610000000  0.5841030000000  0.5161130000000 1.0
C      1  0.4270580000000  0.5003940000000  0.4413330000000 1.0
C      1  0.4805240000000  0.5661350000000  0.4400770000000 1.0
C      1  0.5606570000000  0.5426860000000  0.4426020000000 1.0
C      1  0.5605490000000  0.4597420000000  0.4397740000000 1.0
C      1  0.4755040000000  0.4312890000000  0.4422110000000 1.0
C      1  0.5150270000000  0.5696490000000  0.4738720000000 1.0
C      1  0.5743900000000  0.5114460000000  0.4758650000000 1.0
C      1  0.5290490000000  0.4396200000000  0.4733000000000 1.0
C      1  0.4483440000000  0.4525220000000  0.4760780000000 1.0
C      1  0.4360100000000  0.5345630000000  0.4736920000000 1.0
C      1  0.4202590000000  0.5222810000000  0.5306250000000 1.0
C      1  0.4970490000000  0.5808270000000  0.5302060000000 1.0
C      1  0.5745690000000  0.5288730000000  0.5333650000000 1.0
C      1  0.5511280000000  0.4359740000000  0.5269340000000 1.0
C      1  0.4566120000000  0.4334120000000  0.5329630000000 1.0
C      1  0.4744070000000  0.4540060000000  0.4910730000000 1.0
C      1  0.4450140000000  0.5110290000000  0.4901850000000 1.0
C      1  0.4969180000000  0.5496420000000  0.4883630000000 1.0
C      1  0.5501490000000  0.5231260000000  0.4908620000000 1.0
C      1  0.5358400000000  0.4661300000000  0.4867830000000 1.0
C      1  0.5353540000000  0.5540610000000  0.4326180000000 1.0
C      1  0.5662080000000  0.4879200000000  0.4325620000000 1.0
C      1  0.5037660000000  0.4345820000000  0.4322100000000 1.0
C      1  0.4394570000000  0.4743720000000  0.4330520000000 1.0
C      1  0.4588790000000  0.5469260000000  0.4318850000000 1.0
C      1  0.5188400000000  0.4841940000000  0.4379110000000 1.0
C      1  0.4925580000000  0.4753100000000  0.4461270000000 1.0
C      1  0.4743590000000  0.4986030000000  0.4455550000000 1.0
C      1  0.4936500000000  0.5209170000000  0.4412340000000 1.0
C      1  0.5140710000000  0.5092020000000  0.4240240000000 1.0
C      1  0.5517320000000  0.5262680000000  0.5516640000000 1.0
C      1  0.5434880000000  0.4567610000000  0.5451760000000 1.0
C      1  0.4736610000000  0.4487130000000  0.5512930000000 1.0
C      1  0.4390860000000  0.5103070000000  0.5491580000000 1.0
C      1  0.4894570000000  0.5601850000000  0.5494470000000 1.0
C      1  0.4705610000000  0.4879050000000  0.5858520000000 1.0
C      1  0.4739860000000  0.5162160000000  0.5832460000000 1.0
C      1  0.4986330000000  0.5304400000000  0.5857010000000 1.0
C      1  0.5387450000000  0.4892290000000  0.5864830000000 1.0
C      1  0.5232210000000  0.4666840000000  0.5859990000000 1.0
C      1  0.4674810000000  0.5235420000000  0.5174010000000 1.0
C      1  0.5102440000000  0.5348950000000  0.5185370000000 1.0
C      1  0.5370900000000  0.5009200000000  0.5165710000000 1.0
C      1  0.5106610000000  0.4666370000000  0.5149980000000 1.0
C      1  0.4690560000000  0.4790480000000  0.5183340000000 1.0
C      1  0.4407710000000  0.5556090000000  0.4912530000000 1.0
C      1  0.5345050000000  0.5746760000000  0.4934720000000 1.0
C      1  0.5828870000000  0.4914310000000  0.4932020000000 1.0
C      1  0.5161980000000  0.4225800000000  0.4914820000000 1.0
C      1  0.4283020000000  0.4609850000000  0.4935640000000 1.0
C      1  0.5707940000000  0.5582930000000  0.4654230000000 1.0
C      1  0.5757450000000  0.4519040000000  0.4624770000000 1.0
C      1  0.4753360000000  0.4130370000000  0.4654140000000 1.0
C      1  0.4083980000000  0.4955260000000  0.4636980000000 1.0
C      1  0.4702870000000  0.5819140000000  0.4626920000000 1.0
C      1  0.5579940000000  0.5538800000000  0.4928530000000 1.0
C      1  0.5685080000000  0.4638910000000  0.4894010000000 1.0
C      1  0.4848280000000  0.4241320000000  0.4921150000000 1.0
C      1  0.4203960000000  0.4912340000000  0.4913320000000 1.0
C      1  0.4697410000000  0.5677800000000  0.4897660000000 1.0
C      1  0.4387740000000  0.5290760000000  0.4446650000000 1.0
C      1  0.5112860000000  0.5657850000000  0.4446860000000 1.0
C      1  0.5700510000000  0.5138280000000  0.4463200000000 1.0
C      1  0.5300030000000  0.4406010000000  0.4445990000000 1.0
C      1  0.4521950000000  0.4513440000000  0.4466510000000 1.0
C      1  0.5092710000000  0.5466290000000  0.5648590000000 1.0
C      1  0.5492360000000  0.5006680000000  0.5629200000000 1.0
C      1  0.5207560000000  0.4528610000000  0.5614590000000 1.0
C      1  0.4625910000000  0.4712360000000  0.5643140000000 1.0
C      1  0.4566360000000  0.5275270000000  0.5631600000000 1.0
C      1  0.4655340000000  0.5010430000000  0.4730900000000 1.0
C      1  0.5027130000000  0.5255350000000  0.4706840000000 1.0
C      1  0.5303810000000  0.5162700000000  0.4711740000000 1.0
C      1  0.5319630000000  0.4883510000000  0.4641260000000 1.0
C      1  0.4922960000000  0.4671470000000  0.4722150000000 1.0
C      1  0.4917300000000  0.5033600000000  0.4864970000000 1.0
C      1  0.4986980000000  0.5007340000000  0.5125720000000 1.0
END
