TITL C-3201372-1405-1239 0.932028948065306 125000 -284.018802000858 0 0 48 (C1) n - 1
REM
REM in /home/nfs/bkarasulu/CARBON/AIRSS/Generating-Clusters/LCBOP/Higher-Symm/SD-CG/FIRE-CG
REM
REM
REM
REM
REM
REM ./C.cell (b20cbc046b6831c77cfcea5457e17084)
REM AIRSS Version 0.9.1 bugfix July 2018 build 013d7b7c2542+ Fri, 06 Jul 2018 19:26:36 +0100
REM compiler GCC version 9.2.1 20190827 (Red Hat 9.2.1-1)
REM options -cpp -mtune=generic -march=x86-64 -g -O0 -fpre-include=/usr/include/finclude/math-vector-fortran.h
REM seed -579089885 1222440104 1165815089 -1064835742 137702416 1051252857 1314852284 -1100817270 -1094379355 2054537993 -594380365 -1671367845 -1034817529 1060985746 1909655248 -906089362 -558008277 -1025039885 -340739489 -2014414627 -682312828 -1292531634 -1921801420 -510642908 -1968676505 1307079232 -720457528 -630690394 -590596433 2007624782 -83961077 1345504719 701226447
REM
CELL 1.54180   50.00000   50.00000   50.00000   90.00000   90.00000   90.00000
LATT -1
SFAC C  
C      1  0.4629930000000  0.4757240000000  0.4325460000000 1.0
C      1  0.5428010000000  0.4187360000000  0.5967830000000 1.0
C      1  0.4364240000000  0.4815970000000  0.4261220000000 1.0
C      1  0.4542500000000  0.5606270000000  0.4871580000000 1.0
C      1  0.4743720000000  0.5697450000000  0.4023890000000 1.0
C      1  0.4672950000000  0.5469000000000  0.5057650000000 1.0
C      1  0.5629280000000  0.4414940000000  0.5533920000000 1.0
C      1  0.5103790000000  0.4859070000000  0.4527290000000 1.0
C      1  0.5594730000000  0.4972570000000  0.6033530000000 1.0
C      1  0.4228050000000  0.5013510000000  0.4413510000000 1.0
C      1  0.6009420000000  0.4566530000000  0.4933060000000 1.0
C      1  0.5007140000000  0.5671000000000  0.3998760000000 1.0
C      1  0.5406270000000  0.5220230000000  0.4425140000000 1.0
C      1  0.5311390000000  0.4100720000000  0.6189520000000 1.0
C      1  0.5331940000000  0.5203850000000  0.5062580000000 1.0
C      1  0.5416340000000  0.5013470000000  0.4868940000000 1.0
C      1  0.4414990000000  0.4937680000000  0.5081170000000 1.0
C      1  0.4874950000000  0.4772100000000  0.4425570000000 1.0
C      1  0.5752370000000  0.5232630000000  0.5615370000000 1.0
C      1  0.4257360000000  0.5284190000000  0.4349770000000 1.0
C      1  0.5379520000000  0.5406700000000  0.4237940000000 1.0
C      1  0.4518150000000  0.5646170000000  0.4155010000000 1.0
C      1  0.5371480000000  0.4859660000000  0.6123120000000 1.0
C      1  0.4234790000000  0.4915770000000  0.4887970000000 1.0
C      1  0.5518650000000  0.5395620000000  0.5158930000000 1.0
C      1  0.4107490000000  0.4563400000000  0.3859600000000 1.0
C      1  0.4891900000000  0.4782320000000  0.5949280000000 1.0
C      1  0.5729530000000  0.5106200000000  0.5847680000000 1.0
C      1  0.4433660000000  0.5631580000000  0.4630620000000 1.0
C      1  0.5712040000000  0.4525070000000  0.5307700000000 1.0
C      1  0.4651090000000  0.4914700000000  0.5504200000000 1.0
C      1  0.5192530000000  0.4024750000000  0.6408750000000 1.0
C      1  0.5534360000000  0.4295380000000  0.5750480000000 1.0
C      1  0.4387240000000  0.5530830000000  0.4373410000000 1.0
C      1  0.4089520000000  0.4936260000000  0.4649500000000 1.0
C      1  0.5067210000000  0.5205220000000  0.5152450000000 1.0
C      1  0.4234420000000  0.4684370000000  0.4052410000000 1.0
C      1  0.5313350000000  0.5027200000000  0.4605050000000 1.0
C      1  0.5598580000000  0.4814440000000  0.4939480000000 1.0
C      1  0.4619360000000  0.5026610000000  0.5250460000000 1.0
C      1  0.4789740000000  0.5236830000000  0.5161820000000 1.0
C      1  0.4734680000000  0.4828620000000  0.5740580000000 1.0
C      1  0.5116670000000  0.4791930000000  0.6090330000000 1.0
C      1  0.5776100000000  0.4634450000000  0.5058480000000 1.0
C      1  0.5237910000000  0.5567030000000  0.4080210000000 1.0
C      1  0.5544230000000  0.5637760000000  0.5034290000000 1.0
C      1  0.5675020000000  0.5331950000000  0.5381960000000 1.0
C      1  0.3821410000000  0.4883400000000  0.4642530000000 1.0
END
