TITL C-3201379-3821-246 53419.9162840392 125000 -1043.99684625942 0 0 170 (C1) n - 1
REM
REM in /home/nfs/bkarasulu/CARBON/AIRSS/Generating-Clusters/LCBOP/Higher-Symm/SD-CG/FIRE-CG
REM
REM
REM
REM
REM
REM ./C.cell (b20cbc046b6831c77cfcea5457e17084)
REM AIRSS Version 0.9.1 bugfix July 2018 build 013d7b7c2542+ Fri, 06 Jul 2018 19:26:36 +0100
REM compiler GCC version 9.2.1 20190827 (Red Hat 9.2.1-1)
REM options -cpp -mtune=generic -march=x86-64 -g -O0 -fpre-include=/usr/include/finclude/math-vector-fortran.h
REM seed -121408769 -1156944758 -1696671014 -274653507 -390854929 2100470809 -1786924232 -1124984718 -1361627400 1455542296 875348618 -1166536400 441485769 -1546969432 851653901 -1637700796 534030155 -1959262856 -1442283934 -1216418679 -193197834 -1051799442 980383597 956072744 -1986451184 -1979614405 460946027 1636583256 -869381083 1164667693 705162480 396110205 -244194804
REM
CELL 1.54180   50.00000   50.00000   50.00000   90.00000   90.00000   90.00000
LATT -1
SFAC C  
C      1  0.4738430000000  0.5697240000000  0.4196100000000 1.0
C      1  0.5661110000000  0.4756130000000  0.4147160000000 1.0
C      1  0.4478660000000  0.4425980000000  0.4329040000000 1.0
C      1  0.4616600000000  0.4249160000000  0.5632500000000 1.0
C      1  0.5709160000000  0.5040370000000  0.5831560000000 1.0
C      1  0.4507450000000  0.5561240000000  0.5827400000000 1.0
C      1  0.5191890000000  0.4243630000000  0.5655670000000 1.0
C      1  0.4239300000000  0.5047710000000  0.5652360000000 1.0
C      1  0.5340700000000  0.5593790000000  0.5961650000000 1.0
C      1  0.5338410000000  0.5574380000000  0.3983760000000 1.0
C      1  0.4237320000000  0.4895880000000  0.4359330000000 1.0
C      1  0.5350740000000  0.4319900000000  0.4364380000000 1.0
C      1  0.4759630000000  0.6117680000000  0.4857460000000 1.0
C      1  0.5942180000000  0.4961080000000  0.4740170000000 1.0
C      1  0.4299130000000  0.4300430000000  0.4802450000000 1.0
C      1  0.4690780000000  0.3958330000000  0.5212310000000 1.0
C      1  0.6002680000000  0.5306950000000  0.5422820000000 1.0
C      1  0.4435330000000  0.5771440000000  0.5332520000000 1.0
C      1  0.5454590000000  0.3811300000000  0.5284300000000 1.0
C      1  0.3968900000000  0.5228860000000  0.5285590000000 1.0
C      1  0.5592190000000  0.5834310000000  0.5323310000000 1.0
C      1  0.5352830000000  0.5859700000000  0.4640690000000 1.0
C      1  0.4036800000000  0.4770630000000  0.4825630000000 1.0
C      1  0.5688740000000  0.4290700000000  0.4746580000000 1.0
C      1  0.4803270000000  0.6203880000000  0.5540470000000 1.0
C      1  0.5962000000000  0.4710890000000  0.5222810000000 1.0
C      1  0.4355580000000  0.4471390000000  0.5027740000000 1.0
C      1  0.5279600000000  0.3704600000000  0.4799170000000 1.0
C      1  0.6111990000000  0.5825790000000  0.4590330000000 1.0
C      1  0.4253050000000  0.5743540000000  0.4903120000000 1.0
C      1  0.5252710000000  0.3953660000000  0.4876940000000 1.0
C      1  0.4165440000000  0.5491280000000  0.4949890000000 1.0
C      1  0.5890060000000  0.5694190000000  0.4553320000000 1.0
C      1  0.5007010000000  0.6149460000000  0.5352580000000 1.0
C      1  0.4229100000000  0.4719480000000  0.5034100000000 1.0
C      1  0.5788110000000  0.4523010000000  0.5140720000000 1.0
C      1  0.4507970000000  0.3885430000000  0.5008160000000 1.0
C      1  0.4453850000000  0.6046670000000  0.5241030000000 1.0
C      1  0.6099160000000  0.5247150000000  0.5164000000000 1.0
C      1  0.4575940000000  0.6209650000000  0.5056760000000 1.0
C      1  0.4344830000000  0.4025510000000  0.4844040000000 1.0
C      1  0.6069310000000  0.5127570000000  0.4926840000000 1.0
C      1  0.5528770000000  0.5964590000000  0.4833060000000 1.0
C      1  0.5727820000000  0.4067550000000  0.4922900000000 1.0
C      1  0.3818720000000  0.4930720000000  0.4901580000000 1.0
C      1  0.5653630000000  0.3913030000000  0.5132070000000 1.0
C      1  0.5611710000000  0.5974810000000  0.5084160000000 1.0
C      1  0.3791690000000  0.5113020000000  0.5099250000000 1.0
C      1  0.5077060000000  0.5164800000000  0.4026190000000 1.0
C      1  0.5099190000000  0.4676950000000  0.3996410000000 1.0
C      1  0.4568760000000  0.5101410000000  0.4091260000000 1.0
C      1  0.5127120000000  0.4690050000000  0.5990690000000 1.0
C      1  0.5076410000000  0.5189530000000  0.5933370000000 1.0
C      1  0.4642080000000  0.4900890000000  0.5948610000000 1.0
C      1  0.4847270000000  0.4668000000000  0.5902140000000 1.0
C      1  0.4829690000000  0.5118300000000  0.6073860000000 1.0
C      1  0.5224020000000  0.4948750000000  0.5925650000000 1.0
C      1  0.4810880000000  0.5234620000000  0.4074120000000 1.0
C      1  0.4825570000000  0.4555090000000  0.4011130000000 1.0
C      1  0.5199850000000  0.4937090000000  0.3903330000000 1.0
C      1  0.4691470000000  0.4657500000000  0.4283990000000 1.0
C      1  0.4804480000000  0.5432480000000  0.4285780000000 1.0
C      1  0.5442940000000  0.4778440000000  0.4328240000000 1.0
C      1  0.4632780000000  0.5341900000000  0.5674540000000 1.0
C      1  0.4797430000000  0.4493320000000  0.5682590000000 1.0
C      1  0.5425010000000  0.4955770000000  0.5739330000000 1.0
C      1  0.5222760000000  0.5399270000000  0.5780570000000 1.0
C      1  0.5030010000000  0.4446250000000  0.5529370000000 1.0
C      1  0.4531080000000  0.5080900000000  0.5727750000000 1.0
C      1  0.5209650000000  0.4594190000000  0.4280080000000 1.0
C      1  0.5246920000000  0.5361390000000  0.4158900000000 1.0
C      1  0.4558140000000  0.4916810000000  0.4341710000000 1.0
C      1  0.5039370000000  0.3949930000000  0.4458770000000 1.0
C      1  0.4258590000000  0.5372080000000  0.4520420000000 1.0
C      1  0.5794430000000  0.5449440000000  0.3959790000000 1.0
C      1  0.5027840000000  0.5843920000000  0.5694540000000 1.0
C      1  0.4017550000000  0.4589810000000  0.5677600000000 1.0
C      1  0.5622530000000  0.4439040000000  0.5580770000000 1.0
C      1  0.4760490000000  0.5979050000000  0.5718080000000 1.0
C      1  0.5830430000000  0.4626470000000  0.5672350000000 1.0
C      1  0.4116310000000  0.4337050000000  0.5655740000000 1.0
C      1  0.4833340000000  0.4124960000000  0.4553410000000 1.0
C      1  0.5787490000000  0.5219170000000  0.4129370000000 1.0
C      1  0.4382170000000  0.5635800000000  0.4481410000000 1.0
C      1  0.4355770000000  0.4960590000000  0.5122470000000 1.0
C      1  0.5091660000000  0.5859460000000  0.5380680000000 1.0
C      1  0.5566430000000  0.4431360000000  0.5289840000000 1.0
C      1  0.4280330000000  0.5289880000000  0.4788930000000 1.0
C      1  0.5215650000000  0.4248320000000  0.4874540000000 1.0
C      1  0.5677500000000  0.5517960000000  0.4511880000000 1.0
C      1  0.5736170000000  0.5256610000000  0.4413410000000 1.0
C      1  0.4925220000000  0.4282390000000  0.4786640000000 1.0
C      1  0.4482750000000  0.5756410000000  0.4730530000000 1.0
C      1  0.5921370000000  0.4821270000000  0.5475320000000 1.0
C      1  0.4856530000000  0.5721820000000  0.5117050000000 1.0
C      1  0.4621080000000  0.4439290000000  0.5121030000000 1.0
C      1  0.4180730000000  0.5191380000000  0.4315250000000 1.0
C      1  0.5552060000000  0.5492860000000  0.3813780000000 1.0
C      1  0.5202630000000  0.4074330000000  0.4264670000000 1.0
C      1  0.4170330000000  0.4797180000000  0.5795260000000 1.0
C      1  0.5421550000000  0.4354870000000  0.5767900000000 1.0
C      1  0.5163230000000  0.5811760000000  0.5952080000000 1.0
C      1  0.5794420000000  0.4760460000000  0.5930350000000 1.0
C      1  0.4363850000000  0.4285000000000  0.5783000000000 1.0
C      1  0.4614100000000  0.5816540000000  0.5904380000000 1.0
C      1  0.5685040000000  0.4983910000000  0.3991560000000 1.0
C      1  0.4455800000000  0.5703490000000  0.4214700000000 1.0
C      1  0.4670700000000  0.4199160000000  0.4317000000000 1.0
C      1  0.4641250000000  0.4223830000000  0.5321690000000 1.0
C      1  0.4669090000000  0.5596210000000  0.5281470000000 1.0
C      1  0.5828940000000  0.5104320000000  0.5545170000000 1.0
C      1  0.4735300000000  0.5827400000000  0.4870000000000 1.0
C      1  0.4812020000000  0.4508220000000  0.4912010000000 1.0
C      1  0.5705750000000  0.5045770000000  0.4606550000000 1.0
C      1  0.5400510000000  0.5588500000000  0.4557550000000 1.0
C      1  0.5401620000000  0.4377430000000  0.4678490000000 1.0
C      1  0.4472890000000  0.5103760000000  0.4886330000000 1.0
C      1  0.5305450000000  0.4437090000000  0.5164350000000 1.0
C      1  0.5346640000000  0.5701710000000  0.5379620000000 1.0
C      1  0.4205930000000  0.5074210000000  0.5352270000000 1.0
C      1  0.5047630000000  0.4025240000000  0.5760870000000 1.0
C      1  0.4109020000000  0.5276860000000  0.5808150000000 1.0
C      1  0.5583120000000  0.5501510000000  0.6068830000000 1.0
C      1  0.5176090000000  0.5802330000000  0.3970280000000 1.0
C      1  0.4167720000000  0.4727550000000  0.4106320000000 1.0
C      1  0.5620230000000  0.4292140000000  0.4220190000000 1.0
C      1  0.4927760000000  0.5850810000000  0.4061730000000 1.0
C      1  0.5759620000000  0.4497070000000  0.4113850000000 1.0
C      1  0.4288760000000  0.4481140000000  0.4094470000000 1.0
C      1  0.4776230000000  0.4020160000000  0.5755840000000 1.0
C      1  0.5717370000000  0.5271900000000  0.6016110000000 1.0
C      1  0.4239580000000  0.5496270000000  0.5899390000000 1.0
C      1  0.5149780000000  0.6039820000000  0.4565630000000 1.0
C      1  0.5907710000000  0.4452010000000  0.4671660000000 1.0
C      1  0.4149570000000  0.4706660000000  0.4575140000000 1.0
C      1  0.5189790000000  0.3772700000000  0.5321980000000 1.0
C      1  0.5821360000000  0.5776820000000  0.5473220000000 1.0
C      1  0.3980640000000  0.5497680000000  0.5371750000000 1.0
C      1  0.4927810000000  0.3817220000000  0.5275360000000 1.0
C      1  0.4179010000000  0.5676850000000  0.5405200000000 1.0
C      1  0.5988320000000  0.5571840000000  0.5511430000000 1.0
C      1  0.4955640000000  0.6193770000000  0.4673500000000 1.0
C      1  0.4290970000000  0.4450830000000  0.4562870000000 1.0
C      1  0.6018280000000  0.4695330000000  0.4686950000000 1.0
C      1  0.5000100000000  0.5867860000000  0.6179690000000 1.0
C      1  0.5368480000000  0.4515580000000  0.6003890000000 1.0
C      1  0.4380350000000  0.4726650000000  0.5992420000000 1.0
C      1  0.5059080000000  0.4113140000000  0.4021030000000 1.0
C      1  0.5485170000000  0.5261560000000  0.3653850000000 1.0
C      1  0.4320540000000  0.5259140000000  0.4065020000000 1.0
C      1  0.4816340000000  0.4258330000000  0.4054770000000 1.0
C      1  0.4327380000000  0.5539920000000  0.4015390000000 1.0
C      1  0.5465760000000  0.5014280000000  0.3799920000000 1.0
C      1  0.4728000000000  0.5843960000000  0.6165600000000 1.0
C      1  0.4398570000000  0.4442590000000  0.6023700000000 1.0
C      1  0.5612160000000  0.4629390000000  0.6109380000000 1.0
C      1  0.5306100000000  0.4736470000000  0.4754530000000 1.0
C      1  0.4735500000000  0.5041580000000  0.4647030000000 1.0
C      1  0.5209940000000  0.5398060000000  0.4454980000000 1.0
C      1  0.5351090000000  0.5442540000000  0.5507720000000 1.0
C      1  0.4907310000000  0.5113660000000  0.5328800000000 1.0
C      1  0.5117790000000  0.4601930000000  0.5309800000000 1.0
C      1  0.4750040000000  0.5355050000000  0.5414700000000 1.0
C      1  0.5498460000000  0.5220440000000  0.5403040000000 1.0
C      1  0.5114330000000  0.4897050000000  0.5342320000000 1.0
C      1  0.4952290000000  0.4765930000000  0.4716440000000 1.0
C      1  0.5474610000000  0.4876020000000  0.4592160000000 1.0
C      1  0.4929130000000  0.5321860000000  0.4519380000000 1.0
C      1  0.5358200000000  0.4987960000000  0.5460800000000 1.0
C      1  0.4948600000000  0.4647070000000  0.4446310000000 1.0
END
