TITL C-3201378-2706-1892 0.00234059478048533 125000 -52.3912289097231 0 0 12 (D3h) n - 1
REM
REM in /home/nfs/bkarasulu/CARBON/AIRSS/Generating-Clusters/LCBOP/Higher-Symm/SD-CG/FIRE-CG
REM
REM
REM
REM
REM
REM ./C.cell (b20cbc046b6831c77cfcea5457e17084)
REM AIRSS Version 0.9.1 bugfix July 2018 build 013d7b7c2542+ Fri, 06 Jul 2018 19:26:36 +0100
REM compiler GCC version 9.2.1 20190827 (Red Hat 9.2.1-1)
REM options -cpp -mtune=generic -march=x86-64 -g -O0 -fpre-include=/usr/include/finclude/math-vector-fortran.h
REM seed -1138572395 -1445246274 1447881846 827502518 1506862830 1092719779 -1101956800 947983900 1302293398 1599109057 357764789 2128472796 35603633 1521906620 1123647769 668644384 155030471 -828090608 -383542712 -1571595933 -612830458 311675925 -1061700256 -1308751391 -1566868748 -1201306441 -436466457 -1633959214 -2094455752 -1180910219 183760045 1671029846 -768886430
REM
CELL 1.54180   50.00000   50.00000   50.00000   90.00000   90.00000   90.00000
LATT -1
SFAC C  
C      1  0.4343130000000  0.4999400000000  0.5033100000000 1.0
C      1  0.5360740000000  0.5003180000000  0.5552770000000 1.0
C      1  0.5297230000000  0.4997360000000  0.4403540000000 1.0
C      1  0.5166240000000  0.5000790000000  0.5119860000000 1.0
C      1  0.5028370000000  0.4999010000000  0.4794470000000 1.0
C      1  0.4813950000000  0.5000240000000  0.5091840000000 1.0
C      1  0.5638420000000  0.5001580000000  0.5167660000000 1.0
C      1  0.4823920000000  0.4996630000000  0.4366320000000 1.0
C      1  0.4527960000000  0.5001800000000  0.5470420000000 1.0
C      1  0.4561810000000  0.5000480000000  0.5198400000000 1.0
C      1  0.5388400000000  0.5001850000000  0.5280050000000 1.0
C      1  0.5049830000000  0.4997670000000  0.4521580000000 1.0
END
