TITL C-3201373-1215-2159 226735.073316915 125000 -1132.59420885081 0 0 196 (C1) n - 1
REM
REM in /home/nfs/bkarasulu/CARBON/AIRSS/Generating-Clusters/LCBOP/Higher-Symm/SD-CG/FIRE-CG
REM
REM
REM
REM
REM
REM ./C.cell (b20cbc046b6831c77cfcea5457e17084)
REM AIRSS Version 0.9.1 bugfix July 2018 build 013d7b7c2542+ Fri, 06 Jul 2018 19:26:36 +0100
REM compiler GCC version 9.2.1 20190827 (Red Hat 9.2.1-1)
REM options -cpp -mtune=generic -march=x86-64 -g -O0 -fpre-include=/usr/include/finclude/math-vector-fortran.h
REM seed -257172661 1596455209 -1580141344 -2018129120 269815475 -268167669 -1727184902 1556923045 1159398249 1985398591 1204441104 -119204460 630705689 -890981774 2018238441 -846006821 927503932 -1562089058 -2100835420 -163086435 2145340932 -259161123 1558402637 -1956838706 318923300 894249383 -1347457703 -1154095301 -1551852082 -388720771 -1813253858 2120908775 -225188253
REM
CELL 1.54180   50.00000   50.00000   50.00000   90.00000   90.00000   90.00000
LATT -1
SFAC C  
C      1  0.4246980000000  0.5690160000000  0.5804940000000 1.0
C      1  0.5688410000000  0.5813680000000  0.5769320000000 1.0
C      1  0.5785590000000  0.4358890000000  0.5769000000000 1.0
C      1  0.4320270000000  0.4237330000000  0.5718310000000 1.0
C      1  0.4249640000000  0.4334640000000  0.4191780000000 1.0
C      1  0.5666040000000  0.4192570000000  0.4223250000000 1.0
C      1  0.5783330000000  0.5658760000000  0.4218940000000 1.0
C      1  0.4323650000000  0.5798340000000  0.4255870000000 1.0
C      1  0.4052420000000  0.4827820000000  0.4140160000000 1.0
C      1  0.4811690000000  0.5932350000000  0.4118280000000 1.0
C      1  0.5924120000000  0.5168230000000  0.4099790000000 1.0
C      1  0.5174410000000  0.4058160000000  0.4097270000000 1.0
C      1  0.4054330000000  0.5204670000000  0.5878370000000 1.0
C      1  0.4813260000000  0.4098630000000  0.5846250000000 1.0
C      1  0.5920510000000  0.4846640000000  0.5898150000000 1.0
C      1  0.5204200000000  0.5950250000000  0.5910370000000 1.0
C      1  0.5845580000000  0.5806970000000  0.5306840000000 1.0
C      1  0.5799960000000  0.4174790000000  0.5314210000000 1.0
C      1  0.4160770000000  0.4188420000000  0.5234520000000 1.0
C      1  0.4270520000000  0.5876540000000  0.5356310000000 1.0
C      1  0.5845870000000  0.4197580000000  0.4679580000000 1.0
C      1  0.5791450000000  0.5832700000000  0.4675090000000 1.0
C      1  0.4186110000000  0.5808140000000  0.4725730000000 1.0
C      1  0.4263690000000  0.4093530000000  0.4617890000000 1.0
C      1  0.4886550000000  0.6035200000000  0.5472440000000 1.0
C      1  0.6036520000000  0.5163820000000  0.5457930000000 1.0
C      1  0.5170740000000  0.3960250000000  0.5460590000000 1.0
C      1  0.3939390000000  0.4882070000000  0.5427140000000 1.0
C      1  0.4857930000000  0.3958340000000  0.4528110000000 1.0
C      1  0.6031580000000  0.4832800000000  0.4531890000000 1.0
C      1  0.5147050000000  0.6025210000000  0.4539600000000 1.0
C      1  0.3905640000000  0.5175000000000  0.4584450000000 1.0
C      1  0.5414650000000  0.4725680000000  0.5743920000000 1.0
C      1  0.4675170000000  0.4573870000000  0.5781610000000 1.0
C      1  0.4528940000000  0.5317300000000  0.5747770000000 1.0
C      1  0.5365180000000  0.5461120000000  0.5795340000000 1.0
C      1  0.5440660000000  0.5319220000000  0.4216910000000 1.0
C      1  0.4669630000000  0.5441340000000  0.4262960000000 1.0
C      1  0.4527420000000  0.4696750000000  0.4258350000000 1.0
C      1  0.5324340000000  0.4533780000000  0.4201260000000 1.0
C      1  0.4999710000000  0.4790330000000  0.6054270000000 1.0
C      1  0.4735280000000  0.5026670000000  0.6059700000000 1.0
C      1  0.5029790000000  0.5243910000000  0.6070130000000 1.0
C      1  0.5221410000000  0.5009430000000  0.6062910000000 1.0
C      1  0.4970040000000  0.5247170000000  0.3945520000000 1.0
C      1  0.4746370000000  0.4986410000000  0.3956280000000 1.0
C      1  0.4987970000000  0.4765400000000  0.3943560000000 1.0
C      1  0.5216480000000  0.5002060000000  0.3933090000000 1.0
C      1  0.4604620000000  0.4742960000000  0.5565970000000 1.0
C      1  0.4704200000000  0.5404350000000  0.5548250000000 1.0
C      1  0.5400260000000  0.5280600000000  0.5567230000000 1.0
C      1  0.5215990000000  0.4694720000000  0.5543580000000 1.0
C      1  0.4607550000000  0.5247180000000  0.4460210000000 1.0
C      1  0.4714320000000  0.4608150000000  0.4450030000000 1.0
C      1  0.5397460000000  0.4718750000000  0.4408540000000 1.0
C      1  0.5257770000000  0.5370620000000  0.4431490000000 1.0
C      1  0.5841770000000  0.4942520000000  0.4715130000000 1.0
C      1  0.4971500000000  0.4148670000000  0.4710530000000 1.0
C      1  0.4112650000000  0.4986830000000  0.4669730000000 1.0
C      1  0.5026150000000  0.5836330000000  0.4721000000000 1.0
C      1  0.5849640000000  0.5035000000000  0.5280340000000 1.0
C      1  0.4988080000000  0.5836130000000  0.5292600000000 1.0
C      1  0.4099960000000  0.4910290000000  0.5196440000000 1.0
C      1  0.5054690000000  0.4148220000000  0.5276420000000 1.0
C      1  0.4227380000000  0.5146280000000  0.5104690000000 1.0
C      1  0.5236400000000  0.5766050000000  0.5183600000000 1.0
C      1  0.5764100000000  0.4780740000000  0.5192640000000 1.0
C      1  0.4799200000000  0.4215860000000  0.5186470000000 1.0
C      1  0.4140200000000  0.4720260000000  0.4758310000000 1.0
C      1  0.5227280000000  0.4215290000000  0.4802980000000 1.0
C      1  0.5776140000000  0.5200790000000  0.4802160000000 1.0
C      1  0.4778900000000  0.5754350000000  0.4831590000000 1.0
C      1  0.3798030000000  0.5636990000000  0.5347240000000 1.0
C      1  0.5506270000000  0.6232590000000  0.5248220000000 1.0
C      1  0.6227470000000  0.4510480000000  0.5252970000000 1.0
C      1  0.4524190000000  0.3771210000000  0.5243050000000 1.0
C      1  0.3783580000000  0.4239350000000  0.4552960000000 1.0
C      1  0.5516720000000  0.3765720000000  0.4743960000000 1.0
C      1  0.6214040000000  0.5488300000000  0.4730080000000 1.0
C      1  0.4520670000000  0.6244680000000  0.4751310000000 1.0
C      1  0.5407070000000  0.4403040000000  0.4719370000000 1.0
C      1  0.4374410000000  0.4569510000000  0.4749450000000 1.0
C      1  0.4587960000000  0.5562420000000  0.4772330000000 1.0
C      1  0.5587780000000  0.5384700000000  0.4724610000000 1.0
C      1  0.5430430000000  0.5582790000000  0.5248420000000 1.0
C      1  0.4375940000000  0.5336810000000  0.5238110000000 1.0
C      1  0.4610060000000  0.4392680000000  0.5276910000000 1.0
C      1  0.5562060000000  0.4609040000000  0.5271440000000 1.0
C      1  0.4776490000000  0.4173150000000  0.4912710000000 1.0
C      1  0.4270270000000  0.5162160000000  0.4824780000000 1.0
C      1  0.5236210000000  0.5812520000000  0.4910700000000 1.0
C      1  0.5818000000000  0.4749810000000  0.4920480000000 1.0
C      1  0.4777240000000  0.5807550000000  0.5105880000000 1.0
C      1  0.4029270000000  0.4709650000000  0.5012970000000 1.0
C      1  0.5251830000000  0.4170220000000  0.5075890000000 1.0
C      1  0.5835660000000  0.5228270000000  0.5071640000000 1.0
C      1  0.5307770000000  0.5417260000000  0.4705690000000 1.0
C      1  0.5426170000000  0.4681190000000  0.4690070000000 1.0
C      1  0.4652350000000  0.4559670000000  0.4718460000000 1.0
C      1  0.4527710000000  0.5271960000000  0.4742220000000 1.0
C      1  0.5279960000000  0.4601130000000  0.5288340000000 1.0
C      1  0.5450130000000  0.5302880000000  0.5284060000000 1.0
C      1  0.4648670000000  0.5400870000000  0.5276060000000 1.0
C      1  0.4567660000000  0.4668740000000  0.5296530000000 1.0
C      1  0.5135830000000  0.5317380000000  0.4936710000000 1.0
C      1  0.5313270000000  0.4856180000000  0.4910680000000 1.0
C      1  0.4847280000000  0.4657340000000  0.4929690000000 1.0
C      1  0.4701590000000  0.5102360000000  0.4939280000000 1.0
C      1  0.5122880000000  0.4672900000000  0.5047200000000 1.0
C      1  0.5326590000000  0.5125560000000  0.5062780000000 1.0
C      1  0.4861380000000  0.5306300000000  0.5072560000000 1.0
C      1  0.4673320000000  0.4842140000000  0.5075950000000 1.0
C      1  0.4169770000000  0.4390460000000  0.5532850000000 1.0
C      1  0.4411110000000  0.5833080000000  0.5617680000000 1.0
C      1  0.5821910000000  0.5659000000000  0.5569830000000 1.0
C      1  0.5643560000000  0.4208660000000  0.5572680000000 1.0
C      1  0.4181120000000  0.5657600000000  0.4460570000000 1.0
C      1  0.4411370000000  0.4163750000000  0.4364960000000 1.0
C      1  0.5813770000000  0.4344900000000  0.4415540000000 1.0
C      1  0.5635720000000  0.5803700000000  0.4416590000000 1.0
C      1  0.4933790000000  0.4542870000000  0.5916540000000 1.0
C      1  0.4498300000000  0.5078200000000  0.5909290000000 1.0
C      1  0.5100720000000  0.5495080000000  0.5941010000000 1.0
C      1  0.5467100000000  0.4957180000000  0.5913270000000 1.0
C      1  0.4909520000000  0.5480040000000  0.4098470000000 1.0
C      1  0.4498560000000  0.4946920000000  0.4107100000000 1.0
C      1  0.5060230000000  0.4509610000000  0.4068060000000 1.0
C      1  0.5470210000000  0.5066770000000  0.4065000000000 1.0
C      1  0.4750110000000  0.5892290000000  0.5693580000000 1.0
C      1  0.5891090000000  0.5321550000000  0.5654450000000 1.0
C      1  0.5312450000000  0.4128520000000  0.5657120000000 1.0
C      1  0.4088120000000  0.4730120000000  0.5628220000000 1.0
C      1  0.4716900000000  0.4107150000000  0.4309860000000 1.0
C      1  0.5887310000000  0.4682400000000  0.4328670000000 1.0
C      1  0.5297320000000  0.5880600000000  0.4337930000000 1.0
C      1  0.4071660000000  0.5331440000000  0.4375270000000 1.0
C      1  0.5078520000000  0.5169060000000  0.4417230000000 1.0
C      1  0.5199110000000  0.4904610000000  0.4392700000000 1.0
C      1  0.4932480000000  0.4762120000000  0.4439230000000 1.0
C      1  0.4802080000000  0.5059270000000  0.4466610000000 1.0
C      1  0.5041720000000  0.4904460000000  0.5540310000000 1.0
C      1  0.5154540000000  0.5156290000000  0.5565500000000 1.0
C      1  0.4949540000000  0.5323950000000  0.5591580000000 1.0
C      1  0.4774440000000  0.4953970000000  0.5557620000000 1.0
C      1  0.4220530000000  0.5069990000000  0.4171410000000 1.0
C      1  0.5036010000000  0.5749100000000  0.4142660000000 1.0
C      1  0.5744140000000  0.4939420000000  0.4124680000000 1.0
C      1  0.4938060000000  0.4234000000000  0.4127340000000 1.0
C      1  0.4222530000000  0.4964620000000  0.5846010000000 1.0
C      1  0.5053060000000  0.4270440000000  0.5844940000000 1.0
C      1  0.5743400000000  0.5072880000000  0.5862500000000 1.0
C      1  0.4972500000000  0.5770050000000  0.5879740000000 1.0
C      1  0.4545020000000  0.4110940000000  0.5802140000000 1.0
C      1  0.4094320000000  0.5474620000000  0.5868370000000 1.0
C      1  0.5470910000000  0.5940670000000  0.5865480000000 1.0
C      1  0.5908850000000  0.4579320000000  0.5861180000000 1.0
C      1  0.4544100000000  0.5921510000000  0.4160570000000 1.0
C      1  0.4098640000000  0.4556850000000  0.4140790000000 1.0
C      1  0.5442790000000  0.4067620000000  0.4136100000000 1.0
C      1  0.5911910000000  0.5437000000000  0.4133730000000 1.0
C      1  0.6025010000000  0.4326160000000  0.5177400000000 1.0
C      1  0.4344210000000  0.3964320000000  0.5136490000000 1.0
C      1  0.4040980000000  0.5728320000000  0.5242010000000 1.0
C      1  0.5689250000000  0.6029470000000  0.5171740000000 1.0
C      1  0.6017110000000  0.5678160000000  0.4807190000000 1.0
C      1  0.4342730000000  0.6042830000000  0.4844180000000 1.0
C      1  0.4006150000000  0.4201930000000  0.4716030000000 1.0
C      1  0.5695570000000  0.3973360000000  0.4818990000000 1.0
C      1  0.3561310000000  0.4282040000000  0.4423700000000 1.0
C      1  0.4729300000000  0.6379030000000  0.4864110000000 1.0
C      1  0.6346940000000  0.5288740000000  0.4826830000000 1.0
C      1  0.5307760000000  0.3630270000000  0.4852570000000 1.0
C      1  0.3627960000000  0.5460420000000  0.5234860000000 1.0
C      1  0.4730180000000  0.3640090000000  0.5155890000000 1.0
C      1  0.6362640000000  0.4717270000000  0.5140020000000 1.0
C      1  0.5307250000000  0.6365920000000  0.5151110000000 1.0
C      1  0.5706430000000  0.6014890000000  0.4881020000000 1.0
C      1  0.6019400000000  0.4296360000000  0.4887270000000 1.0
C      1  0.4360300000000  0.3952220000000  0.4844940000000 1.0
C      1  0.4052420000000  0.5696300000000  0.4955010000000 1.0
C      1  0.5715140000000  0.3990000000000  0.5109660000000 1.0
C      1  0.6016330000000  0.5708940000000  0.5097030000000 1.0
C      1  0.4345790000000  0.6044990000000  0.5137690000000 1.0
C      1  0.3990200000000  0.4240510000000  0.5004440000000 1.0
C      1  0.4871550000000  0.3712390000000  0.4688060000000 1.0
C      1  0.3718090000000  0.5202510000000  0.4819170000000 1.0
C      1  0.5153680000000  0.6268800000000  0.4698190000000 1.0
C      1  0.6276850000000  0.4858930000000  0.4676610000000 1.0
C      1  0.4888420000000  0.6273280000000  0.5317000000000 1.0
C      1  0.3690250000000  0.4997450000000  0.5325460000000 1.0
C      1  0.5156930000000  0.3716420000000  0.5313680000000 1.0
C      1  0.6281740000000  0.5155620000000  0.5296410000000 1.0
C      1  0.3654150000000  0.5203000000000  0.5114150000000 1.0
C      1  0.5011600000000  0.6341810000000  0.4982120000000 1.0
C      1  0.6338860000000  0.4997560000000  0.5012040000000 1.0
C      1  0.5024890000000  0.3653700000000  0.4975480000000 1.0
END
