TITL C-3201379-3821-461 37290.9736402903 125000 -92.0499048830746 0 0 23 (Td) n - 1
REM
REM in /home/nfs/bkarasulu/CARBON/AIRSS/Generating-Clusters/LCBOP/Higher-Symm/SD-CG/FIRE-CG
REM
REM
REM
REM
REM
REM ./C.cell (b20cbc046b6831c77cfcea5457e17084)
REM AIRSS Version 0.9.1 bugfix July 2018 build 013d7b7c2542+ Fri, 06 Jul 2018 19:26:36 +0100
REM compiler GCC version 9.2.1 20190827 (Red Hat 9.2.1-1)
REM options -cpp -mtune=generic -march=x86-64 -g -O0 -fpre-include=/usr/include/finclude/math-vector-fortran.h
REM seed -1737775905 -15772469 -881867911 1045294608 1219243520 -1173562953 1949649216 1285668918 -1635522254 1818001938 -1343032672 1308195573 -1010739307 1227701847 1661862093 1667221911 150840682 1753761733 -114489847 784066702 80822538 1831751261 533096016 760475484 -760046128 -1145737433 -2132783619 -2082219712 -1500620599 -432072029 -677277959 -1112244702 -303403956
REM
CELL 1.54180   50.00000   50.00000   50.00000   90.00000   90.00000   90.00000
LATT -1
SFAC C  
C      1  0.5348850000000  0.4643670000000  0.5044990000000 1.0
C      1  0.4644520000000  0.5348250000000  0.5044820000000 1.0
C      1  0.5036500000000  0.4644650000000  0.5350120000000 1.0
C      1  0.5041710000000  0.5348430000000  0.4646430000000 1.0
C      1  0.4645680000000  0.5035930000000  0.5351240000000 1.0
C      1  0.5349520000000  0.5039910000000  0.4648120000000 1.0
C      1  0.4645590000000  0.4644920000000  0.4959620000000 1.0
C      1  0.5351420000000  0.5351590000000  0.4951340000000 1.0
C      1  0.4641000000000  0.4948720000000  0.4647440000000 1.0
C      1  0.4951430000000  0.4644650000000  0.4646720000000 1.0
C      1  0.5348920000000  0.4948290000000  0.5354740000000 1.0
C      1  0.4948420000000  0.5348930000000  0.5355330000000 1.0
C      1  0.5363680000000  0.4994130000000  0.4998970000000 1.0
C      1  0.4990780000000  0.4627210000000  0.5003300000000 1.0
C      1  0.4992140000000  0.5361780000000  0.4996280000000 1.0
C      1  0.4998820000000  0.4992280000000  0.4631760000000 1.0
C      1  0.4627650000000  0.4990060000000  0.5005430000000 1.0
C      1  0.4991130000000  0.4990310000000  0.5367220000000 1.0
C      1  0.5334340000000  0.5334210000000  0.4663120000000 1.0
C      1  0.5334200000000  0.4658880000000  0.5336720000000 1.0
C      1  0.4660560000000  0.5334290000000  0.5337880000000 1.0
C      1  0.4657950000000  0.4660340000000  0.4660870000000 1.0
C      1  0.5002050000000  0.5002730000000  0.4996840000000 1.0
END
