TITL C-3201373-1215-1906 -2414.78736560072 125000 -1125.25129037126 0 0 179 (C1) n - 1
REM
REM in /home/nfs/bkarasulu/CARBON/AIRSS/Generating-Clusters/LCBOP/Higher-Symm/SD-CG/FIRE-CG
REM
REM
REM
REM
REM
REM ./C.cell (b20cbc046b6831c77cfcea5457e17084)
REM AIRSS Version 0.9.1 bugfix July 2018 build 013d7b7c2542+ Fri, 06 Jul 2018 19:26:36 +0100
REM compiler GCC version 9.2.1 20190827 (Red Hat 9.2.1-1)
REM options -cpp -mtune=generic -march=x86-64 -g -O0 -fpre-include=/usr/include/finclude/math-vector-fortran.h
REM seed 1812558107 168854333 -726402825 281890093 -585046588 -1446501226 291157003 -1259803892 1567932226 1312643172 1008045454 -1974596507 -353357173 1218196554 -2089007733 -109649964 -1769373487 -934011370 -659923475 -548479775 -764277848 1158150229 -1924787697 -523849674 2038520261 -1959989890 1096468705 1937736869 1857255474 -972081013 -1756203973 1739383310 -1765260628
REM
CELL 1.54180   50.00000   50.00000   50.00000   90.00000   90.00000   90.00000
LATT -1
SFAC C  
C      1  0.4890400000000  0.6050160000000  0.5720100000000 1.0
C      1  0.5679130000000  0.6009940000000  0.4762850000000 1.0
C      1  0.4415430000000  0.6049360000000  0.4506270000000 1.0
C      1  0.4885430000000  0.3972180000000  0.5741860000000 1.0
C      1  0.5723780000000  0.3967360000000  0.4747810000000 1.0
C      1  0.4428770000000  0.3975160000000  0.4526000000000 1.0
C      1  0.6249470000000  0.4784330000000  0.3950180000000 1.0
C      1  0.3461370000000  0.4885540000000  0.4273860000000 1.0
C      1  0.5378830000000  0.4948740000000  0.6555510000000 1.0
C      1  0.6415470000000  0.4985510000000  0.4017190000000 1.0
C      1  0.3461660000000  0.5032920000000  0.4499150000000 1.0
C      1  0.5192550000000  0.5095550000000  0.6682900000000 1.0
C      1  0.5629290000000  0.4710060000000  0.5669300000000 1.0
C      1  0.5342550000000  0.4811780000000  0.4110370000000 1.0
C      1  0.4098050000000  0.4797740000000  0.5207000000000 1.0
C      1  0.5613830000000  0.5207670000000  0.5720880000000 1.0
C      1  0.5289770000000  0.5173230000000  0.4107330000000 1.0
C      1  0.4065030000000  0.5287560000000  0.5176990000000 1.0
C      1  0.5787800000000  0.4952370000000  0.4473180000000 1.0
C      1  0.4162170000000  0.4881630000000  0.4276000000000 1.0
C      1  0.4981070000000  0.4931350000000  0.5972740000000 1.0
C      1  0.5993150000000  0.5130790000000  0.4562610000000 1.0
C      1  0.4164280000000  0.5079690000000  0.4479540000000 1.0
C      1  0.4813480000000  0.5127360000000  0.6092780000000 1.0
C      1  0.4417020000000  0.5489820000000  0.4422280000000 1.0
C      1  0.4701200000000  0.5525900000000  0.5830230000000 1.0
C      1  0.5831680000000  0.5480080000000  0.4854690000000 1.0
C      1  0.4457940000000  0.4498950000000  0.4338330000000 1.0
C      1  0.4800630000000  0.4525900000000  0.5780560000000 1.0
C      1  0.5869010000000  0.4514420000000  0.4865920000000 1.0
C      1  0.3666390000000  0.4795280000000  0.4125450000000 1.0
C      1  0.5383610000000  0.4854640000000  0.6303970000000 1.0
C      1  0.6017340000000  0.4709310000000  0.4062200000000 1.0
C      1  0.3666220000000  0.5136030000000  0.4639420000000 1.0
C      1  0.4958740000000  0.5193510000000  0.6593820000000 1.0
C      1  0.6392540000000  0.5162110000000  0.4218530000000 1.0
C      1  0.4595900000000  0.3899450000000  0.4753260000000 1.0
C      1  0.4989880000000  0.3884340000000  0.5481870000000 1.0
C      1  0.5444260000000  0.3888680000000  0.4773470000000 1.0
C      1  0.4589620000000  0.6137960000000  0.4725260000000 1.0
C      1  0.5009940000000  0.6116910000000  0.5460980000000 1.0
C      1  0.5408160000000  0.6116060000000  0.4744680000000 1.0
C      1  0.4652830000000  0.5143730000000  0.4660480000000 1.0
C      1  0.4849380000000  0.5111120000000  0.5325310000000 1.0
C      1  0.5220830000000  0.5095610000000  0.4974980000000 1.0
C      1  0.4785940000000  0.4911080000000  0.4728540000000 1.0
C      1  0.4870850000000  0.4874440000000  0.5462880000000 1.0
C      1  0.5391500000000  0.4906670000000  0.4874510000000 1.0
C      1  0.5897430000000  0.5297660000000  0.5395670000000 1.0
C      1  0.4848900000000  0.5334390000000  0.4011160000000 1.0
C      1  0.4168260000000  0.5425340000000  0.5592150000000 1.0
C      1  0.5927330000000  0.4659830000000  0.5326600000000 1.0
C      1  0.4923090000000  0.4598400000000  0.3999160000000 1.0
C      1  0.4221380000000  0.4686480000000  0.5634150000000 1.0
C      1  0.4647190000000  0.5254250000000  0.5906550000000 1.0
C      1  0.5942210000000  0.5221550000000  0.4822640000000 1.0
C      1  0.4412130000000  0.5213140000000  0.4509230000000 1.0
C      1  0.4872670000000  0.4802480000000  0.5744870000000 1.0
C      1  0.5555140000000  0.4941770000000  0.4640150000000 1.0
C      1  0.4413450000000  0.4763400000000  0.4243690000000 1.0
C      1  0.4862840000000  0.6050970000000  0.4724420000000 1.0
C      1  0.4849900000000  0.6069090000000  0.5228250000000 1.0
C      1  0.5271530000000  0.6054780000000  0.4989280000000 1.0
C      1  0.4878930000000  0.3946320000000  0.4745090000000 1.0
C      1  0.4852310000000  0.3966030000000  0.5244000000000 1.0
C      1  0.5298370000000  0.3951430000000  0.5011200000000 1.0
C      1  0.4462320000000  0.5738450000000  0.5311950000000 1.0
C      1  0.5520720000000  0.5637680000000  0.5341710000000 1.0
C      1  0.4987900000000  0.5667840000000  0.4381940000000 1.0
C      1  0.4475460000000  0.4346000000000  0.5318870000000 1.0
C      1  0.5535520000000  0.4314850000000  0.5298830000000 1.0
C      1  0.5011390000000  0.4295690000000  0.4391680000000 1.0
C      1  0.5343160000000  0.5892800000000  0.5729310000000 1.0
C      1  0.5483550000000  0.5865210000000  0.4344870000000 1.0
C      1  0.4176050000000  0.5969300000000  0.4916510000000 1.0
C      1  0.5358540000000  0.4055780000000  0.5745390000000 1.0
C      1  0.5503300000000  0.4112110000000  0.4349070000000 1.0
C      1  0.4198800000000  0.4125420000000  0.4916600000000 1.0
C      1  0.4438680000000  0.3977840000000  0.4999520000000 1.0
C      1  0.5291500000000  0.3929420000000  0.5489720000000 1.0
C      1  0.5314050000000  0.3951540000000  0.4513190000000 1.0
C      1  0.4431580000000  0.6101350000000  0.4984210000000 1.0
C      1  0.5306250000000  0.6042640000000  0.5472020000000 1.0
C      1  0.5287560000000  0.6032300000000  0.4487880000000 1.0
C      1  0.4630660000000  0.4073980000000  0.5813390000000 1.0
C      1  0.5914970000000  0.4021360000000  0.4945470000000 1.0
C      1  0.4503690000000  0.4023580000000  0.4259230000000 1.0
C      1  0.4622010000000  0.6004410000000  0.5795060000000 1.0
C      1  0.5743300000000  0.5929280000000  0.5027420000000 1.0
C      1  0.4480040000000  0.5941730000000  0.4252460000000 1.0
C      1  0.5880800000000  0.4827640000000  0.5570180000000 1.0
C      1  0.5084280000000  0.4811060000000  0.3863930000000 1.0
C      1  0.4015080000000  0.4870780000000  0.5483450000000 1.0
C      1  0.5882160000000  0.5125470000000  0.5632390000000 1.0
C      1  0.5054280000000  0.5146450000000  0.3884250000000 1.0
C      1  0.3973300000000  0.5231700000000  0.5459720000000 1.0
C      1  0.4769810000000  0.5168230000000  0.4226070000000 1.0
C      1  0.4400950000000  0.5272320000000  0.5524010000000 1.0
C      1  0.5719100000000  0.5136630000000  0.5223860000000 1.0
C      1  0.4870470000000  0.4747900000000  0.4236820000000 1.0
C      1  0.4446360000000  0.4850220000000  0.5603640000000 1.0
C      1  0.5919880000000  0.4750100000000  0.5040680000000 1.0
C      1  0.5604290000000  0.5549040000000  0.4690090000000 1.0
C      1  0.4392300000000  0.5625620000000  0.4675650000000 1.0
C      1  0.4965650000000  0.5583750000000  0.5721080000000 1.0
C      1  0.5655940000000  0.4433710000000  0.4678600000000 1.0
C      1  0.4415890000000  0.4439450000000  0.4621130000000 1.0
C      1  0.5031610000000  0.4394050000000  0.5665920000000 1.0
C      1  0.4354570000000  0.4420300000000  0.5587830000000 1.0
C      1  0.5821510000000  0.4375230000000  0.5296440000000 1.0
C      1  0.4871230000000  0.4330140000000  0.4120300000000 1.0
C      1  0.4304200000000  0.5693270000000  0.5573350000000 1.0
C      1  0.5811950000000  0.5564530000000  0.5326720000000 1.0
C      1  0.4815850000000  0.5597560000000  0.4146390000000 1.0
C      1  0.5274120000000  0.5366170000000  0.5019810000000 1.0
C      1  0.4803770000000  0.5382800000000  0.4730470000000 1.0
C      1  0.4828480000000  0.5389670000000  0.5294080000000 1.0
C      1  0.5355490000000  0.4645930000000  0.4982200000000 1.0
C      1  0.4849610000000  0.4635180000000  0.4738450000000 1.0
C      1  0.4856950000000  0.4641890000000  0.5289660000000 1.0
C      1  0.4540370000000  0.5662120000000  0.4218650000000 1.0
C      1  0.4505430000000  0.5742620000000  0.5784020000000 1.0
C      1  0.5877290000000  0.5673710000000  0.5066510000000 1.0
C      1  0.4587810000000  0.4284500000000  0.4182900000000 1.0
C      1  0.4564980000000  0.4352610000000  0.5782150000000 1.0
C      1  0.5939110000000  0.4282910000000  0.5045790000000 1.0
C      1  0.5346230000000  0.4561490000000  0.5276130000000 1.0
C      1  0.5112790000000  0.4548740000000  0.4568150000000 1.0
C      1  0.4577900000000  0.4594720000000  0.5148570000000 1.0
C      1  0.5311480000000  0.5418270000000  0.5329260000000 1.0
C      1  0.5074580000000  0.5426210000000  0.4565890000000 1.0
C      1  0.4568690000000  0.5484700000000  0.5152260000000 1.0
C      1  0.5701580000000  0.4182200000000  0.4548110000000 1.0
C      1  0.4272260000000  0.4192800000000  0.4647760000000 1.0
C      1  0.5101630000000  0.4159950000000  0.5813800000000 1.0
C      1  0.5662650000000  0.5797290000000  0.4560630000000 1.0
C      1  0.4243800000000  0.5866720000000  0.4658020000000 1.0
C      1  0.5069870000000  0.5835950000000  0.5805040000000 1.0
C      1  0.4601830000000  0.4522440000000  0.4840260000000 1.0
C      1  0.5073870000000  0.4477080000000  0.5386370000000 1.0
C      1  0.5369370000000  0.4491530000000  0.4738070000000 1.0
C      1  0.4602390000000  0.5545120000000  0.4860670000000 1.0
C      1  0.5042890000000  0.5492810000000  0.5455890000000 1.0
C      1  0.5323600000000  0.5478760000000  0.4753940000000 1.0
C      1  0.5574100000000  0.4212580000000  0.5828800000000 1.0
C      1  0.5481790000000  0.4292940000000  0.4135550000000 1.0
C      1  0.4024320000000  0.4304370000000  0.5040850000000 1.0
C      1  0.5529900000000  0.5712380000000  0.5835370000000 1.0
C      1  0.5470050000000  0.5677150000000  0.4137710000000 1.0
C      1  0.3999260000000  0.5798920000000  0.5052550000000 1.0
C      1  0.4408120000000  0.4875610000000  0.5222170000000 1.0
C      1  0.5427240000000  0.4800750000000  0.5469010000000 1.0
C      1  0.5122390000000  0.4802420000000  0.4385340000000 1.0
C      1  0.4386220000000  0.5230010000000  0.5218000000000 1.0
C      1  0.5447530000000  0.5127010000000  0.5425870000000 1.0
C      1  0.5094700000000  0.5150860000000  0.4386350000000 1.0
C      1  0.5853540000000  0.4784480000000  0.4259680000000 1.0
C      1  0.3933440000000  0.4805070000000  0.4135620000000 1.0
C      1  0.5224570000000  0.4858200000000  0.6089120000000 1.0
C      1  0.6219260000000  0.5205270000000  0.4417420000000 1.0
C      1  0.3932910000000  0.5144210000000  0.4622070000000 1.0
C      1  0.4822570000000  0.5194230000000  0.6363680000000 1.0
C      1  0.3971210000000  0.5530770000000  0.5069080000000 1.0
C      1  0.5569460000000  0.5446810000000  0.5855430000000 1.0
C      1  0.5447470000000  0.5414230000000  0.4085680000000 1.0
C      1  0.3996500000000  0.4567480000000  0.5085760000000 1.0
C      1  0.5629290000000  0.4475510000000  0.5821820000000 1.0
C      1  0.5470060000000  0.4555070000000  0.4074440000000 1.0
C      1  0.5042630000000  0.4040410000000  0.4523490000000 1.0
C      1  0.4584150000000  0.4083630000000  0.5223010000000 1.0
C      1  0.5409770000000  0.4050770000000  0.5257680000000 1.0
C      1  0.5018890000000  0.5933580000000  0.4504610000000 1.0
C      1  0.4571300000000  0.5993480000000  0.5211770000000 1.0
C      1  0.5460230000000  0.5930410000000  0.5221570000000 1.0
C      1  0.4506800000000  0.5100730000000  0.5711540000000 1.0
C      1  0.5861820000000  0.5024820000000  0.5011400000000 1.0
C      1  0.4650150000000  0.4917540000000  0.4224960000000 1.0
C      1  0.4992390000000  0.6060520000000  0.4982250000000 1.0
C      1  0.5009400000000  0.3945620000000  0.5000650000000 1.0
END
