TITL C-3201379-3821-1416 1.3655630683393e-06 125000 -321.82221340427 0 0 52 (C1) n - 1
REM
REM in /home/nfs/bkarasulu/CARBON/AIRSS/Generating-Clusters/LCBOP/Higher-Symm/SD-CG/FIRE-CG
REM
REM
REM
REM
REM
REM ./C.cell (b20cbc046b6831c77cfcea5457e17084)
REM AIRSS Version 0.9.1 bugfix July 2018 build 013d7b7c2542+ Fri, 06 Jul 2018 19:26:36 +0100
REM compiler GCC version 9.2.1 20190827 (Red Hat 9.2.1-1)
REM options -cpp -mtune=generic -march=x86-64 -g -O0 -fpre-include=/usr/include/finclude/math-vector-fortran.h
REM seed -711251462 1700787001 -1570663968 -1259470193 -1367718397 -854259283 -144565057 867488981 61604501 620275679 -395522391 251103275 1717190226 450970469 1062708183 -1577719993 1394571032 -1928866017 1079020989 1001738528 -2054493224 1294937870 -359066456 -346229539 1632804391 233651125 1154962316 1604673522 -545320712 -35816865 1439214302 -76469844 173637218
REM
CELL 1.54180   50.00000   50.00000   50.00000   90.00000   90.00000   90.00000
LATT -1
SFAC C  
C      1  0.5889850000000  0.4660400000000  0.4793930000000 1.0
C      1  0.4647280000000  0.4347460000000  0.4899340000000 1.0
C      1  0.4694260000000  0.5980600000000  0.4769250000000 1.0
C      1  0.5704790000000  0.5018820000000  0.5082390000000 1.0
C      1  0.4515130000000  0.5678010000000  0.5114640000000 1.0
C      1  0.4834980000000  0.4076090000000  0.5265210000000 1.0
C      1  0.4971860000000  0.5177090000000  0.4598990000000 1.0
C      1  0.5180220000000  0.5018540000000  0.4500210000000 1.0
C      1  0.4771820000000  0.5039870000000  0.4744260000000 1.0
C      1  0.4942820000000  0.4912000000000  0.5462110000000 1.0
C      1  0.5117590000000  0.5100810000000  0.5573430000000 1.0
C      1  0.4740520000000  0.5014760000000  0.5293980000000 1.0
C      1  0.4838340000000  0.4307930000000  0.5104480000000 1.0
C      1  0.4337380000000  0.5463900000000  0.5055680000000 1.0
C      1  0.5522070000000  0.5233670000000  0.5057050000000 1.0
C      1  0.4718910000000  0.5751780000000  0.4932370000000 1.0
C      1  0.4428390000000  0.4525380000000  0.4936060000000 1.0
C      1  0.5673130000000  0.4793220000000  0.4916270000000 1.0
C      1  0.5322080000000  0.5274480000000  0.5491070000000 1.0
C      1  0.5009560000000  0.4637210000000  0.5437110000000 1.0
C      1  0.4498070000000  0.5139740000000  0.5372140000000 1.0
C      1  0.5347270000000  0.4799870000000  0.4550760000000 1.0
C      1  0.4983310000000  0.5459330000000  0.4625320000000 1.0
C      1  0.4564890000000  0.4876920000000  0.4638410000000 1.0
C      1  0.4896520000000  0.4028270000000  0.5523110000000 1.0
C      1  0.4530420000000  0.5747060000000  0.5389050000000 1.0
C      1  0.5861800000000  0.5024140000000  0.5317240000000 1.0
C      1  0.4775780000000  0.6039790000000  0.4519380000000 1.0
C      1  0.4706180000000  0.4286100000000  0.4629020000000 1.0
C      1  0.5923440000000  0.4563850000000  0.4544260000000 1.0
C      1  0.5025240000000  0.4517110000000  0.5174020000000 1.0
C      1  0.4320230000000  0.5197330000000  0.5150690000000 1.0
C      1  0.5323510000000  0.5358270000000  0.5215160000000 1.0
C      1  0.4944620000000  0.5577930000000  0.4886940000000 1.0
C      1  0.4375310000000  0.4785960000000  0.4837780000000 1.0
C      1  0.5408050000000  0.4727920000000  0.4823190000000 1.0
C      1  0.4987670000000  0.4207060000000  0.5703600000000 1.0
C      1  0.4513700000000  0.5580210000000  0.5601200000000 1.0
C      1  0.5801250000000  0.5142590000000  0.5552520000000 1.0
C      1  0.4916510000000  0.5880790000000  0.4352760000000 1.0
C      1  0.4684360000000  0.4449980000000  0.4415030000000 1.0
C      1  0.5744380000000  0.4568900000000  0.4342090000000 1.0
C      1  0.5035760000000  0.4468780000000  0.5661560000000 1.0
C      1  0.4489230000000  0.5311040000000  0.5596440000000 1.0
C      1  0.5571430000000  0.5264790000000  0.5624760000000 1.0
C      1  0.5004480000000  0.5631190000000  0.4403120000000 1.0
C      1  0.4611790000000  0.4710400000000  0.4415230000000 1.0
C      1  0.5494730000000  0.4670900000000  0.4347650000000 1.0
C      1  0.5126380000000  0.5514800000000  0.5092440000000 1.0
C      1  0.5221100000000  0.4602340000000  0.4990720000000 1.0
C      1  0.4239960000000  0.4981850000000  0.4988130000000 1.0
C      1  0.4804380000000  0.5031040000000  0.5021920000000 1.0
END
