TITL C-3201373-1215-1238 -1.3194695377365e-06 125000 -418.609077475425 0 0 70 (T23) n - 1
REM
REM in /home/nfs/bkarasulu/CARBON/AIRSS/Generating-Clusters/LCBOP/Higher-Symm/SD-CG/FIRE-CG
REM
REM
REM
REM
REM
REM ./C.cell (b20cbc046b6831c77cfcea5457e17084)
REM AIRSS Version 0.9.1 bugfix July 2018 build 013d7b7c2542+ Fri, 06 Jul 2018 19:26:36 +0100
REM compiler GCC version 9.2.1 20190827 (Red Hat 9.2.1-1)
REM options -cpp -mtune=generic -march=x86-64 -g -O0 -fpre-include=/usr/include/finclude/math-vector-fortran.h
REM seed -1550684092 -29592221 -659149313 659272182 1193738647 211816857 -1350698567 558267474 -555144484 -979059762 1452602813 -661504230 -1059028171 -806138355 781416716 644352979 1450544043 -977228971 -716250535 -1121834672 -1895342793 527852358 -1807406898 1102381165 -82911372 1413760171 -1467954936 299409494 -1433309779 1612532790 -1609109456 -1890042225 -25792550
REM
CELL 1.54180   50.00000   50.00000   50.00000   90.00000   90.00000   90.00000
LATT -1
SFAC C  
C      1  0.5020010000000  0.5700800000000  0.4579530000000 1.0
C      1  0.4572990000000  0.5014470000000  0.5713010000000 1.0
C      1  0.5706370000000  0.4567350000000  0.5026580000000 1.0
C      1  0.5020020000000  0.4292020000000  0.5437630000000 1.0
C      1  0.4983910000000  0.4292000000000  0.4579560000000 1.0
C      1  0.4984000000000  0.5700820000000  0.5437600000000 1.0
C      1  0.4572910000000  0.4978380000000  0.4304210000000 1.0
C      1  0.5431060000000  0.4978390000000  0.5712950000000 1.0
C      1  0.5430980000000  0.5014410000000  0.4304150000000 1.0
C      1  0.5706400000000  0.5425420000000  0.4990500000000 1.0
C      1  0.4297600000000  0.5425470000000  0.5026640000000 1.0
C      1  0.4297570000000  0.4567400000000  0.4990600000000 1.0
C      1  0.4923660000000  0.5229630000000  0.4056340000000 1.0
C      1  0.4049760000000  0.4918180000000  0.5241880000000 1.0
C      1  0.5235180000000  0.4044160000000  0.4930320000000 1.0
C      1  0.4923760000000  0.4763200000000  0.5960830000000 1.0
C      1  0.5080190000000  0.4763150000000  0.4056340000000 1.0
C      1  0.5080320000000  0.5229670000000  0.5960810000000 1.0
C      1  0.4049730000000  0.5074710000000  0.4775400000000 1.0
C      1  0.5954240000000  0.5074660000000  0.5241750000000 1.0
C      1  0.5954210000000  0.4918100000000  0.4775290000000 1.0
C      1  0.5235250000000  0.5948650000000  0.5086810000000 1.0
C      1  0.4768780000000  0.5948660000000  0.4930300000000 1.0
C      1  0.4768720000000  0.4044180000000  0.5086890000000 1.0
C      1  0.5822390000000  0.4669470000000  0.4805330000000 1.0
C      1  0.4798780000000  0.5816840000000  0.4681660000000 1.0
C      1  0.4675110000000  0.4793230000000  0.5829030000000 1.0
C      1  0.5822440000000  0.5323310000000  0.5211730000000 1.0
C      1  0.4181550000000  0.5323350000000  0.4805410000000 1.0
C      1  0.4181560000000  0.4669530000000  0.5211850000000 1.0
C      1  0.4798770000000  0.4176000000000  0.5335530000000 1.0
C      1  0.5205150000000  0.4175970000000  0.4681670000000 1.0
C      1  0.5205240000000  0.5816840000000  0.5335460000000 1.0
C      1  0.4675030000000  0.5199610000000  0.4188170000000 1.0
C      1  0.5328960000000  0.5199630000000  0.5828980000000 1.0
C      1  0.5328840000000  0.4793170000000  0.4188140000000 1.0
C      1  0.5830230000000  0.5130600000000  0.4636010000000 1.0
C      1  0.4629500000000  0.5824690000000  0.5142810000000 1.0
C      1  0.5136250000000  0.4623910000000  0.5836850000000 1.0
C      1  0.5830270000000  0.4862170000000  0.5381050000000 1.0
C      1  0.4173690000000  0.4862200000000  0.4636110000000 1.0
C      1  0.4173740000000  0.5130680000000  0.5381150000000 1.0
C      1  0.4629430000000  0.4168150000000  0.4874390000000 1.0
C      1  0.5374490000000  0.4168140000000  0.5142810000000 1.0
C      1  0.5374520000000  0.5824660000000  0.4874310000000 1.0
C      1  0.5136170000000  0.5368910000000  0.4180300000000 1.0
C      1  0.4867820000000  0.5368960000000  0.5836850000000 1.0
C      1  0.4867690000000  0.4623880000000  0.4180330000000 1.0
C      1  0.5664150000000  0.5344710000000  0.4721810000000 1.0
C      1  0.4715300000000  0.5658600000000  0.5356910000000 1.0
C      1  0.5350340000000  0.4709690000000  0.5670740000000 1.0
C      1  0.5664160000000  0.4648070000000  0.5295270000000 1.0
C      1  0.4339780000000  0.4648100000000  0.4721910000000 1.0
C      1  0.4339840000000  0.5344770000000  0.5295330000000 1.0
C      1  0.4715220000000  0.4334240000000  0.4660290000000 1.0
C      1  0.5288710000000  0.4334240000000  0.5356910000000 1.0
C      1  0.5288710000000  0.5658570000000  0.4660220000000 1.0
C      1  0.5350280000000  0.5283110000000  0.4346380000000 1.0
C      1  0.4653710000000  0.5283160000000  0.5670770000000 1.0
C      1  0.4653610000000  0.4709680000000  0.4346440000000 1.0
C      1  0.5001920000000  0.4996380000000  0.3910240000000 1.0
C      1  0.3903640000000  0.4996450000000  0.5008650000000 1.0
C      1  0.5001950000000  0.3898070000000  0.5008610000000 1.0
C      1  0.5002050000000  0.4996440000000  0.6106920000000 1.0
C      1  0.6100330000000  0.4996380000000  0.5008510000000 1.0
C      1  0.5002020000000  0.6094750000000  0.5008550000000 1.0
C      1  0.4562490000000  0.5435970000000  0.5448130000000 1.0
C      1  0.5441530000000  0.4556880000000  0.5448100000000 1.0
C      1  0.5441510000000  0.5435920000000  0.4569010000000 1.0
C      1  0.4562410000000  0.4556880000000  0.4569080000000 1.0
END
