TITL C-3201377-4638-313 -671681.014675798 125000 -794.359973589977 0 0 134 (C1) n - 1
REM
REM in /home/nfs/bkarasulu/CARBON/AIRSS/Generating-Clusters/LCBOP/Higher-Symm/SD-CG/FIRE-CG
REM
REM
REM
REM
REM
REM ./C.cell (b20cbc046b6831c77cfcea5457e17084)
REM AIRSS Version 0.9.1 bugfix July 2018 build 013d7b7c2542+ Fri, 06 Jul 2018 19:26:36 +0100
REM compiler GCC version 9.2.1 20190827 (Red Hat 9.2.1-1)
REM options -cpp -mtune=generic -march=x86-64 -g -O0 -fpre-include=/usr/include/finclude/math-vector-fortran.h
REM seed 996046998 -548074387 -1426107146 1119005758 -924872687 -2137143193 -382168328 1184579235 -2023462590 700071800 -1800239806 -621432107 -490344153 362975160 91470426 329337933 -1919226938 -454266889 443605031 1780096915 328238436 -755589252 -1315926739 -697008538 -1250110947 -1772984662 -924916049 -1517381195 -477067007 -1264925479 133531237 984756317 1476846855
REM
CELL 1.54180   50.00000   50.00000   50.00000   90.00000   90.00000   90.00000
LATT -1
SFAC C  
C      1  0.5400310000000  0.5842140000000  0.4590380000000 1.0
C      1  0.5543280000000  0.4215130000000  0.4584970000000 1.0
C      1  0.4058350000000  0.4931610000000  0.4576950000000 1.0
C      1  0.5406250000000  0.4173020000000  0.5415110000000 1.0
C      1  0.5501490000000  0.5725040000000  0.5412730000000 1.0
C      1  0.4096640000000  0.5081560000000  0.5421370000000 1.0
C      1  0.4445830000000  0.5767980000000  0.5128690000000 1.0
C      1  0.5934300000000  0.5105590000000  0.5132400000000 1.0
C      1  0.4609920000000  0.4140370000000  0.5120460000000 1.0
C      1  0.4441770000000  0.4237460000000  0.4892160000000 1.0
C      1  0.5940950000000  0.4913060000000  0.4897270000000 1.0
C      1  0.4607550000000  0.5857840000000  0.4891130000000 1.0
C      1  0.4450530000000  0.5098200000000  0.4241090000000 1.0
C      1  0.5347610000000  0.5429680000000  0.4252420000000 1.0
C      1  0.5184000000000  0.4495630000000  0.4250480000000 1.0
C      1  0.4459720000000  0.4900170000000  0.5764170000000 1.0
C      1  0.5353270000000  0.4563910000000  0.5778230000000 1.0
C      1  0.5189430000000  0.5498130000000  0.5771210000000 1.0
C      1  0.5317900000000  0.5743950000000  0.5188200000000 1.0
C      1  0.5528920000000  0.4312800000000  0.5189590000000 1.0
C      1  0.4178420000000  0.4919740000000  0.5191050000000 1.0
C      1  0.5388060000000  0.4159890000000  0.4817770000000 1.0
C      1  0.5527550000000  0.5716520000000  0.4820770000000 1.0
C      1  0.4123880000000  0.5095410000000  0.4810320000000 1.0
C      1  0.5449740000000  0.4800450000000  0.4637880000000 1.0
C      1  0.4561110000000  0.4638710000000  0.4568270000000 1.0
C      1  0.4943550000000  0.5508440000000  0.4621410000000 1.0
C      1  0.5480350000000  0.5165030000000  0.5421700000000 1.0
C      1  0.4595840000000  0.5362790000000  0.5431080000000 1.0
C      1  0.4948390000000  0.4457640000000  0.5413460000000 1.0
C      1  0.5061490000000  0.6060530000000  0.4931060000000 1.0
C      1  0.5912820000000  0.4411030000000  0.4929170000000 1.0
C      1  0.4044480000000  0.4537910000000  0.4925710000000 1.0
C      1  0.5062520000000  0.3931000000000  0.5078260000000 1.0
C      1  0.5895410000000  0.5603290000000  0.5078120000000 1.0
C      1  0.4037720000000  0.5479520000000  0.5077980000000 1.0
C      1  0.5414590000000  0.5332110000000  0.5858470000000 1.0
C      1  0.5093140000000  0.4450520000000  0.5859530000000 1.0
C      1  0.4498320000000  0.5177040000000  0.5856140000000 1.0
C      1  0.5414180000000  0.4665290000000  0.4187690000000 1.0
C      1  0.5084050000000  0.5537750000000  0.4173930000000 1.0
C      1  0.4488380000000  0.4822690000000  0.4140210000000 1.0
C      1  0.5828610000000  0.4384040000000  0.5507040000000 1.0
C      1  0.4062400000000  0.4614060000000  0.5491160000000 1.0
C      1  0.5117750000000  0.5987700000000  0.5499520000000 1.0
C      1  0.5822890000000  0.5630190000000  0.4501350000000 1.0
C      1  0.4050960000000  0.5407520000000  0.4504600000000 1.0
C      1  0.5093090000000  0.4013810000000  0.4518730000000 1.0
C      1  0.4401310000000  0.5133490000000  0.4766890000000 1.0
C      1  0.5447170000000  0.5451520000000  0.4795120000000 1.0
C      1  0.5245680000000  0.4398380000000  0.4844030000000 1.0
C      1  0.4456530000000  0.4887950000000  0.5237460000000 1.0
C      1  0.5437360000000  0.4579520000000  0.5214950000000 1.0
C      1  0.5143540000000  0.5525680000000  0.5194440000000 1.0
C      1  0.4046510000000  0.4662790000000  0.5191040000000 1.0
C      1  0.5164790000000  0.5989790000000  0.5198330000000 1.0
C      1  0.5816680000000  0.4336660000000  0.5203950000000 1.0
C      1  0.4015150000000  0.5363010000000  0.4805900000000 1.0
C      1  0.5174760000000  0.3965850000000  0.4806920000000 1.0
C      1  0.5816520000000  0.5689140000000  0.4802020000000 1.0
C      1  0.5284060000000  0.5121960000000  0.4282910000000 1.0
C      1  0.4945500000000  0.4696180000000  0.4258450000000 1.0
C      1  0.4747330000000  0.5198870000000  0.4276340000000 1.0
C      1  0.5288130000000  0.4868880000000  0.5763170000000 1.0
C      1  0.4957490000000  0.5291360000000  0.5756920000000 1.0
C      1  0.4754740000000  0.4788400000000  0.5744330000000 1.0
C      1  0.5212350000000  0.6048550000000  0.4671450000000 1.0
C      1  0.5816780000000  0.4295400000000  0.4660580000000 1.0
C      1  0.3975550000000  0.4665780000000  0.4662370000000 1.0
C      1  0.5220740000000  0.3959800000000  0.5334710000000 1.0
C      1  0.5781740000000  0.5711770000000  0.5333830000000 1.0
C      1  0.3984000000000  0.5336680000000  0.5337250000000 1.0
C      1  0.4552020000000  0.4897820000000  0.4701420000000 1.0
C      1  0.5176140000000  0.5381180000000  0.4723760000000 1.0
C      1  0.5229890000000  0.4654500000000  0.4748920000000 1.0
C      1  0.4604760000000  0.5124780000000  0.5267440000000 1.0
C      1  0.5169970000000  0.4606490000000  0.5309210000000 1.0
C      1  0.5245890000000  0.5273550000000  0.5282300000000 1.0
C      1  0.4543730000000  0.3445680000000  0.4949760000000 1.0
C      1  0.3881400000000  0.6170030000000  0.4949360000000 1.0
C      1  0.6566320000000  0.5386270000000  0.4943530000000 1.0
C      1  0.4547390000000  0.6559100000000  0.5042210000000 1.0
C      1  0.3863940000000  0.3857110000000  0.5081980000000 1.0
C      1  0.6585790000000  0.4641240000000  0.5062020000000 1.0
C      1  0.5527740000000  0.5650440000000  0.4374430000000 1.0
C      1  0.5272730000000  0.4233860000000  0.4374220000000 1.0
C      1  0.4165180000000  0.5140100000000  0.4363570000000 1.0
C      1  0.5534560000000  0.4354110000000  0.5638990000000 1.0
C      1  0.5283840000000  0.5754000000000  0.5634000000000 1.0
C      1  0.4180040000000  0.4868280000000  0.5636820000000 1.0
C      1  0.5965590000000  0.5811560000000  0.5515000000000 1.0
C      1  0.5186450000000  0.3754990000000  0.5518620000000 1.0
C      1  0.3808610000000  0.5460010000000  0.5511710000000 1.0
C      1  0.6012230000000  0.4260580000000  0.4467940000000 1.0
C      1  0.5170120000000  0.6256390000000  0.4494230000000 1.0
C      1  0.3818370000000  0.4519510000000  0.4488800000000 1.0
C      1  0.4007620000000  0.5967520000000  0.5055740000000 1.0
C      1  0.6329850000000  0.5379700000000  0.5054580000000 1.0
C      1  0.4654490000000  0.3656790000000  0.5056980000000 1.0
C      1  0.3997250000000  0.4050860000000  0.4968160000000 1.0
C      1  0.6347230000000  0.4644300000000  0.4955460000000 1.0
C      1  0.4657230000000  0.6343490000000  0.4943720000000 1.0
C      1  0.5570050000000  0.5205460000000  0.4825120000000 1.0
C      1  0.4851870000000  0.4470810000000  0.4916050000000 1.0
C      1  0.4523570000000  0.5387990000000  0.4780600000000 1.0
C      1  0.5562950000000  0.4812300000000  0.5121410000000 1.0
C      1  0.4875040000000  0.5561720000000  0.5111200000000 1.0
C      1  0.4550620000000  0.4625060000000  0.5251520000000 1.0
C      1  0.4748690000000  0.5591940000000  0.4827010000000 1.0
C      1  0.5639100000000  0.4908180000000  0.4837500000000 1.0
C      1  0.4614010000000  0.4418550000000  0.4740690000000 1.0
C      1  0.4747680000000  0.4400410000000  0.5200690000000 1.0
C      1  0.5682640000000  0.5031020000000  0.5277300000000 1.0
C      1  0.4633810000000  0.5597540000000  0.5279610000000 1.0
C      1  0.4874980000000  0.4521630000000  0.5686260000000 1.0
C      1  0.4675250000000  0.5339540000000  0.5702960000000 1.0
C      1  0.5456240000000  0.5099570000000  0.5699670000000 1.0
C      1  0.4869750000000  0.5458810000000  0.4347100000000 1.0
C      1  0.4656960000000  0.4652080000000  0.4297740000000 1.0
C      1  0.5445900000000  0.4888230000000  0.4363260000000 1.0
C      1  0.6071140000000  0.4657190000000  0.4912240000000 1.0
C      1  0.4160330000000  0.4271910000000  0.4915010000000 1.0
C      1  0.4772870000000  0.6091690000000  0.4907600000000 1.0
C      1  0.6054380000000  0.5362660000000  0.5102340000000 1.0
C      1  0.4163750000000  0.5739400000000  0.5100750000000 1.0
C      1  0.4773650000000  0.3906180000000  0.5100090000000 1.0
C      1  0.4972180000000  0.4731360000000  0.4884180000000 1.0
C      1  0.4782330000000  0.4940030000000  0.4845650000000 1.0
C      1  0.5165920000000  0.5127400000000  0.4834260000000 1.0
C      1  0.5084810000000  0.5098040000000  0.5120170000000 1.0
C      1  0.4793870000000  0.5128020000000  0.5066830000000 1.0
C      1  0.5079700000000  0.4814870000000  0.5154930000000 1.0
C      1  0.4999700000000  0.4983580000000  0.5773480000000 1.0
C      1  0.4992680000000  0.5004630000000  0.4252540000000 1.0
END
