TITL C-3201377-4638-1079 12635.9996047439 125000 -992.449789931468 0 0 162 (C1) n - 1
REM
REM in /home/nfs/bkarasulu/CARBON/AIRSS/Generating-Clusters/LCBOP/Higher-Symm/SD-CG/FIRE-CG
REM
REM
REM
REM
REM
REM ./C.cell (b20cbc046b6831c77cfcea5457e17084)
REM AIRSS Version 0.9.1 bugfix July 2018 build 013d7b7c2542+ Fri, 06 Jul 2018 19:26:36 +0100
REM compiler GCC version 9.2.1 20190827 (Red Hat 9.2.1-1)
REM options -cpp -mtune=generic -march=x86-64 -g -O0 -fpre-include=/usr/include/finclude/math-vector-fortran.h
REM seed 985735368 204948102 1922118411 752664298 -1321130488 2121747522 -737175192 1965184663 1939769668 -1841820717 1162751961 -985791440 473874749 1577656926 -307035620 -254175782 1046904309 -238709543 -1133061450 -379986951 -504003772 1078168954 -148627372 1355597072 569750599 843149828 -2052838234 -573935341 -1800067781 957246797 -547494728 866537344 -941148530
REM
CELL 1.54180   50.00000   50.00000   50.00000   90.00000   90.00000   90.00000
LATT -1
SFAC C  
C      1  0.5635610000000  0.4799570000000  0.5966820000000 1.0
C      1  0.6005300000000  0.5614260000000  0.4766170000000 1.0
C      1  0.4718420000000  0.5974050000000  0.5615730000000 1.0
C      1  0.4334840000000  0.5202120000000  0.5958230000000 1.0
C      1  0.4401180000000  0.4725280000000  0.4022510000000 1.0
C      1  0.5659670000000  0.5264340000000  0.4085430000000 1.0
C      1  0.4047020000000  0.4351460000000  0.4763630000000 1.0
C      1  0.4164560000000  0.5598160000000  0.5276390000000 1.0
C      1  0.5923260000000  0.4328990000000  0.5206540000000 1.0
C      1  0.5262610000000  0.4086160000000  0.5638500000000 1.0
C      1  0.5221010000000  0.5947320000000  0.4337530000000 1.0
C      1  0.4664860000000  0.4128940000000  0.4382750000000 1.0
C      1  0.5648010000000  0.4744360000000  0.4111750000000 1.0
C      1  0.5999340000000  0.5599140000000  0.5254470000000 1.0
C      1  0.4730380000000  0.5987990000000  0.4371350000000 1.0
C      1  0.4356380000000  0.5210500000000  0.3995410000000 1.0
C      1  0.4393540000000  0.4720820000000  0.5999750000000 1.0
C      1  0.5618940000000  0.5302330000000  0.5937730000000 1.0
C      1  0.4034440000000  0.4318100000000  0.5238470000000 1.0
C      1  0.4145980000000  0.5625280000000  0.4752710000000 1.0
C      1  0.5969040000000  0.4374940000000  0.4719540000000 1.0
C      1  0.5157040000000  0.4095430000000  0.4312440000000 1.0
C      1  0.5206820000000  0.5937080000000  0.5645580000000 1.0
C      1  0.4744430000000  0.4107250000000  0.5639650000000 1.0
C      1  0.4654260000000  0.4849130000000  0.6068170000000 1.0
C      1  0.6050680000000  0.4631880000000  0.4844660000000 1.0
C      1  0.4847470000000  0.6051280000000  0.4638260000000 1.0
C      1  0.5350900000000  0.5189240000000  0.6030710000000 1.0
C      1  0.5398520000000  0.4855330000000  0.3982360000000 1.0
C      1  0.4645960000000  0.5133360000000  0.3929740000000 1.0
C      1  0.4008900000000  0.5373760000000  0.4864950000000 1.0
C      1  0.3949620000000  0.4598700000000  0.5156650000000 1.0
C      1  0.6069110000000  0.5327750000000  0.5151850000000 1.0
C      1  0.5095850000000  0.3990850000000  0.4591880000000 1.0
C      1  0.5136640000000  0.6038130000000  0.5366310000000 1.0
C      1  0.4851190000000  0.3981570000000  0.5383540000000 1.0
C      1  0.4664810000000  0.4837530000000  0.3946680000000 1.0
C      1  0.6032090000000  0.4606580000000  0.5139740000000 1.0
C      1  0.4838460000000  0.6039750000000  0.5348090000000 1.0
C      1  0.5393930000000  0.5154630000000  0.3977530000000 1.0
C      1  0.5367430000000  0.4894810000000  0.6047700000000 1.0
C      1  0.4620990000000  0.5143910000000  0.6048600000000 1.0
C      1  0.4013910000000  0.5359070000000  0.5164500000000 1.0
C      1  0.3966740000000  0.4625620000000  0.4858370000000 1.0
C      1  0.6074690000000  0.5339730000000  0.4857300000000 1.0
C      1  0.5150740000000  0.3984510000000  0.5369280000000 1.0
C      1  0.5144940000000  0.6044670000000  0.4618910000000 1.0
C      1  0.4800800000000  0.3996100000000  0.4625970000000 1.0
C      1  0.4732770000000  0.4085700000000  0.4875510000000 1.0
C      1  0.4888100000000  0.4741260000000  0.4079930000000 1.0
C      1  0.4118470000000  0.4854800000000  0.4765260000000 1.0
C      1  0.5268860000000  0.5920320000000  0.4849500000000 1.0
C      1  0.5246010000000  0.4091330000000  0.5118590000000 1.0
C      1  0.4740150000000  0.5877120000000  0.5133160000000 1.0
C      1  0.5146810000000  0.5261530000000  0.4070670000000 1.0
C      1  0.5152460000000  0.4758750000000  0.5931410000000 1.0
C      1  0.4833020000000  0.5269830000000  0.5902770000000 1.0
C      1  0.5939450000000  0.5132980000000  0.4731810000000 1.0
C      1  0.5901630000000  0.4831150000000  0.5259930000000 1.0
C      1  0.3992030000000  0.5095370000000  0.5281350000000 1.0
C      1  0.4743070000000  0.4102370000000  0.5149860000000 1.0
C      1  0.4881210000000  0.4749600000000  0.5935800000000 1.0
C      1  0.4077890000000  0.4819520000000  0.5288020000000 1.0
C      1  0.5266680000000  0.5938520000000  0.5137260000000 1.0
C      1  0.5241790000000  0.4106160000000  0.4824050000000 1.0
C      1  0.4741530000000  0.5905030000000  0.4855160000000 1.0
C      1  0.5112390000000  0.5277980000000  0.5919110000000 1.0
C      1  0.5161680000000  0.4753090000000  0.4104530000000 1.0
C      1  0.4861880000000  0.5265000000000  0.4070930000000 1.0
C      1  0.5934160000000  0.5109540000000  0.5261360000000 1.0
C      1  0.5928020000000  0.4862880000000  0.4742270000000 1.0
C      1  0.4123380000000  0.5143040000000  0.4745400000000 1.0
C      1  0.5266510000000  0.4405500000000  0.4763320000000 1.0
C      1  0.4770760000000  0.5275600000000  0.4361110000000 1.0
C      1  0.4379230000000  0.4752130000000  0.5283970000000 1.0
C      1  0.4785640000000  0.5565700000000  0.4766110000000 1.0
C      1  0.4763450000000  0.4410800000000  0.5235170000000 1.0
C      1  0.5247530000000  0.5580170000000  0.5211570000000 1.0
C      1  0.5236120000000  0.4787820000000  0.4409490000000 1.0
C      1  0.5188830000000  0.5232390000000  0.5553750000000 1.0
C      1  0.4792570000000  0.4782800000000  0.5585520000000 1.0
C      1  0.5576240000000  0.5210260000000  0.5218500000000 1.0
C      1  0.5574710000000  0.4804300000000  0.4785450000000 1.0
C      1  0.4395480000000  0.5240480000000  0.4692780000000 1.0
C      1  0.5221010000000  0.4450730000000  0.5190410000000 1.0
C      1  0.4760710000000  0.5264050000000  0.5611810000000 1.0
C      1  0.4424630000000  0.4800410000000  0.4784450000000 1.0
C      1  0.4769530000000  0.5584060000000  0.5204350000000 1.0
C      1  0.4780790000000  0.4450830000000  0.4798250000000 1.0
C      1  0.5261680000000  0.5612080000000  0.4774630000000 1.0
C      1  0.5226200000000  0.4794950000000  0.5563260000000 1.0
C      1  0.5197320000000  0.5241540000000  0.4438010000000 1.0
C      1  0.4799840000000  0.4803130000000  0.4442010000000 1.0
C      1  0.5581410000000  0.5239210000000  0.4781920000000 1.0
C      1  0.5606440000000  0.4779490000000  0.5261440000000 1.0
C      1  0.4511730000000  0.5169630000000  0.5225800000000 1.0
C      1  0.4316990000000  0.5609930000000  0.4431210000000 1.0
C      1  0.4452210000000  0.4307330000000  0.5619600000000 1.0
C      1  0.5604340000000  0.4453370000000  0.4309450000000 1.0
C      1  0.5737010000000  0.4402270000000  0.4565290000000 1.0
C      1  0.5742050000000  0.5601920000000  0.5389200000000 1.0
C      1  0.4302780000000  0.4298700000000  0.5358240000000 1.0
C      1  0.5319380000000  0.5673280000000  0.5659930000000 1.0
C      1  0.5329470000000  0.4331500000000  0.4310070000000 1.0
C      1  0.4576730000000  0.5752260000000  0.4377030000000 1.0
C      1  0.4323300000000  0.5346140000000  0.4254890000000 1.0
C      1  0.4409300000000  0.4582060000000  0.5743490000000 1.0
C      1  0.5595190000000  0.5460710000000  0.5657180000000 1.0
C      1  0.4316520000000  0.5584500000000  0.5547360000000 1.0
C      1  0.4438590000000  0.4332370000000  0.4404540000000 1.0
C      1  0.5620000000000  0.4626560000000  0.5751360000000 1.0
C      1  0.5660030000000  0.4325780000000  0.5325790000000 1.0
C      1  0.5758570000000  0.5621020000000  0.4627660000000 1.0
C      1  0.4316960000000  0.4348470000000  0.4669600000000 1.0
C      1  0.5338530000000  0.5683110000000  0.4321020000000 1.0
C      1  0.5451180000000  0.4350160000000  0.5601450000000 1.0
C      1  0.4567580000000  0.5733930000000  0.5609960000000 1.0
C      1  0.4310220000000  0.5317310000000  0.5687460000000 1.0
C      1  0.4402490000000  0.4589580000000  0.4268840000000 1.0
C      1  0.5614420000000  0.5460370000000  0.4344460000000 1.0
C      1  0.4882990000000  0.4521700000000  0.5480100000000 1.0
C      1  0.5478490000000  0.4898950000000  0.4521250000000 1.0
C      1  0.4558350000000  0.5408090000000  0.4838440000000 1.0
C      1  0.5132620000000  0.5510310000000  0.5474620000000 1.0
C      1  0.5172750000000  0.4511010000000  0.4509080000000 1.0
C      1  0.4844530000000  0.5529490000000  0.4491860000000 1.0
C      1  0.4501300000000  0.5159010000000  0.4432660000000 1.0
C      1  0.4502530000000  0.4820980000000  0.5551540000000 1.0
C      1  0.5471860000000  0.5175360000000  0.5491700000000 1.0
C      1  0.5518510000000  0.4530330000000  0.4839470000000 1.0
C      1  0.5540470000000  0.5506360000000  0.5162580000000 1.0
C      1  0.4473660000000  0.4487800000000  0.5174280000000 1.0
C      1  0.4882050000000  0.4543210000000  0.4547620000000 1.0
C      1  0.5491920000000  0.4872690000000  0.5513230000000 1.0
C      1  0.4573310000000  0.5403340000000  0.5109250000000 1.0
C      1  0.5146750000000  0.5526270000000  0.4502040000000 1.0
C      1  0.5182730000000  0.4527560000000  0.5469100000000 1.0
C      1  0.4828530000000  0.5521590000000  0.5479860000000 1.0
C      1  0.4502470000000  0.5136640000000  0.5526290000000 1.0
C      1  0.4524210000000  0.4858230000000  0.4484950000000 1.0
C      1  0.5472760000000  0.5196390000000  0.4521160000000 1.0
C      1  0.5508610000000  0.4524970000000  0.5139680000000 1.0
C      1  0.5552140000000  0.5524750000000  0.4844400000000 1.0
C      1  0.4493640000000  0.4514320000000  0.4857260000000 1.0
C      1  0.4204490000000  0.4944850000000  0.6014590000000 1.0
C      1  0.5966920000000  0.4190850000000  0.4949260000000 1.0
C      1  0.4966540000000  0.5998600000000  0.4194730000000 1.0
C      1  0.5811850000000  0.4998220000000  0.4128220000000 1.0
C      1  0.5000640000000  0.4120560000000  0.5797120000000 1.0
C      1  0.4203330000000  0.5763940000000  0.5017680000000 1.0
C      1  0.4220590000000  0.4949590000000  0.3971040000000 1.0
C      1  0.3993230000000  0.4174510000000  0.4987910000000 1.0
C      1  0.5788490000000  0.5055820000000  0.5957790000000 1.0
C      1  0.6036490000000  0.5767280000000  0.5015670000000 1.0
C      1  0.4887990000000  0.4121570000000  0.4189660000000 1.0
C      1  0.4954630000000  0.5988090000000  0.5790360000000 1.0
C      1  0.5007840000000  0.4987130000000  0.5516240000000 1.0
C      1  0.5522750000000  0.5032720000000  0.4981200000000 1.0
C      1  0.5067380000000  0.5518390000000  0.4987180000000 1.0
C      1  0.5014680000000  0.4997150000000  0.4480580000000 1.0
C      1  0.4480640000000  0.4937260000000  0.5068170000000 1.0
C      1  0.4971450000000  0.4495620000000  0.5016120000000 1.0
END
