TITL C-3201377-4638-824 334.748861846287 125000 -1069.63135483835 0 0 178 (C1) n - 1
REM
REM in /home/nfs/bkarasulu/CARBON/AIRSS/Generating-Clusters/LCBOP/Higher-Symm/SD-CG/FIRE-CG
REM
REM
REM
REM
REM
REM ./C.cell (b20cbc046b6831c77cfcea5457e17084)
REM AIRSS Version 0.9.1 bugfix July 2018 build 013d7b7c2542+ Fri, 06 Jul 2018 19:26:36 +0100
REM compiler GCC version 9.2.1 20190827 (Red Hat 9.2.1-1)
REM options -cpp -mtune=generic -march=x86-64 -g -O0 -fpre-include=/usr/include/finclude/math-vector-fortran.h
REM seed 936462297 -1305824958 -864194455 -1072079277 1282350083 -2137690366 -1778394968 280072170 1879153683 -1855475799 951733167 1979683490 -774893644 9302673 -1067474714 -1365476814 99718714 1701413016 590198611 1458615129 -1937558395 -1551274885 -973056029 -1908023406 -179819946 401485820 1455293271 -805399840 666568813 762591849 1200699479 954059740 1628069994
REM
CELL 1.54180   50.00000   50.00000   50.00000   90.00000   90.00000   90.00000
LATT -1
SFAC C  
C      1  0.5182860000000  0.5635640000000  0.4600280000000 1.0
C      1  0.4416970000000  0.5677400000000  0.4952040000000 1.0
C      1  0.5310260000000  0.5678100000000  0.5463910000000 1.0
C      1  0.4668820000000  0.5726870000000  0.4796920000000 1.0
C      1  0.5034880000000  0.5800420000000  0.5463420000000 1.0
C      1  0.5301110000000  0.5780450000000  0.4870880000000 1.0
C      1  0.5833400000000  0.5040480000000  0.4155810000000 1.0
C      1  0.3908540000000  0.4587140000000  0.4590970000000 1.0
C      1  0.5271180000000  0.4584170000000  0.5926350000000 1.0
C      1  0.5408730000000  0.4827200000000  0.4105440000000 1.0
C      1  0.4244640000000  0.4909500000000  0.5297070000000 1.0
C      1  0.5542130000000  0.4764290000000  0.5500790000000 1.0
C      1  0.5422870000000  0.4142020000000  0.4470080000000 1.0
C      1  0.4129040000000  0.4207740000000  0.4873280000000 1.0
C      1  0.5387900000000  0.4149810000000  0.5646020000000 1.0
C      1  0.5367250000000  0.4996600000000  0.5517190000000 1.0
C      1  0.5566400000000  0.5020870000000  0.4246950000000 1.0
C      1  0.4330210000000  0.5107110000000  0.5111030000000 1.0
C      1  0.5716970000000  0.5388620000000  0.5614580000000 1.0
C      1  0.5159990000000  0.5334700000000  0.4138910000000 1.0
C      1  0.4158740000000  0.5466270000000  0.5359300000000 1.0
C      1  0.5222720000000  0.4612800000000  0.4818160000000 1.0
C      1  0.4672900000000  0.4610210000000  0.4878700000000 1.0
C      1  0.5048710000000  0.4659560000000  0.5285230000000 1.0
C      1  0.5184280000000  0.5482810000000  0.5989580000000 1.0
C      1  0.5707980000000  0.5621050000000  0.4421800000000 1.0
C      1  0.4111430000000  0.5563340000000  0.4568240000000 1.0
C      1  0.4725420000000  0.5016660000000  0.5362260000000 1.0
C      1  0.5590920000000  0.4954530000000  0.5090010000000 1.0
C      1  0.4927350000000  0.4751560000000  0.4344610000000 1.0
C      1  0.4840650000000  0.4783160000000  0.5723840000000 1.0
C      1  0.5690210000000  0.4738570000000  0.4726700000000 1.0
C      1  0.4340330000000  0.4780660000000  0.4573080000000 1.0
C      1  0.3702560000000  0.5343940000000  0.5096350000000 1.0
C      1  0.5720980000000  0.5173660000000  0.6110510000000 1.0
C      1  0.5501290000000  0.5319870000000  0.3723080000000 1.0
C      1  0.5506700000000  0.5182690000000  0.4483110000000 1.0
C      1  0.4294880000000  0.5199480000000  0.4852270000000 1.0
C      1  0.5166870000000  0.5154570000000  0.5637480000000 1.0
C      1  0.5791470000000  0.4665840000000  0.5599400000000 1.0
C      1  0.5260140000000  0.4628740000000  0.3964490000000 1.0
C      1  0.3991500000000  0.4813700000000  0.5375020000000 1.0
C      1  0.5154050000000  0.4389600000000  0.6316890000000 1.0
C      1  0.6006950000000  0.4617030000000  0.4263880000000 1.0
C      1  0.3993790000000  0.4413700000000  0.4180470000000 1.0
C      1  0.5845760000000  0.4310740000000  0.4886250000000 1.0
C      1  0.4541090000000  0.4284030000000  0.4522030000000 1.0
C      1  0.4840420000000  0.4319190000000  0.5583070000000 1.0
C      1  0.4941520000000  0.4905840000000  0.5195630000000 1.0
C      1  0.5186130000000  0.4923280000000  0.4753080000000 1.0
C      1  0.4701190000000  0.4918930000000  0.4817260000000 1.0
C      1  0.4879380000000  0.4806900000000  0.6207500000000 1.0
C      1  0.6184230000000  0.5035180000000  0.4486040000000 1.0
C      1  0.3959050000000  0.4923970000000  0.4171050000000 1.0
C      1  0.4159740000000  0.5738340000000  0.5455280000000 1.0
C      1  0.5845060000000  0.5647290000000  0.5578250000000 1.0
C      1  0.4998000000000  0.5570140000000  0.4089680000000 1.0
C      1  0.4379500000000  0.4339870000000  0.5235540000000 1.0
C      1  0.5550830000000  0.4090740000000  0.5206020000000 1.0
C      1  0.4907130000000  0.4154970000000  0.4824690000000 1.0
C      1  0.6081610000000  0.5185570000000  0.5107940000000 1.0
C      1  0.4588390000000  0.5042190000000  0.4035510000000 1.0
C      1  0.4341590000000  0.5204110000000  0.5956870000000 1.0
C      1  0.5619460000000  0.5825380000000  0.5545420000000 1.0
C      1  0.5061300000000  0.5762240000000  0.4293260000000 1.0
C      1  0.4299490000000  0.5868160000000  0.5222740000000 1.0
C      1  0.4626370000000  0.5232740000000  0.6026100000000 1.0
C      1  0.6007130000000  0.5309040000000  0.4856120000000 1.0
C      1  0.4408770000000  0.5171710000000  0.4209050000000 1.0
C      1  0.4942780000000  0.4968260000000  0.3736610000000 1.0
C      1  0.3928500000000  0.5199470000000  0.5715770000000 1.0
C      1  0.6127500000000  0.5061880000000  0.5564530000000 1.0
C      1  0.4971950000000  0.5330830000000  0.4966660000000 1.0
C      1  0.4783640000000  0.5434400000000  0.5173660000000 1.0
C      1  0.5232420000000  0.5341530000000  0.5109570000000 1.0
C      1  0.4728080000000  0.4321400000000  0.4311210000000 1.0
C      1  0.4526920000000  0.4735310000000  0.5719820000000 1.0
C      1  0.5912060000000  0.4582450000000  0.4824570000000 1.0
C      1  0.4500520000000  0.4779980000000  0.5402200000000 1.0
C      1  0.5509660000000  0.4692680000000  0.5215080000000 1.0
C      1  0.4923000000000  0.4491610000000  0.4443780000000 1.0
C      1  0.5156380000000  0.4030960000000  0.4920410000000 1.0
C      1  0.4459270000000  0.4070430000000  0.5180200000000 1.0
C      1  0.5261240000000  0.4007990000000  0.5198860000000 1.0
C      1  0.4638480000000  0.5503030000000  0.5597430000000 1.0
C      1  0.5649490000000  0.5505720000000  0.5110870000000 1.0
C      1  0.4812670000000  0.5333870000000  0.4487050000000 1.0
C      1  0.4390990000000  0.4039550000000  0.4897420000000 1.0
C      1  0.5182470000000  0.4018560000000  0.5477390000000 1.0
C      1  0.5404310000000  0.4056660000000  0.4746750000000 1.0
C      1  0.5469220000000  0.5469790000000  0.4483630000000 1.0
C      1  0.4246380000000  0.5481450000000  0.4810500000000 1.0
C      1  0.5238540000000  0.5420560000000  0.5712710000000 1.0
C      1  0.5038530000000  0.5204280000000  0.4360070000000 1.0
C      1  0.4418520000000  0.5389100000000  0.5444320000000 1.0
C      1  0.5638360000000  0.5335720000000  0.5349810000000 1.0
C      1  0.5268260000000  0.4585410000000  0.5119540000000 1.0
C      1  0.4948810000000  0.4463230000000  0.4754690000000 1.0
C      1  0.4546760000000  0.4555930000000  0.5189860000000 1.0
C      1  0.4106510000000  0.4368270000000  0.5126680000000 1.0
C      1  0.5620800000000  0.4189390000000  0.5471510000000 1.0
C      1  0.5296820000000  0.4141120000000  0.4212290000000 1.0
C      1  0.4850430000000  0.5102820000000  0.6175620000000 1.0
C      1  0.6089650000000  0.5291010000000  0.4583070000000 1.0
C      1  0.4123260000000  0.5151080000000  0.4241290000000 1.0
C      1  0.4015570000000  0.4206990000000  0.4366070000000 1.0
C      1  0.5266990000000  0.4192560000000  0.6153570000000 1.0
C      1  0.5810800000000  0.4437960000000  0.4315610000000 1.0
C      1  0.6305990000000  0.4861310000000  0.4672680000000 1.0
C      1  0.3800080000000  0.4953450000000  0.3947490000000 1.0
C      1  0.4642730000000  0.4642130000000  0.6185860000000 1.0
C      1  0.6151240000000  0.5279370000000  0.5372110000000 1.0
C      1  0.4761780000000  0.5171310000000  0.3845110000000 1.0
C      1  0.4126140000000  0.5378140000000  0.5847090000000 1.0
C      1  0.5706070000000  0.5901600000000  0.4443110000000 1.0
C      1  0.4173440000000  0.5820430000000  0.4467450000000 1.0
C      1  0.5147930000000  0.5754360000000  0.6056940000000 1.0
C      1  0.4465420000000  0.4535340000000  0.4651400000000 1.0
C      1  0.4947390000000  0.4575850000000  0.5542620000000 1.0
C      1  0.5480430000000  0.4571470000000  0.4650880000000 1.0
C      1  0.5334530000000  0.4293560000000  0.5887650000000 1.0
C      1  0.5573330000000  0.4384570000000  0.4461520000000 1.0
C      1  0.3994980000000  0.4303910000000  0.4640440000000 1.0
C      1  0.4516320000000  0.4548820000000  0.5959300000000 1.0
C      1  0.6177940000000  0.4670440000000  0.4812580000000 1.0
C      1  0.4720170000000  0.4333920000000  0.4029370000000 1.0
C      1  0.3929630000000  0.5379680000000  0.5228610000000 1.0
C      1  0.5713880000000  0.5262990000000  0.5861020000000 1.0
C      1  0.5353850000000  0.5295690000000  0.3942340000000 1.0
C      1  0.5085640000000  0.4949460000000  0.4465600000000 1.0
C      1  0.4566050000000  0.5233100000000  0.5242300000000 1.0
C      1  0.5425950000000  0.5144080000000  0.5258730000000 1.0
C      1  0.5889090000000  0.4970020000000  0.5126800000000 1.0
C      1  0.4720270000000  0.4828100000000  0.4168110000000 1.0
C      1  0.4336710000000  0.4946610000000  0.5826770000000 1.0
C      1  0.5626650000000  0.6092900000000  0.5566610000000 1.0
C      1  0.5060520000000  0.6028760000000  0.4261510000000 1.0
C      1  0.4343000000000  0.6135380000000  0.5208470000000 1.0
C      1  0.5365610000000  0.5611540000000  0.5115140000000 1.0
C      1  0.4901880000000  0.5509790000000  0.4721580000000 1.0
C      1  0.4823950000000  0.5618920000000  0.5397410000000 1.0
C      1  0.3942990000000  0.4673120000000  0.4307860000000 1.0
C      1  0.5119600000000  0.4645670000000  0.6175730000000 1.0
C      1  0.6046370000000  0.4899600000000  0.4272030000000 1.0
C      1  0.4820790000000  0.4490010000000  0.3830090000000 1.0
C      1  0.3585290000000  0.4871250000000  0.5632460000000 1.0
C      1  0.6151000000000  0.4733230000000  0.5911550000000 1.0
C      1  0.4918560000000  0.4066060000000  0.5551800000000 1.0
C      1  0.5633810000000  0.4127970000000  0.4932790000000 1.0
C      1  0.4620460000000  0.4093490000000  0.4728510000000 1.0
C      1  0.3937480000000  0.4558990000000  0.5252800000000 1.0
C      1  0.5811430000000  0.4382890000000  0.5552510000000 1.0
C      1  0.5288780000000  0.4349250000000  0.4033690000000 1.0
C      1  0.4810500000000  0.5458920000000  0.3892360000000 1.0
C      1  0.4134720000000  0.5671410000000  0.5748340000000 1.0
C      1  0.6099020000000  0.5558060000000  0.5459030000000 1.0
C      1  0.3491370000000  0.5290270000000  0.4953320000000 1.0
C      1  0.5716080000000  0.5071920000000  0.6350460000000 1.0
C      1  0.5648730000000  0.5337240000000  0.3508840000000 1.0
C      1  0.4553490000000  0.5222590000000  0.4453190000000 1.0
C      1  0.4740830000000  0.5302460000000  0.5769630000000 1.0
C      1  0.5725850000000  0.5352260000000  0.4886710000000 1.0
C      1  0.4875290000000  0.5067840000000  0.5629450000000 1.0
C      1  0.5521790000000  0.5061720000000  0.4759180000000 1.0
C      1  0.4463750000000  0.5039900000000  0.4668460000000 1.0
C      1  0.5958870000000  0.5483540000000  0.4417870000000 1.0
C      1  0.4012670000000  0.5363910000000  0.4393960000000 1.0
C      1  0.5084210000000  0.5274270000000  0.6162800000000 1.0
C      1  0.5429570000000  0.6026250000000  0.4820450000000 1.0
C      1  0.4626540000000  0.5936400000000  0.4607750000000 1.0
C      1  0.4997240000000  0.5998880000000  0.5662120000000 1.0
C      1  0.6019370000000  0.4823900000000  0.5686270000000 1.0
C      1  0.5020830000000  0.4697150000000  0.3810590000000 1.0
C      1  0.3838710000000  0.4962540000000  0.5573570000000 1.0
C      1  0.5604560000000  0.6075750000000  0.4621290000000 1.0
C      1  0.4396280000000  0.5972730000000  0.4469730000000 1.0
C      1  0.5056330000000  0.5970450000000  0.5924440000000 1.0
C      1  0.4955490000000  0.5029730000000  0.4922660000000 1.0
END
