TITL C-3201377-4638-344 38813.477945855 125000 -1150.70732279722 0 0 189 (C1) n - 1
REM
REM in /home/nfs/bkarasulu/CARBON/AIRSS/Generating-Clusters/LCBOP/Higher-Symm/SD-CG/FIRE-CG
REM
REM
REM
REM
REM
REM ./C.cell (b20cbc046b6831c77cfcea5457e17084)
REM AIRSS Version 0.9.1 bugfix July 2018 build 013d7b7c2542+ Fri, 06 Jul 2018 19:26:36 +0100
REM compiler GCC version 9.2.1 20190827 (Red Hat 9.2.1-1)
REM options -cpp -mtune=generic -march=x86-64 -g -O0 -fpre-include=/usr/include/finclude/math-vector-fortran.h
REM seed 612513737 -1067086803 -277055555 327220987 -1753034498 1541396143 330393389 -647995788 1570106715 138196659 -1340529063 -410493146 1395243724 -1674495959 -597177454 1067948124 -94126512 -206586803 1199182246 1092635412 157555652 1986360441 -478500735 -1323113588 950348832 319649608 1793650846 1386519553 -1818292630 -898561092 -1224153556 -1724913033 532715646
REM
CELL 1.54180   50.00000   50.00000   50.00000   90.00000   90.00000   90.00000
LATT -1
SFAC C  
C      1  0.4698420000000  0.5485040000000  0.3882520000000 1.0
C      1  0.4433180000000  0.4350590000000  0.5696340000000 1.0
C      1  0.5997390000000  0.4906120000000  0.5155130000000 1.0
C      1  0.5261150000000  0.4356790000000  0.5827730000000 1.0
C      1  0.5040070000000  0.4741970000000  0.6282140000000 1.0
C      1  0.3889850000000  0.5585170000000  0.5028380000000 1.0
C      1  0.5902520000000  0.5636650000000  0.4674110000000 1.0
C      1  0.4967900000000  0.4220960000000  0.4575300000000 1.0
C      1  0.5018350000000  0.5715630000000  0.4421500000000 1.0
C      1  0.4342010000000  0.5063820000000  0.5209320000000 1.0
C      1  0.6321770000000  0.5078470000000  0.4810140000000 1.0
C      1  0.4955020000000  0.5413610000000  0.6045050000000 1.0
C      1  0.5164090000000  0.5186680000000  0.5599650000000 1.0
C      1  0.4096660000000  0.5778520000000  0.4964660000000 1.0
C      1  0.4731020000000  0.6159990000000  0.4776900000000 1.0
C      1  0.5678990000000  0.5346970000000  0.4184180000000 1.0
C      1  0.6071610000000  0.5087720000000  0.4184510000000 1.0
C      1  0.4571180000000  0.5646940000000  0.5465900000000 1.0
C      1  0.3678530000000  0.5149270000000  0.5010360000000 1.0
C      1  0.5477470000000  0.4506170000000  0.5573120000000 1.0
C      1  0.6229090000000  0.4853870000000  0.4169290000000 1.0
C      1  0.4142030000000  0.4916630000000  0.5940790000000 1.0
C      1  0.5135260000000  0.4789640000000  0.4473220000000 1.0
C      1  0.5256050000000  0.5834860000000  0.4499150000000 1.0
C      1  0.4190420000000  0.5587800000000  0.5688530000000 1.0
C      1  0.5537650000000  0.5948690000000  0.5350840000000 1.0
C      1  0.5815770000000  0.4785960000000  0.4522600000000 1.0
C      1  0.4482260000000  0.4232680000000  0.4492100000000 1.0
C      1  0.6296030000000  0.5282890000000  0.5233520000000 1.0
C      1  0.4411790000000  0.4643810000000  0.5326610000000 1.0
C      1  0.4525800000000  0.5812260000000  0.5230170000000 1.0
C      1  0.4569920000000  0.6666130000000  0.4887980000000 1.0
C      1  0.4706460000000  0.3840340000000  0.4739390000000 1.0
C      1  0.4652850000000  0.6426030000000  0.4829850000000 1.0
C      1  0.4104850000000  0.4438940000000  0.4225760000000 1.0
C      1  0.4745550000000  0.4897260000000  0.5967170000000 1.0
C      1  0.4663370000000  0.5850370000000  0.5653630000000 1.0
C      1  0.3780120000000  0.4411640000000  0.5136480000000 1.0
C      1  0.4370490000000  0.4312080000000  0.4747860000000 1.0
C      1  0.5729810000000  0.4354800000000  0.5520250000000 1.0
C      1  0.4704980000000  0.6160710000000  0.4296950000000 1.0
C      1  0.4608380000000  0.4782080000000  0.3646710000000 1.0
C      1  0.4891310000000  0.5975190000000  0.5504910000000 1.0
C      1  0.4823230000000  0.3834030000000  0.5004230000000 1.0
C      1  0.4084090000000  0.5718520000000  0.5448330000000 1.0
C      1  0.4624380000000  0.4922540000000  0.4093400000000 1.0
C      1  0.4888010000000  0.5185900000000  0.5502130000000 1.0
C      1  0.4193060000000  0.4193080000000  0.5690120000000 1.0
C      1  0.5189780000000  0.4763810000000  0.3934080000000 1.0
C      1  0.4855440000000  0.5525270000000  0.4311440000000 1.0
C      1  0.5579970000000  0.4588090000000  0.4967490000000 1.0
C      1  0.5706520000000  0.4333980000000  0.4954640000000 1.0
C      1  0.3913460000000  0.5527140000000  0.5315750000000 1.0
C      1  0.5650770000000  0.4865410000000  0.4300370000000 1.0
C      1  0.5767230000000  0.4124110000000  0.5680470000000 1.0
C      1  0.5315980000000  0.5824890000000  0.4773150000000 1.0
C      1  0.5647930000000  0.4538000000000  0.6088830000000 1.0
C      1  0.4678810000000  0.4624170000000  0.5213220000000 1.0
C      1  0.3950640000000  0.5250190000000  0.5399050000000 1.0
C      1  0.4389230000000  0.4426270000000  0.4279630000000 1.0
C      1  0.6230810000000  0.4642550000000  0.4339790000000 1.0
C      1  0.5555790000000  0.5489050000000  0.5696990000000 1.0
C      1  0.5124120000000  0.5907380000000  0.5673640000000 1.0
C      1  0.5306210000000  0.5426990000000  0.5563080000000 1.0
C      1  0.5466880000000  0.3947000000000  0.5087720000000 1.0
C      1  0.5669010000000  0.4809890000000  0.6003560000000 1.0
C      1  0.5825730000000  0.3899970000000  0.5800010000000 1.0
C      1  0.5326420000000  0.3938730000000  0.5326680000000 1.0
C      1  0.6223800000000  0.5062480000000  0.5071740000000 1.0
C      1  0.5192900000000  0.4354910000000  0.4734180000000 1.0
C      1  0.5778530000000  0.4809840000000  0.4978840000000 1.0
C      1  0.4987530000000  0.5469750000000  0.3831710000000 1.0
C      1  0.5193670000000  0.6009920000000  0.4955550000000 1.0
C      1  0.4423870000000  0.3995350000000  0.5168960000000 1.0
C      1  0.4870090000000  0.5056720000000  0.4173210000000 1.0
C      1  0.5460660000000  0.5336210000000  0.4941940000000 1.0
C      1  0.5448970000000  0.4789770000000  0.5508350000000 1.0
C      1  0.5154390000000  0.4819720000000  0.4979590000000 1.0
C      1  0.4768500000000  0.4426280000000  0.6112590000000 1.0
C      1  0.5873660000000  0.4974290000000  0.5889330000000 1.0
C      1  0.5540810000000  0.5187960000000  0.5190050000000 1.0
C      1  0.4955690000000  0.4755610000000  0.5792270000000 1.0
C      1  0.5555110000000  0.5754640000000  0.5794430000000 1.0
C      1  0.5371530000000  0.4916980000000  0.4386800000000 1.0
C      1  0.5497330000000  0.5630350000000  0.4881310000000 1.0
C      1  0.5908080000000  0.5477820000000  0.4424190000000 1.0
C      1  0.5395420000000  0.4931460000000  0.5972430000000 1.0
C      1  0.4905950000000  0.6043820000000  0.4976470000000 1.0
C      1  0.5424770000000  0.5917010000000  0.4286310000000 1.0
C      1  0.5373330000000  0.6089070000000  0.5161080000000 1.0
C      1  0.4672520000000  0.3874640000000  0.5258930000000 1.0
C      1  0.5173240000000  0.4744270000000  0.6022360000000 1.0
C      1  0.4037660000000  0.4110260000000  0.5468040000000 1.0
C      1  0.5329350000000  0.4977930000000  0.5686420000000 1.0
C      1  0.4100850000000  0.5213740000000  0.4279830000000 1.0
C      1  0.4719530000000  0.4076200000000  0.4570260000000 1.0
C      1  0.5032140000000  0.4026220000000  0.5006650000000 1.0
C      1  0.5068720000000  0.4350070000000  0.5372640000000 1.0
C      1  0.5924450000000  0.5580880000000  0.5401580000000 1.0
C      1  0.5563810000000  0.6151140000000  0.4288630000000 1.0
C      1  0.5809720000000  0.5401000000000  0.5603420000000 1.0
C      1  0.4399210000000  0.5633020000000  0.4321750000000 1.0
C      1  0.4245410000000  0.5167250000000  0.5475290000000 1.0
C      1  0.4178340000000  0.3944440000000  0.5288630000000 1.0
C      1  0.4204020000000  0.5854870000000  0.4717910000000 1.0
C      1  0.4260920000000  0.5396630000000  0.4421220000000 1.0
C      1  0.3994620000000  0.4700510000000  0.4216340000000 1.0
C      1  0.5434600000000  0.5734520000000  0.4070950000000 1.0
C      1  0.5211300000000  0.5310240000000  0.3936810000000 1.0
C      1  0.4931720000000  0.4593710000000  0.5479110000000 1.0
C      1  0.4624290000000  0.4713230000000  0.4703960000000 1.0
C      1  0.5945080000000  0.4390470000000  0.5324430000000 1.0
C      1  0.4760720000000  0.5199220000000  0.5952220000000 1.0
C      1  0.5074760000000  0.4256420000000  0.4303850000000 1.0
C      1  0.4701640000000  0.4198250000000  0.5695310000000 1.0
C      1  0.4543430000000  0.5273120000000  0.3771260000000 1.0
C      1  0.4262170000000  0.4881570000000  0.5695160000000 1.0
C      1  0.5886240000000  0.4966520000000  0.5410600000000 1.0
C      1  0.4514020000000  0.4677940000000  0.4200010000000 1.0
C      1  0.4348360000000  0.4598610000000  0.4740750000000 1.0
C      1  0.4782750000000  0.4587330000000  0.3724240000000 1.0
C      1  0.4143240000000  0.4693470000000  0.4920090000000 1.0
C      1  0.5370340000000  0.4237400000000  0.4322660000000 1.0
C      1  0.6185760000000  0.5509810000000  0.5323190000000 1.0
C      1  0.4039530000000  0.4962200000000  0.6175830000000 1.0
C      1  0.5117030000000  0.5040050000000  0.4004920000000 1.0
C      1  0.3808350000000  0.3993160000000  0.4170860000000 1.0
C      1  0.4873890000000  0.4665090000000  0.4456300000000 1.0
C      1  0.4240640000000  0.4801190000000  0.5161520000000 1.0
C      1  0.5906760000000  0.5126190000000  0.5647720000000 1.0
C      1  0.6133020000000  0.5294790000000  0.4380310000000 1.0
C      1  0.4005920000000  0.4968070000000  0.4230010000000 1.0
C      1  0.4968980000000  0.5688600000000  0.5939930000000 1.0
C      1  0.4675020000000  0.5255900000000  0.5683340000000 1.0
C      1  0.5770250000000  0.5711780000000  0.4932960000000 1.0
C      1  0.4476310000000  0.4218000000000  0.4996150000000 1.0
C      1  0.5166600000000  0.5322100000000  0.4972920000000 1.0
C      1  0.5173240000000  0.5334360000000  0.6202780000000 1.0
C      1  0.4338080000000  0.5321160000000  0.4684920000000 1.0
C      1  0.6112920000000  0.4468750000000  0.4801600000000 1.0
C      1  0.5188190000000  0.5586640000000  0.5363570000000 1.0
C      1  0.6308710000000  0.5223310000000  0.4586160000000 1.0
C      1  0.3771670000000  0.5077510000000  0.5257790000000 1.0
C      1  0.3829580000000  0.4261670000000  0.5353700000000 1.0
C      1  0.5978040000000  0.4361180000000  0.5036170000000 1.0
C      1  0.3893380000000  0.4563790000000  0.4945600000000 1.0
C      1  0.4424770000000  0.5409940000000  0.5592570000000 1.0
C      1  0.4546590000000  0.4995050000000  0.3823300000000 1.0
C      1  0.4779860000000  0.5972040000000  0.5223750000000 1.0
C      1  0.5782460000000  0.5078930000000  0.4149880000000 1.0
C      1  0.5570630000000  0.5177670000000  0.4724040000000 1.0
C      1  0.5296070000000  0.4589110000000  0.4895360000000 1.0
C      1  0.4574480000000  0.5239320000000  0.4811240000000 1.0
C      1  0.5448510000000  0.5451400000000  0.4049510000000 1.0
C      1  0.5498670000000  0.4393810000000  0.4121710000000 1.0
C      1  0.4841590000000  0.5131610000000  0.5232400000000 1.0
C      1  0.5754240000000  0.4959430000000  0.4743100000000 1.0
C      1  0.4598790000000  0.5092750000000  0.5066940000000 1.0
C      1  0.4239870000000  0.5835150000000  0.5213440000000 1.0
C      1  0.5106850000000  0.4069090000000  0.5467020000000 1.0
C      1  0.5561750000000  0.4109400000000  0.4864980000000 1.0
C      1  0.4758300000000  0.4704750000000  0.6200190000000 1.0
C      1  0.6048040000000  0.4610380000000  0.4554630000000 1.0
C      1  0.4677150000000  0.4809490000000  0.4966810000000 1.0
C      1  0.5395750000000  0.5171930000000  0.4507190000000 1.0
C      1  0.4619810000000  0.6046910000000  0.4533980000000 1.0
C      1  0.4867550000000  0.5252780000000  0.4379450000000 1.0
C      1  0.5768110000000  0.5770510000000  0.5235250000000 1.0
C      1  0.4716230000000  0.5803890000000  0.5922700000000 1.0
C      1  0.5409210000000  0.5926070000000  0.5621460000000 1.0
C      1  0.4959220000000  0.4585130000000  0.3945860000000 1.0
C      1  0.4811590000000  0.3990820000000  0.5501730000000 1.0
C      1  0.3951140000000  0.4210490000000  0.4187140000000 1.0
C      1  0.4708580000000  0.4366020000000  0.5078550000000 1.0
C      1  0.4404540000000  0.5854770000000  0.4516760000000 1.0
C      1  0.5372050000000  0.5165010000000  0.6148910000000 1.0
C      1  0.5065210000000  0.5074470000000  0.5059170000000 1.0
C      1  0.4919830000000  0.4483000000000  0.4212560000000 1.0
C      1  0.5425450000000  0.4193650000000  0.4617910000000 1.0
C      1  0.4377580000000  0.4629290000000  0.5604990000000 1.0
C      1  0.5445060000000  0.4358250000000  0.6043800000000 1.0
C      1  0.4906810000000  0.4301630000000  0.5888130000000 1.0
C      1  0.4627990000000  0.5586980000000  0.4148420000000 1.0
C      1  0.5074850000000  0.5541920000000  0.5123840000000 1.0
C      1  0.4792760000000  0.5204420000000  0.4639950000000 1.0
C      1  0.5604170000000  0.4962120000000  0.5345750000000 1.0
C      1  0.5429450000000  0.4609530000000  0.3967080000000 1.0
C      1  0.3739160000000  0.5388440000000  0.4892460000000 1.0
C      1  0.4972730000000  0.4283590000000  0.5106640000000 1.0
END
