TITL C-3201374-830-469 10404.1611806844 125000 -701.075889463225 0 0 116 (C1) n - 1
REM
REM in /home/nfs/bkarasulu/CARBON/AIRSS/Generating-Clusters/LCBOP/Higher-Symm/SD-CG/FIRE-CG
REM
REM
REM
REM
REM
REM ./C.cell (b20cbc046b6831c77cfcea5457e17084)
REM AIRSS Version 0.9.1 bugfix July 2018 build 013d7b7c2542+ Fri, 06 Jul 2018 19:26:36 +0100
REM compiler GCC version 9.2.1 20190827 (Red Hat 9.2.1-1)
REM options -cpp -mtune=generic -march=x86-64 -g -O0 -fpre-include=/usr/include/finclude/math-vector-fortran.h
REM seed -146750801 269390167 -1474015926 101269380 925503614 -1271348744 -1716065713 -959169606 -326945716 1464299720 -1180893663 2069972610 359072369 1182395229 1677325272 -1381869859 -416546090 64417338 1859619722 415771830 1861744315 -752173478 -1093130537 -774883159 -1428588295 -788900514 -2147134426 -515631832 2069540400 -1550227188 1636122300 613512625 472571840
REM
CELL 1.54180   50.00000   50.00000   50.00000   90.00000   90.00000   90.00000
LATT -1
SFAC C  
C      1  0.5543300000000  0.4751780000000  0.4960240000000 1.0
C      1  0.4794560000000  0.4874670000000  0.5619520000000 1.0
C      1  0.4903270000000  0.5352130000000  0.4877160000000 1.0
C      1  0.4374120000000  0.5082060000000  0.4749780000000 1.0
C      1  0.5632780000000  0.5228260000000  0.5019200000000 1.0
C      1  0.4354260000000  0.4638500000000  0.4908000000000 1.0
C      1  0.5068230000000  0.5165600000000  0.5448480000000 1.0
C      1  0.4778470000000  0.5250130000000  0.4393020000000 1.0
C      1  0.5155510000000  0.4959930000000  0.4322910000000 1.0
C      1  0.5283190000000  0.4716730000000  0.4871540000000 1.0
C      1  0.4864150000000  0.4541250000000  0.5085490000000 1.0
C      1  0.5370340000000  0.5343620000000  0.5113020000000 1.0
C      1  0.5634960000000  0.4595880000000  0.5184320000000 1.0
C      1  0.4879670000000  0.4984070000000  0.4412530000000 1.0
C      1  0.4768550000000  0.5443790000000  0.5121390000000 1.0
C      1  0.4392890000000  0.5221860000000  0.4996100000000 1.0
C      1  0.5668520000000  0.4990380000000  0.4868020000000 1.0
C      1  0.4502140000000  0.4826920000000  0.4736500000000 1.0
C      1  0.5321120000000  0.5192290000000  0.4309800000000 1.0
C      1  0.4815470000000  0.5076140000000  0.5403980000000 1.0
C      1  0.5051800000000  0.4895170000000  0.5738450000000 1.0
C      1  0.5491720000000  0.4342980000000  0.5243670000000 1.0
C      1  0.5034340000000  0.4689910000000  0.4951610000000 1.0
C      1  0.5182100000000  0.5373990000000  0.4880350000000 1.0
C      1  0.4684940000000  0.4533200000000  0.4390250000000 1.0
C      1  0.4599390000000  0.4210500000000  0.4890500000000 1.0
C      1  0.4005930000000  0.4935550000000  0.4427130000000 1.0
C      1  0.5192380000000  0.5589480000000  0.4092290000000 1.0
C      1  0.4907720000000  0.5700380000000  0.5681440000000 1.0
C      1  0.5144570000000  0.4438730000000  0.5601910000000 1.0
C      1  0.5560600000000  0.5778440000000  0.4996620000000 1.0
C      1  0.4704730000000  0.5725750000000  0.5061440000000 1.0
C      1  0.5421840000000  0.4152530000000  0.5044300000000 1.0
C      1  0.5781970000000  0.4983160000000  0.4611660000000 1.0
C      1  0.4365300000000  0.5069620000000  0.5426280000000 1.0
C      1  0.5651780000000  0.4865100000000  0.5587400000000 1.0
C      1  0.4860750000000  0.4397380000000  0.5567880000000 1.0
C      1  0.4732970000000  0.4296360000000  0.5125000000000 1.0
C      1  0.4289190000000  0.4795520000000  0.5379780000000 1.0
C      1  0.5194760000000  0.5705080000000  0.5675610000000 1.0
C      1  0.4929270000000  0.5554370000000  0.4048740000000 1.0
C      1  0.5164050000000  0.4457460000000  0.4239870000000 1.0
C      1  0.5409860000000  0.5638610000000  0.5197020000000 1.0
C      1  0.4491260000000  0.5734710000000  0.4874730000000 1.0
C      1  0.5528150000000  0.4121920000000  0.4779010000000 1.0
C      1  0.5530000000000  0.5110890000000  0.5529810000000 1.0
C      1  0.4166280000000  0.5106060000000  0.4559100000000 1.0
C      1  0.5743740000000  0.4860760000000  0.4376690000000 1.0
C      1  0.5568640000000  0.4672210000000  0.4267520000000 1.0
C      1  0.4729520000000  0.4206460000000  0.5393710000000 1.0
C      1  0.4205130000000  0.5649010000000  0.4882000000000 1.0
C      1  0.4696130000000  0.5376390000000  0.4123390000000 1.0
C      1  0.5341140000000  0.5636290000000  0.5927400000000 1.0
C      1  0.4400210000000  0.4591290000000  0.5541430000000 1.0
C      1  0.5404990000000  0.5701410000000  0.5470070000000 1.0
C      1  0.4581400000000  0.5631700000000  0.4617370000000 1.0
C      1  0.5301700000000  0.4117270000000  0.4585640000000 1.0
C      1  0.5787690000000  0.4148300000000  0.4675880000000 1.0
C      1  0.4178490000000  0.4756840000000  0.5115850000000 1.0
C      1  0.5873000000000  0.5401130000000  0.5107060000000 1.0
C      1  0.5517220000000  0.4699460000000  0.5775270000000 1.0
C      1  0.4781900000000  0.4138190000000  0.4675940000000 1.0
C      1  0.4163360000000  0.5423420000000  0.5084980000000 1.0
C      1  0.4765770000000  0.5543460000000  0.5894120000000 1.0
C      1  0.5395190000000  0.5457760000000  0.4241050000000 1.0
C      1  0.3944120000000  0.4676170000000  0.4400740000000 1.0
C      1  0.5377240000000  0.5852510000000  0.4763910000000 1.0
C      1  0.4683640000000  0.5781460000000  0.5512150000000 1.0
C      1  0.5376680000000  0.4292810000000  0.5504470000000 1.0
C      1  0.5799740000000  0.4755430000000  0.5365670000000 1.0
C      1  0.4357690000000  0.4359070000000  0.4833580000000 1.0
C      1  0.5811480000000  0.5645650000000  0.4911620000000 1.0
C      1  0.5637090000000  0.4454910000000  0.5858190000000 1.0
C      1  0.4432300000000  0.5629410000000  0.5554060000000 1.0
C      1  0.5838630000000  0.5650940000000  0.4634540000000 1.0
C      1  0.4492370000000  0.5503380000000  0.5811250000000 1.0
C      1  0.5609420000000  0.5596860000000  0.4354880000000 1.0
C      1  0.3997480000000  0.4427200000000  0.4484360000000 1.0
C      1  0.5562830000000  0.4221750000000  0.5713120000000 1.0
C      1  0.4724180000000  0.4271230000000  0.4433970000000 1.0
C      1  0.5553980000000  0.5895680000000  0.4534600000000 1.0
C      1  0.4154260000000  0.4287640000000  0.4652420000000 1.0
C      1  0.5651840000000  0.3970040000000  0.5762840000000 1.0
C      1  0.4238020000000  0.5550890000000  0.5360700000000 1.0
C      1  0.5611000000000  0.4387890000000  0.4303690000000 1.0
C      1  0.4362090000000  0.5627860000000  0.4425450000000 1.0
C      1  0.5853770000000  0.5536710000000  0.5392760000000 1.0
C      1  0.4443460000000  0.5534040000000  0.4174350000000 1.0
C      1  0.5620800000000  0.5619720000000  0.5866340000000 1.0
C      1  0.4305450000000  0.4324090000000  0.5555220000000 1.0
C      1  0.5344940000000  0.4259220000000  0.4343910000000 1.0
C      1  0.4479180000000  0.4107320000000  0.5492560000000 1.0
C      1  0.5671860000000  0.5639810000000  0.5584960000000 1.0
C      1  0.4417550000000  0.3844450000000  0.5522110000000 1.0
C      1  0.5828820000000  0.4270440000000  0.4437660000000 1.0
C      1  0.4130060000000  0.5646780000000  0.4599150000000 1.0
C      1  0.5133050000000  0.5989280000000  0.4872010000000 1.0
C      1  0.6015340000000  0.4920520000000  0.5268180000000 1.0
C      1  0.4920670000000  0.5480900000000  0.6119520000000 1.0
C      1  0.5052170000000  0.4066880000000  0.4736360000000 1.0
C      1  0.5150720000000  0.4049170000000  0.5012050000000 1.0
C      1  0.4914470000000  0.5916080000000  0.5016910000000 1.0
C      1  0.3935740000000  0.5222190000000  0.5085440000000 1.0
C      1  0.6069680000000  0.5170310000000  0.5167280000000 1.0
C      1  0.3965170000000  0.4947270000000  0.5064050000000 1.0
C      1  0.5185480000000  0.5534310000000  0.6137660000000 1.0
C      1  0.4650550000000  0.5169540000000  0.3916840000000 1.0
C      1  0.4630690000000  0.4974630000000  0.3745200000000 1.0
C      1  0.4588800000000  0.5205350000000  0.5243520000000 1.0
C      1  0.5267300000000  0.5573270000000  0.4699180000000 1.0
C      1  0.5230950000000  0.4683770000000  0.5737810000000 1.0
C      1  0.4765930000000  0.5412380000000  0.4626700000000 1.0
C      1  0.5279070000000  0.4720300000000  0.4243170000000 1.0
C      1  0.4677600000000  0.4622350000000  0.5613010000000 1.0
C      1  0.4694970000000  0.4784010000000  0.4519310000000 1.0
C      1  0.5320450000000  0.5203490000000  0.5368930000000 1.0
END
