TITL C-3201373-1215-1410 0.0536778090745867 125000 -167.750866577417 0 0 29 (C1) n - 1
REM
REM in /home/nfs/bkarasulu/CARBON/AIRSS/Generating-Clusters/LCBOP/Higher-Symm/SD-CG/FIRE-CG
REM
REM
REM
REM
REM
REM ./C.cell (b20cbc046b6831c77cfcea5457e17084)
REM AIRSS Version 0.9.1 bugfix July 2018 build 013d7b7c2542+ Fri, 06 Jul 2018 19:26:36 +0100
REM compiler GCC version 9.2.1 20190827 (Red Hat 9.2.1-1)
REM options -cpp -mtune=generic -march=x86-64 -g -O0 -fpre-include=/usr/include/finclude/math-vector-fortran.h
REM seed -21095983 1419646572 1081914666 1211119353 -2142560939 -850224516 -1869491061 -62764342 -756041607 560599811 1898136390 -1157212250 732156118 593522592 2074002733 435688710 434311894 -156699705 -1936728075 1886617497 -1406922298 1057000167 -1541107321 -1132978467 1360176557 1846020458 -1811026204 479683710 -451588007 39685738 -1925486942 1838788243 -863441811
REM
CELL 1.54180   50.00000   50.00000   50.00000   90.00000   90.00000   90.00000
LATT -1
SFAC C  
C      1  0.5438440000000  0.4990590000000  0.5110290000000 1.0
C      1  0.4930860000000  0.5087310000000  0.5230110000000 1.0
C      1  0.5149770000000  0.5266660000000  0.4817340000000 1.0
C      1  0.4769970000000  0.4666400000000  0.5006930000000 1.0
C      1  0.4590170000000  0.4188760000000  0.4485420000000 1.0
C      1  0.5385380000000  0.4528630000000  0.4978140000000 1.0
C      1  0.4960740000000  0.5221970000000  0.4610670000000 1.0
C      1  0.5628020000000  0.5199750000000  0.5134800000000 1.0
C      1  0.5023550000000  0.5144850000000  0.5510540000000 1.0
C      1  0.4984970000000  0.5726710000000  0.5353640000000 1.0
C      1  0.4779650000000  0.5343030000000  0.5124100000000 1.0
C      1  0.5171510000000  0.5535720000000  0.4929940000000 1.0
C      1  0.4302550000000  0.3913690000000  0.4141860000000 1.0
C      1  0.5706230000000  0.4643620000000  0.5317390000000 1.0
C      1  0.4567360000000  0.4809270000000  0.5419510000000 1.0
C      1  0.5162780000000  0.4438480000000  0.4864520000000 1.0
C      1  0.4886380000000  0.4474370000000  0.4840040000000 1.0
C      1  0.4735060000000  0.4327370000000  0.4658500000000 1.0
C      1  0.4693000000000  0.5243250000000  0.4656880000000 1.0
C      1  0.5632350000000  0.5463290000000  0.5078160000000 1.0
C      1  0.5061450000000  0.5364090000000  0.5662380000000 1.0
C      1  0.4599920000000  0.5303880000000  0.4905890000000 1.0
C      1  0.5435400000000  0.5621250000000  0.4980970000000 1.0
C      1  0.5040170000000  0.5625600000000  0.5598350000000 1.0
C      1  0.5514790000000  0.4719000000000  0.5137350000000 1.0
C      1  0.4751880000000  0.4847390000000  0.5219720000000 1.0
C      1  0.4445170000000  0.4050080000000  0.4312220000000 1.0
C      1  0.4954960000000  0.5578730000000  0.5115800000000 1.0
C      1  0.5173490000000  0.5071460000000  0.5034570000000 1.0
END
