TITL C-3201379-3821-1239 -1.34911538035481e-07 125000 -426.300904863088 0 0 70 (C2h) n - 1
REM
REM in /home/nfs/bkarasulu/CARBON/AIRSS/Generating-Clusters/LCBOP/Higher-Symm/SD-CG/FIRE-CG
REM
REM
REM
REM
REM
REM ./C.cell (b20cbc046b6831c77cfcea5457e17084)
REM AIRSS Version 0.9.1 bugfix July 2018 build 013d7b7c2542+ Fri, 06 Jul 2018 19:26:36 +0100
REM compiler GCC version 9.2.1 20190827 (Red Hat 9.2.1-1)
REM options -cpp -mtune=generic -march=x86-64 -g -O0 -fpre-include=/usr/include/finclude/math-vector-fortran.h
REM seed -695895282 857950797 565380969 537419218 -1438749233 -665372085 -21713665 -1750171439 -232137273 1851483149 887721158 -855356513 -94981498 1279511876 -1468972574 1282872778 365283013 354319458 -1476572509 -1154849179 -903904106 1445573990 -1366867102 1143157949 989336380 -1174746000 1420301829 352765373 507667813 -1545964849 -384654594 886022123 254681881
REM
CELL 1.54180   50.00000   50.00000   50.00000   90.00000   90.00000   90.00000
LATT -1
SFAC C  
C      1  0.5452770000000  0.4441300000000  0.5400780000000 1.0
C      1  0.4547220000000  0.4441310000000  0.4599220000000 1.0
C      1  0.5452780000000  0.5531630000000  0.5400780000000 1.0
C      1  0.4547230000000  0.5531630000000  0.4599220000000 1.0
C      1  0.5340020000000  0.4848620000000  0.5254050000000 1.0
C      1  0.4659980000000  0.4848620000000  0.4745950000000 1.0
C      1  0.5340020000000  0.5124310000000  0.5254050000000 1.0
C      1  0.4659980000000  0.5124320000000  0.4745950000000 1.0
C      1  0.4339310000000  0.4084000000000  0.4884930000000 1.0
C      1  0.5660680000000  0.4084000000000  0.5115070000000 1.0
C      1  0.4339320000000  0.5888930000000  0.4884930000000 1.0
C      1  0.5660690000000  0.5888930000000  0.5115070000000 1.0
C      1  0.5449510000000  0.5477900000000  0.4930470000000 1.0
C      1  0.4550490000000  0.5477900000000  0.5069530000000 1.0
C      1  0.5449510000000  0.4495030000000  0.4930470000000 1.0
C      1  0.4550490000000  0.4495030000000  0.5069530000000 1.0
C      1  0.5797130000000  0.5135080000000  0.5271650000000 1.0
C      1  0.4202870000000  0.5135080000000  0.4728350000000 1.0
C      1  0.5797130000000  0.4837850000000  0.5271650000000 1.0
C      1  0.4202870000000  0.4837850000000  0.4728350000000 1.0
C      1  0.5081170000000  0.5123220000000  0.5739890000000 1.0
C      1  0.4918830000000  0.5123220000000  0.4260110000000 1.0
C      1  0.5081170000000  0.4849710000000  0.5739890000000 1.0
C      1  0.4918830000000  0.4849710000000  0.4260110000000 1.0
C      1  0.4984490000000  0.5346840000000  0.5585380000000 1.0
C      1  0.5015510000000  0.5346850000000  0.4414620000000 1.0
C      1  0.4984490000000  0.4626090000000  0.5585380000000 1.0
C      1  0.5015510000000  0.4626090000000  0.4414620000000 1.0
C      1  0.4737780000000  0.5265960000000  0.4977100000000 1.0
C      1  0.5262230000000  0.5265960000000  0.5022900000000 1.0
C      1  0.4737770000000  0.4706970000000  0.4977100000000 1.0
C      1  0.5262220000000  0.4706970000000  0.5022900000000 1.0
C      1  0.4833140000000  0.5124160000000  0.5204580000000 1.0
C      1  0.5166870000000  0.5124160000000  0.4795420000000 1.0
C      1  0.4833130000000  0.4848770000000  0.5204580000000 1.0
C      1  0.5166860000000  0.4848770000000  0.4795420000000 1.0
C      1  0.5730760000000  0.5139120000000  0.4753070000000 1.0
C      1  0.4269240000000  0.5139120000000  0.5246930000000 1.0
C      1  0.5730760000000  0.4833810000000  0.4753070000000 1.0
C      1  0.4269240000000  0.4833810000000  0.5246930000000 1.0
C      1  0.4469030000000  0.5349250000000  0.5335460000000 1.0
C      1  0.5530970000000  0.5349240000000  0.4664540000000 1.0
C      1  0.4469030000000  0.4623690000000  0.5335460000000 1.0
C      1  0.5530970000000  0.4623680000000  0.4664540000000 1.0
C      1  0.5031050000000  0.4244140000000  0.5263030000000 1.0
C      1  0.4968940000000  0.4244140000000  0.4736970000000 1.0
C      1  0.5031060000000  0.5728790000000  0.5263030000000 1.0
C      1  0.4968950000000  0.5728800000000  0.4736970000000 1.0
C      1  0.5529750000000  0.4320610000000  0.5142500000000 1.0
C      1  0.4470240000000  0.4320620000000  0.4857500000000 1.0
C      1  0.5529760000000  0.5652310000000  0.5142500000000 1.0
C      1  0.4470250000000  0.5652320000000  0.4857500000000 1.0
C      1  0.4741900000000  0.4697040000000  0.5437880000000 1.0
C      1  0.5258090000000  0.4697040000000  0.4562120000000 1.0
C      1  0.4741910000000  0.5275890000000  0.5437880000000 1.0
C      1  0.5258100000000  0.5275890000000  0.4562120000000 1.0
C      1  0.5558700000000  0.5259300000000  0.5390730000000 1.0
C      1  0.4441300000000  0.5259300000000  0.4609270000000 1.0
C      1  0.5558700000000  0.4713630000000  0.5390730000000 1.0
C      1  0.4441300000000  0.4713640000000  0.4609270000000 1.0
C      1  0.4132080000000  0.5228180000000  0.4996610000000 1.0
C      1  0.5867920000000  0.5228170000000  0.5003390000000 1.0
C      1  0.4132080000000  0.4744760000000  0.4996610000000 1.0
C      1  0.5867920000000  0.4744750000000  0.5003390000000 1.0
C      1  0.4841190000000  0.4417020000000  0.4542540000000 1.0
C      1  0.5158800000000  0.4417020000000  0.5457460000000 1.0
C      1  0.4841200000000  0.5555920000000  0.4542540000000 1.0
C      1  0.5158810000000  0.5555910000000  0.5457460000000 1.0
C      1  0.5000000000000  0.4186610000000  0.5000000000000 1.0
C      1  0.5000000000000  0.5786320000000  0.5000000000000 1.0
END
