TITL C-3201377-4638-2177 0.00146593021646329 125000 -529.019721807064 0 0 88 (C1) n - 1
REM
REM in /home/nfs/bkarasulu/CARBON/AIRSS/Generating-Clusters/LCBOP/Higher-Symm/SD-CG/FIRE-CG
REM
REM
REM
REM
REM
REM ./C.cell (b20cbc046b6831c77cfcea5457e17084)
REM AIRSS Version 0.9.1 bugfix July 2018 build 013d7b7c2542+ Fri, 06 Jul 2018 19:26:36 +0100
REM compiler GCC version 9.2.1 20190827 (Red Hat 9.2.1-1)
REM options -cpp -mtune=generic -march=x86-64 -g -O0 -fpre-include=/usr/include/finclude/math-vector-fortran.h
REM seed 1714666399 -842565161 1662494205 119010008 772602214 -2101911950 1884068741 294411173 -821103690 -58104555 1319243729 293430288 284288902 322872367 -1124192325 526465129 -283231706 272551963 1120675416 837120443 1340393318 -1838636273 1995562173 -468966214 -596469985 2006604242 254586057 1891184590 225630655 -441025755 -1961919771 1753932880 649105132
REM
CELL 1.54180   50.00000   50.00000   50.00000   90.00000   90.00000   90.00000
LATT -1
SFAC C  
C      1  0.5679460000000  0.4925430000000  0.5071510000000 1.0
C      1  0.4183650000000  0.5192310000000  0.5410990000000 1.0
C      1  0.4455180000000  0.4540640000000  0.4775690000000 1.0
C      1  0.6142520000000  0.4614130000000  0.4463960000000 1.0
C      1  0.5481290000000  0.4806010000000  0.4900850000000 1.0
C      1  0.4214770000000  0.5793090000000  0.4988600000000 1.0
C      1  0.4999910000000  0.5534140000000  0.4729140000000 1.0
C      1  0.5707620000000  0.4411360000000  0.4492970000000 1.0
C      1  0.4788430000000  0.5263570000000  0.4380650000000 1.0
C      1  0.5117820000000  0.6156250000000  0.5599860000000 1.0
C      1  0.4771840000000  0.5374590000000  0.5101100000000 1.0
C      1  0.5698650000000  0.5390880000000  0.5279790000000 1.0
C      1  0.5700520000000  0.3984740000000  0.5188590000000 1.0
C      1  0.4552950000000  0.4377710000000  0.4569160000000 1.0
C      1  0.4437870000000  0.5570450000000  0.4170590000000 1.0
C      1  0.4367860000000  0.5922360000000  0.4771880000000 1.0
C      1  0.4384490000000  0.5625280000000  0.5621800000000 1.0
C      1  0.5403500000000  0.5802610000000  0.5401540000000 1.0
C      1  0.4854440000000  0.5777190000000  0.4691810000000 1.0
C      1  0.5066240000000  0.4431300000000  0.5722790000000 1.0
C      1  0.4834510000000  0.4598750000000  0.5659590000000 1.0
C      1  0.4287370000000  0.5921950000000  0.4504230000000 1.0
C      1  0.5718800000000  0.5309060000000  0.5547630000000 1.0
C      1  0.4621940000000  0.5754110000000  0.5591520000000 1.0
C      1  0.4427820000000  0.5662550000000  0.5130710000000 1.0
C      1  0.5540240000000  0.5983830000000  0.5575050000000 1.0
C      1  0.5739260000000  0.5203140000000  0.5056950000000 1.0
C      1  0.5803710000000  0.5122380000000  0.4577140000000 1.0
C      1  0.4822380000000  0.4384840000000  0.4486520000000 1.0
C      1  0.4551600000000  0.4919880000000  0.5126560000000 1.0
C      1  0.4660200000000  0.5918060000000  0.4845230000000 1.0
C      1  0.3757740000000  0.5359900000000  0.5326830000000 1.0
C      1  0.4859280000000  0.3548610000000  0.4609840000000 1.0
C      1  0.4314770000000  0.5780980000000  0.4279020000000 1.0
C      1  0.5331140000000  0.4563980000000  0.4929340000000 1.0
C      1  0.4419490000000  0.3676380000000  0.4401840000000 1.0
C      1  0.3905340000000  0.5127810000000  0.5360150000000 1.0
C      1  0.3929430000000  0.5593670000000  0.5352100000000 1.0
C      1  0.5070560000000  0.4295870000000  0.4442170000000 1.0
C      1  0.4431860000000  0.4709970000000  0.4980590000000 1.0
C      1  0.5519530000000  0.4255180000000  0.4633440000000 1.0
C      1  0.5549610000000  0.4210270000000  0.5161390000000 1.0
C      1  0.4908860000000  0.5056940000000  0.4814690000000 1.0
C      1  0.5065600000000  0.5926510000000  0.5434810000000 1.0
C      1  0.4333600000000  0.3928750000000  0.4394500000000 1.0
C      1  0.5755850000000  0.4899710000000  0.4409330000000 1.0
C      1  0.4795690000000  0.5852510000000  0.5382250000000 1.0
C      1  0.5096910000000  0.4555700000000  0.5089660000000 1.0
C      1  0.4821940000000  0.4880870000000  0.5693950000000 1.0
C      1  0.5444470000000  0.4355960000000  0.5389620000000 1.0
C      1  0.5032530000000  0.5407340000000  0.5195510000000 1.0
C      1  0.5279800000000  0.4826020000000  0.5432540000000 1.0
C      1  0.5746360000000  0.5303120000000  0.4785940000000 1.0
C      1  0.5230010000000  0.3864160000000  0.4572990000000 1.0
C      1  0.5504600000000  0.4634770000000  0.5406160000000 1.0
C      1  0.4614310000000  0.5374760000000  0.4212160000000 1.0
C      1  0.4952720000000  0.3867400000000  0.4963730000000 1.0
C      1  0.4913230000000  0.5275960000000  0.4630770000000 1.0
C      1  0.5650500000000  0.5717710000000  0.4539190000000 1.0
C      1  0.5179880000000  0.4300160000000  0.5486250000000 1.0
C      1  0.5732960000000  0.4759670000000  0.5294300000000 1.0
C      1  0.5480490000000  0.4323410000000  0.4906840000000 1.0
C      1  0.5379760000000  0.6180860000000  0.5678930000000 1.0
C      1  0.4168860000000  0.5483140000000  0.5503130000000 1.0
C      1  0.4624220000000  0.3526600000000  0.4485130000000 1.0
C      1  0.5290780000000  0.4132810000000  0.4513880000000 1.0
C      1  0.5344340000000  0.5006470000000  0.5641080000000 1.0
C      1  0.5869670000000  0.4640500000000  0.4455950000000 1.0
C      1  0.5547160000000  0.5171340000000  0.5701260000000 1.0
C      1  0.4385760000000  0.4182180000000  0.4457000000000 1.0
C      1  0.4899580000000  0.5132200000000  0.5622960000000 1.0
C      1  0.4660820000000  0.5846850000000  0.5130530000000 1.0
C      1  0.5059940000000  0.4813050000000  0.5222730000000 1.0
C      1  0.5165780000000  0.5520940000000  0.4963080000000 1.0
C      1  0.4502060000000  0.5392900000000  0.5134640000000 1.0
C      1  0.4967530000000  0.4331340000000  0.5255460000000 1.0
C      1  0.4909080000000  0.4080530000000  0.5116650000000 1.0
C      1  0.4737950000000  0.4463490000000  0.5416910000000 1.0
C      1  0.5406570000000  0.4961880000000  0.4002300000000 1.0
C      1  0.5429110000000  0.5609000000000  0.4963230000000 1.0
C      1  0.3973840000000  0.5771090000000  0.5132580000000 1.0
C      1  0.5028510000000  0.3739260000000  0.4725290000000 1.0
C      1  0.5610230000000  0.5551320000000  0.4750890000000 1.0
C      1  0.5585180000000  0.4932760000000  0.4189820000000 1.0
C      1  0.5035210000000  0.5309520000000  0.5463630000000 1.0
C      1  0.5533870000000  0.5622830000000  0.5226070000000 1.0
C      1  0.4395140000000  0.5145870000000  0.5226060000000 1.0
C      1  0.4843150000000  0.4944630000000  0.5074500000000 1.0
END
