TITL C-3201374-830-111 -1.9158854635776e-08 125000 -272.280470830442 0 0 47 (C1) n - 1
REM
REM in /home/nfs/bkarasulu/CARBON/AIRSS/Generating-Clusters/LCBOP/Higher-Symm/SD-CG/FIRE-CG
REM
REM
REM
REM
REM
REM ./C.cell (b20cbc046b6831c77cfcea5457e17084)
REM AIRSS Version 0.9.1 bugfix July 2018 build 013d7b7c2542+ Fri, 06 Jul 2018 19:26:36 +0100
REM compiler GCC version 9.2.1 20190827 (Red Hat 9.2.1-1)
REM options -cpp -mtune=generic -march=x86-64 -g -O0 -fpre-include=/usr/include/finclude/math-vector-fortran.h
REM seed -549996967 331845427 30429933 -801971987 -552395605 -1624532419 349918635 -1378527593 -728915789 -2073541411 2132090287 -1366254377 -1430266325 -994640896 -558792134 -935862550 -771632185 -932613211 -732435910 1276187588 -1267123987 -214743439 1648748373 158539945 -921671777 -1498789026 1436261185 -1676701871 -1544754808 304435250 754427636 2062334703 -344794571
REM
CELL 1.54180   50.00000   50.00000   50.00000   90.00000   90.00000   90.00000
LATT -1
SFAC C  
C      1  0.5135190000000  0.4794480000000  0.5181630000000 1.0
C      1  0.5149990000000  0.5212940000000  0.5002710000000 1.0
C      1  0.4601120000000  0.5472900000000  0.4650320000000 1.0
C      1  0.4591650000000  0.4528400000000  0.4641840000000 1.0
C      1  0.4570010000000  0.4280030000000  0.4776810000000 1.0
C      1  0.4585680000000  0.5713660000000  0.4799480000000 1.0
C      1  0.4471920000000  0.4242530000000  0.5026430000000 1.0
C      1  0.4503140000000  0.5738290000000  0.5056200000000 1.0
C      1  0.4393290000000  0.4420830000000  0.5213660000000 1.0
C      1  0.4437500000000  0.5550850000000  0.5239490000000 1.0
C      1  0.5260390000000  0.4523870000000  0.5224590000000 1.0
C      1  0.5249000000000  0.5462760000000  0.5132280000000 1.0
C      1  0.5061100000000  0.5287210000000  0.4455070000000 1.0
C      1  0.5052920000000  0.4737660000000  0.4476520000000 1.0
C      1  0.5297730000000  0.5164420000000  0.4563320000000 1.0
C      1  0.5287190000000  0.4861840000000  0.4585600000000 1.0
C      1  0.5397100000000  0.5141460000000  0.5525380000000 1.0
C      1  0.5536960000000  0.4881800000000  0.5514500000000 1.0
C      1  0.4366680000000  0.4852480000000  0.4990420000000 1.0
C      1  0.4381260000000  0.5135380000000  0.4993950000000 1.0
C      1  0.4411350000000  0.4723260000000  0.4741810000000 1.0
C      1  0.4426150000000  0.5271970000000  0.4748960000000 1.0
C      1  0.5460140000000  0.4669860000000  0.4730910000000 1.0
C      1  0.5485900000000  0.5363000000000  0.4681500000000 1.0
C      1  0.5005390000000  0.4409110000000  0.5387750000000 1.0
C      1  0.5001500000000  0.5510340000000  0.5318570000000 1.0
C      1  0.4903030000000  0.5101190000000  0.4919670000000 1.0
C      1  0.4898270000000  0.4836100000000  0.5000140000000 1.0
C      1  0.5928520000000  0.4865050000000  0.4626080000000 1.0
C      1  0.5938890000000  0.5131780000000  0.4602910000000 1.0
C      1  0.4822420000000  0.5404980000000  0.4490030000000 1.0
C      1  0.4819300000000  0.4608580000000  0.4498020000000 1.0
C      1  0.5110380000000  0.5104470000000  0.5562130000000 1.0
C      1  0.5046740000000  0.4849040000000  0.5469780000000 1.0
C      1  0.5371710000000  0.4485240000000  0.4941470000000 1.0
C      1  0.5406530000000  0.5559150000000  0.4889320000000 1.0
C      1  0.4603430000000  0.4818180000000  0.5423250000000 1.0
C      1  0.4641320000000  0.5126940000000  0.5413220000000 1.0
C      1  0.5452720000000  0.5367820000000  0.5352850000000 1.0
C      1  0.5488350000000  0.4622360000000  0.5421090000000 1.0
C      1  0.4419240000000  0.4702400000000  0.5232110000000 1.0
C      1  0.4456730000000  0.5268530000000  0.5238450000000 1.0
C      1  0.5759490000000  0.5329450000000  0.4622820000000 1.0
C      1  0.5736390000000  0.4685840000000  0.4676260000000 1.0
C      1  0.4896940000000  0.5279760000000  0.5472820000000 1.0
C      1  0.4839940000000  0.4648240000000  0.5493310000000 1.0
C      1  0.5322430000000  0.4995610000000  0.5072930000000 1.0
END
