TITL C-3201376-6384-550 -13.4017320831545 125000 -733.792996376766 0 0 121 (C1) n - 1
REM
REM in /home/nfs/bkarasulu/CARBON/AIRSS/Generating-Clusters/LCBOP/Higher-Symm/SD-CG/FIRE-CG
REM
REM
REM
REM
REM
REM ./C.cell (b20cbc046b6831c77cfcea5457e17084)
REM AIRSS Version 0.9.1 bugfix July 2018 build 013d7b7c2542+ Fri, 06 Jul 2018 19:26:36 +0100
REM compiler GCC version 9.2.1 20190827 (Red Hat 9.2.1-1)
REM options -cpp -mtune=generic -march=x86-64 -g -O0 -fpre-include=/usr/include/finclude/math-vector-fortran.h
REM seed 1022045211 -987886647 -428422010 -1689970176 -1045935299 -826311700 -793497065 -1716728259 218697723 621109381 2045366150 -194912124 -301242009 -2045262448 -318325231 -1535425669 -601028767 1326407520 -1967106522 -1679647135 1235002954 1186878278 1458871669 296737527 212065857 1414765840 1619005689 -684485132 1022367206 -360576139 990737528 -1923323703 1125323810
REM
CELL 1.54180   50.00000   50.00000   50.00000   90.00000   90.00000   90.00000
LATT -1
SFAC C  
C      1  0.5069660000000  0.3959880000000  0.5091050000000 1.0
C      1  0.6227600000000  0.4710040000000  0.3534350000000 1.0
C      1  0.5013580000000  0.4520050000000  0.4966860000000 1.0
C      1  0.5530820000000  0.4061220000000  0.4997550000000 1.0
C      1  0.3960350000000  0.4835700000000  0.4811650000000 1.0
C      1  0.7020200000000  0.4322370000000  0.2954580000000 1.0
C      1  0.5363160000000  0.4796980000000  0.5732300000000 1.0
C      1  0.4736710000000  0.4742600000000  0.6071050000000 1.0
C      1  0.6164070000000  0.5494050000000  0.5596700000000 1.0
C      1  0.4709080000000  0.5368870000000  0.5286480000000 1.0
C      1  0.5426720000000  0.5393330000000  0.4895880000000 1.0
C      1  0.5297860000000  0.5088170000000  0.5780870000000 1.0
C      1  0.4340720000000  0.5335890000000  0.4947530000000 1.0
C      1  0.5502320000000  0.5749450000000  0.7008050000000 1.0
C      1  0.4693370000000  0.5374080000000  0.3971300000000 1.0
C      1  0.5562900000000  0.4728570000000  0.5526100000000 1.0
C      1  0.5090060000000  0.4736620000000  0.5367880000000 1.0
C      1  0.5286540000000  0.4180140000000  0.5582180000000 1.0
C      1  0.5359530000000  0.5032750000000  0.3880800000000 1.0
C      1  0.4749940000000  0.5580770000000  0.4672450000000 1.0
C      1  0.5274880000000  0.3986940000000  0.4893310000000 1.0
C      1  0.6426540000000  0.4612750000000  0.3388820000000 1.0
C      1  0.4590400000000  0.4889220000000  0.5087270000000 1.0
C      1  0.5166240000000  0.5250140000000  0.5276510000000 1.0
C      1  0.5079600000000  0.5060770000000  0.3831960000000 1.0
C      1  0.4755680000000  0.5803670000000  0.4225940000000 1.0
C      1  0.3885850000000  0.5688730000000  0.4408350000000 1.0
C      1  0.4740690000000  0.5296700000000  0.4703410000000 1.0
C      1  0.5541360000000  0.5702880000000  0.6754530000000 1.0
C      1  0.5714130000000  0.5177190000000  0.5402170000000 1.0
C      1  0.5423830000000  0.4837230000000  0.4823380000000 1.0
C      1  0.3864640000000  0.4905070000000  0.5066280000000 1.0
C      1  0.5049270000000  0.5237940000000  0.5712940000000 1.0
C      1  0.4749780000000  0.5121460000000  0.5123180000000 1.0
C      1  0.3793260000000  0.4885920000000  0.4593200000000 1.0
C      1  0.5632330000000  0.4926360000000  0.5310310000000 1.0
C      1  0.4148400000000  0.4289110000000  0.5244410000000 1.0
C      1  0.4613910000000  0.6225830000000  0.4465200000000 1.0
C      1  0.4275060000000  0.4440260000000  0.4785000000000 1.0
C      1  0.4460930000000  0.4619370000000  0.5466730000000 1.0
C      1  0.3562040000000  0.5302230000000  0.4409890000000 1.0
C      1  0.5523010000000  0.5256360000000  0.5844860000000 1.0
C      1  0.5543580000000  0.4009180000000  0.5275160000000 1.0
C      1  0.4685670000000  0.4661070000000  0.4673270000000 1.0
C      1  0.4754190000000  0.5655310000000  0.3982690000000 1.0
C      1  0.5673220000000  0.5091950000000  0.4252490000000 1.0
C      1  0.5542620000000  0.5368060000000  0.6101190000000 1.0
C      1  0.5854780000000  0.6241260000000  0.5494810000000 1.0
C      1  0.5086460000000  0.5479990000000  0.4361250000000 1.0
C      1  0.4481950000000  0.4874640000000  0.4800080000000 1.0
C      1  0.5667930000000  0.4520130000000  0.5107310000000 1.0
C      1  0.4667190000000  0.4061070000000  0.5318780000000 1.0
C      1  0.4958070000000  0.5356420000000  0.5458640000000 1.0
C      1  0.5196600000000  0.5020800000000  0.4425420000000 1.0
C      1  0.5710870000000  0.5330200000000  0.5639150000000 1.0
C      1  0.4906570000000  0.5186220000000  0.4024000000000 1.0
C      1  0.4707770000000  0.4123320000000  0.5576300000000 1.0
C      1  0.5843810000000  0.6024260000000  0.5638720000000 1.0
C      1  0.4045620000000  0.4506760000000  0.5906280000000 1.0
C      1  0.4797450000000  0.4043490000000  0.5067420000000 1.0
C      1  0.5368580000000  0.5455470000000  0.4381140000000 1.0
C      1  0.5440470000000  0.5176790000000  0.4382560000000 1.0
C      1  0.4863560000000  0.4207050000000  0.5796520000000 1.0
C      1  0.4476360000000  0.5173590000000  0.4740460000000 1.0
C      1  0.4217710000000  0.4459280000000  0.5454020000000 1.0
C      1  0.4016580000000  0.4571660000000  0.5630670000000 1.0
C      1  0.5177930000000  0.5313570000000  0.4998030000000 1.0
C      1  0.3851420000000  0.4923320000000  0.5331340000000 1.0
C      1  0.5748440000000  0.5789030000000  0.6055320000000 1.0
C      1  0.4996770000000  0.4695170000000  0.6035940000000 1.0
C      1  0.6824480000000  0.4418110000000  0.3097740000000 1.0
C      1  0.4255120000000  0.5449790000000  0.4215500000000 1.0
C      1  0.4640250000000  0.4664760000000  0.5253190000000 1.0
C      1  0.5833220000000  0.5789010000000  0.5787580000000 1.0
C      1  0.4927400000000  0.5208250000000  0.4900030000000 1.0
C      1  0.4553520000000  0.4394800000000  0.4720910000000 1.0
C      1  0.5003590000000  0.5200170000000  0.4291820000000 1.0
C      1  0.5630940000000  0.4475390000000  0.5396720000000 1.0
C      1  0.5622590000000  0.5605810000000  0.6226900000000 1.0
C      1  0.4162500000000  0.5665850000000  0.4373260000000 1.0
C      1  0.4220600000000  0.4999280000000  0.5648280000000 1.0
C      1  0.5625490000000  0.5008020000000  0.3983740000000 1.0
C      1  0.5180850000000  0.4597210000000  0.5844640000000 1.0
C      1  0.5876430000000  0.5272740000000  0.4655890000000 1.0
C      1  0.4969700000000  0.4669860000000  0.4726620000000 1.0
C      1  0.4428570000000  0.5321720000000  0.4055540000000 1.0
C      1  0.4443510000000  0.4817070000000  0.5683030000000 1.0
C      1  0.5197950000000  0.4975300000000  0.5325590000000 1.0
C      1  0.5192910000000  0.4834240000000  0.4643140000000 1.0
C      1  0.3657720000000  0.5550980000000  0.4404440000000 1.0
C      1  0.3627650000000  0.5050160000000  0.4465370000000 1.0
C      1  0.6625490000000  0.4515450000000  0.3243300000000 1.0
C      1  0.4685480000000  0.4170210000000  0.4837800000000 1.0
C      1  0.4233950000000  0.5525810000000  0.5754870000000 1.0
C      1  0.6028660000000  0.4807300000000  0.3679900000000 1.0
C      1  0.5119400000000  0.4330170000000  0.5745590000000 1.0
C      1  0.4218090000000  0.4723660000000  0.4782010000000 1.0
C      1  0.5552730000000  0.4217710000000  0.5472750000000 1.0
C      1  0.4230410000000  0.5271730000000  0.5697040000000 1.0
C      1  0.4539450000000  0.6189380000000  0.4730420000000 1.0
C      1  0.4595100000000  0.5715080000000  0.4880760000000 1.0
C      1  0.5182910000000  0.3937660000000  0.5348840000000 1.0
C      1  0.5903770000000  0.5538020000000  0.5671470000000 1.0
C      1  0.5830260000000  0.4904640000000  0.3825910000000 1.0
C      1  0.4786980000000  0.4142940000000  0.6051420000000 1.0
C      1  0.4486170000000  0.4723540000000  0.5951830000000 1.0
C      1  0.5683710000000  0.5369350000000  0.4818730000000 1.0
C      1  0.3984990000000  0.4853920000000  0.5566450000000 1.0
C      1  0.4148110000000  0.4280510000000  0.4976820000000 1.0
C      1  0.4263630000000  0.4578130000000  0.6053640000000 1.0
C      1  0.4912250000000  0.4580810000000  0.5224010000000 1.0
C      1  0.4344370000000  0.5852170000000  0.4482290000000 1.0
C      1  0.4520480000000  0.5524910000000  0.5099170000000 1.0
C      1  0.5898370000000  0.5147050000000  0.4415080000000 1.0
C      1  0.4555230000000  0.5984820000000  0.4313250000000 1.0
C      1  0.5598750000000  0.4795170000000  0.5045400000000 1.0
C      1  0.5581030000000  0.5655560000000  0.6496880000000 1.0
C      1  0.5660910000000  0.4301860000000  0.4929460000000 1.0
C      1  0.4888920000000  0.5662990000000  0.4439210000000 1.0
C      1  0.4432150000000  0.5920350000000  0.4765280000000 1.0
C      1  0.4974040000000  0.4963860000000  0.3598250000000 1.0
END
