TITL C-3201377-4638-47 -2.65310305833851e-07 125000 -18.9723641415037 0 0 4 (D(inf)h) n - 1
REM
REM in /home/nfs/bkarasulu/CARBON/AIRSS/Generating-Clusters/LCBOP/Higher-Symm/SD-CG/FIRE-CG
REM
REM
REM
REM
REM
REM ./C.cell (b20cbc046b6831c77cfcea5457e17084)
REM AIRSS Version 0.9.1 bugfix July 2018 build 013d7b7c2542+ Fri, 06 Jul 2018 19:26:36 +0100
REM compiler GCC version 9.2.1 20190827 (Red Hat 9.2.1-1)
REM options -cpp -mtune=generic -march=x86-64 -g -O0 -fpre-include=/usr/include/finclude/math-vector-fortran.h
REM seed -1888306280 -1473795624 104382728 583771449 759304541 -1441357984 958902710 -108616578 617355180 -39032624 891271598 1276097874 -1084649065 -2060450848 1902056137 -936007231 448964019 -865264579 912878362 1333978076 899040632 -1483923136 292386168 -1557858531 1159478591 443248404 2096101771 1278774975 -543378227 497830190 670235184 992469452 2058947599
REM
CELL 1.54180   50.00000   50.00000   50.00000   90.00000   90.00000   90.00000
LATT -1
SFAC C  
C      1  0.5001810000000  0.5393270000000  0.5010080000000 1.0
C      1  0.5001810000000  0.4606730000000  0.5010080000000 1.0
C      1  0.5001810000000  0.5132570000000  0.5010080000000 1.0
C      1  0.5001810000000  0.4867430000000  0.5010080000000 1.0
END
