TITL C-3201373-1215-459 -63.5924561130752 125000 -704.0716061706 0 0 117 (C1) n - 1
REM
REM in /home/nfs/bkarasulu/CARBON/AIRSS/Generating-Clusters/LCBOP/Higher-Symm/SD-CG/FIRE-CG
REM
REM
REM
REM
REM
REM ./C.cell (b20cbc046b6831c77cfcea5457e17084)
REM AIRSS Version 0.9.1 bugfix July 2018 build 013d7b7c2542+ Fri, 06 Jul 2018 19:26:36 +0100
REM compiler GCC version 9.2.1 20190827 (Red Hat 9.2.1-1)
REM options -cpp -mtune=generic -march=x86-64 -g -O0 -fpre-include=/usr/include/finclude/math-vector-fortran.h
REM seed -2041060530 -1106573973 1834285917 -446268770 1147053673 1685168125 1555266066 2100769682 2068550845 406737930 969117447 450862308 -1430869969 2137462604 -1301200757 -652412493 -1019325507 1991159140 1777096887 1342819650 -517177217 1080406065 1846115676 -334486135 -1038784732 -1492710793 -461175203 -1349865505 -1220524195 -462775643 -1986015216 -1176561923 -1919317880
REM
CELL 1.54180   50.00000   50.00000   50.00000   90.00000   90.00000   90.00000
LATT -1
SFAC C  
C      1  0.3954060000000  0.5242970000000  0.4940140000000 1.0
C      1  0.5500980000000  0.5215570000000  0.3998310000000 1.0
C      1  0.5606210000000  0.5244000000000  0.6001180000000 1.0
C      1  0.5386160000000  0.4402870000000  0.5398800000000 1.0
C      1  0.4458630000000  0.4385390000000  0.5151110000000 1.0
C      1  0.5176990000000  0.4326080000000  0.4503170000000 1.0
C      1  0.5080860000000  0.5600330000000  0.4524330000000 1.0
C      1  0.5301590000000  0.5581760000000  0.5340180000000 1.0
C      1  0.4808760000000  0.5560000000000  0.5218310000000 1.0
C      1  0.4757160000000  0.5137840000000  0.4070170000000 1.0
C      1  0.5897250000000  0.5238170000000  0.5209040000000 1.0
C      1  0.4299800000000  0.5142890000000  0.5664710000000 1.0
C      1  0.4804060000000  0.5549890000000  0.4925180000000 1.0
C      1  0.5239710000000  0.5561070000000  0.4773260000000 1.0
C      1  0.5031810000000  0.5514690000000  0.5391200000000 1.0
C      1  0.5763340000000  0.5044510000000  0.5369120000000 1.0
C      1  0.4319430000000  0.5090650000000  0.5391240000000 1.0
C      1  0.4902990000000  0.4914020000000  0.4152480000000 1.0
C      1  0.5017370000000  0.4752320000000  0.4351140000000 1.0
C      1  0.5519160000000  0.4899440000000  0.5400970000000 1.0
C      1  0.4406750000000  0.4907410000000  0.5198220000000 1.0
C      1  0.5438760000000  0.4333020000000  0.4621930000000 1.0
C      1  0.5144620000000  0.4362190000000  0.5557530000000 1.0
C      1  0.4456490000000  0.4295850000000  0.4876560000000 1.0
C      1  0.4907170000000  0.4660600000000  0.5001810000000 1.0
C      1  0.4667330000000  0.4727810000000  0.4859260000000 1.0
C      1  0.5132620000000  0.4724760000000  0.4841970000000 1.0
C      1  0.4572570000000  0.5631490000000  0.5343240000000 1.0
C      1  0.4952430000000  0.5569640000000  0.4291220000000 1.0
C      1  0.5567800000000  0.5600050000000  0.5318290000000 1.0
C      1  0.5593440000000  0.4887960000000  0.4964130000000 1.0
C      1  0.4857760000000  0.4847900000000  0.5512090000000 1.0
C      1  0.4465590000000  0.5000190000000  0.4514700000000 1.0
C      1  0.3938710000000  0.4785980000000  0.4740150000000 1.0
C      1  0.5736510000000  0.4800880000000  0.4118930000000 1.0
C      1  0.5315660000000  0.4889860000000  0.6048180000000 1.0
C      1  0.4817730000000  0.5322720000000  0.4727200000000 1.0
C      1  0.5287840000000  0.5320210000000  0.4936860000000 1.0
C      1  0.4992750000000  0.5314980000000  0.5589990000000 1.0
C      1  0.4312180000000  0.4630190000000  0.5222560000000 1.0
C      1  0.5134560000000  0.4504250000000  0.4279820000000 1.0
C      1  0.5550540000000  0.4623230000000  0.5483780000000 1.0
C      1  0.5300090000000  0.5637510000000  0.5907650000000 1.0
C      1  0.4209240000000  0.5677190000000  0.4838960000000 1.0
C      1  0.5526270000000  0.5669020000000  0.4304730000000 1.0
C      1  0.4083920000000  0.5270150000000  0.5772160000000 1.0
C      1  0.4853080000000  0.5397960000000  0.4112280000000 1.0
C      1  0.5810710000000  0.5501140000000  0.5263260000000 1.0
C      1  0.4575850000000  0.5164540000000  0.4728760000000 1.0
C      1  0.5504830000000  0.5150840000000  0.4875540000000 1.0
C      1  0.5061160000000  0.5045710000000  0.5538880000000 1.0
C      1  0.4435840000000  0.5821320000000  0.4803810000000 1.0
C      1  0.5515220000000  0.5833240000000  0.4532150000000 1.0
C      1  0.5282930000000  0.5853460000000  0.5740440000000 1.0
C      1  0.4717930000000  0.5812940000000  0.4835540000000 1.0
C      1  0.5369730000000  0.5824200000000  0.4791640000000 1.0
C      1  0.5267530000000  0.6003820000000  0.5511210000000 1.0
C      1  0.5886770000000  0.5345660000000  0.4711840000000 1.0
C      1  0.4639200000000  0.5193530000000  0.6039300000000 1.0
C      1  0.4367050000000  0.5073630000000  0.3787090000000 1.0
C      1  0.4545470000000  0.4734520000000  0.4598770000000 1.0
C      1  0.5391160000000  0.4700760000000  0.4942800000000 1.0
C      1  0.4890690000000  0.4654340000000  0.5296990000000 1.0
C      1  0.5454130000000  0.5397000000000  0.4218020000000 1.0
C      1  0.5343700000000  0.5377140000000  0.6017770000000 1.0
C      1  0.4003300000000  0.5485510000000  0.4798710000000 1.0
C      1  0.5268940000000  0.5026150000000  0.5345530000000 1.0
C      1  0.4597690000000  0.4997010000000  0.4989350000000 1.0
C      1  0.5083230000000  0.4873220000000  0.4597790000000 1.0
C      1  0.5898160000000  0.4290950000000  0.4611150000000 1.0
C      1  0.5214790000000  0.4198310000000  0.6012340000000 1.0
C      1  0.4250540000000  0.4128590000000  0.4497720000000 1.0
C      1  0.5244360000000  0.4517790000000  0.4017930000000 1.0
C      1  0.5731050000000  0.4593210000000  0.5700110000000 1.0
C      1  0.4034220000000  0.4629580000000  0.5287330000000 1.0
C      1  0.4514610000000  0.5053420000000  0.5820120000000 1.0
C      1  0.4480090000000  0.5095290000000  0.4034370000000 1.0
C      1  0.5974520000000  0.5161900000000  0.4939680000000 1.0
C      1  0.4208350000000  0.4320690000000  0.4709500000000 1.0
C      1  0.5686260000000  0.4447980000000  0.4485760000000 1.0
C      1  0.5163450000000  0.4416330000000  0.5843730000000 1.0
C      1  0.5133640000000  0.4675740000000  0.5965450000000 1.0
C      1  0.4035110000000  0.4539730000000  0.4692830000000 1.0
C      1  0.5743230000000  0.4710320000000  0.4384810000000 1.0
C      1  0.4946840000000  0.4220450000000  0.4639730000000 1.0
C      1  0.5432630000000  0.4263620000000  0.5153640000000 1.0
C      1  0.4652620000000  0.4269440000000  0.5331970000000 1.0
C      1  0.5269530000000  0.3997330000000  0.6168930000000 1.0
C      1  0.4512210000000  0.4041180000000  0.4493010000000 1.0
C      1  0.5808080000000  0.4164010000000  0.4839830000000 1.0
C      1  0.4698870000000  0.4833750000000  0.5750040000000 1.0
C      1  0.4331330000000  0.5071370000000  0.4276110000000 1.0
C      1  0.5865240000000  0.4888550000000  0.4851670000000 1.0
C      1  0.4872130000000  0.4798270000000  0.5985020000000 1.0
C      1  0.4064380000000  0.5153620000000  0.4267380000000 1.0
C      1  0.5784250000000  0.4917350000000  0.4568310000000 1.0
C      1  0.5135970000000  0.5157680000000  0.5117430000000 1.0
C      1  0.4856040000000  0.5108500000000  0.5102750000000 1.0
C      1  0.5103620000000  0.5160220000000  0.4577050000000 1.0
C      1  0.5526180000000  0.4220040000000  0.4889560000000 1.0
C      1  0.4900370000000  0.4388100000000  0.5408740000000 1.0
C      1  0.4673520000000  0.4171490000000  0.4699700000000 1.0
C      1  0.5342170000000  0.4735100000000  0.3883350000000 1.0
C      1  0.5763800000000  0.4756820000000  0.5912010000000 1.0
C      1  0.3863140000000  0.4823830000000  0.5201070000000 1.0
C      1  0.4924470000000  0.6009050000000  0.4873650000000 1.0
C      1  0.5203710000000  0.5998820000000  0.4961540000000 1.0
C      1  0.5256040000000  0.6053210000000  0.5241450000000 1.0
C      1  0.3894240000000  0.4965480000000  0.4955540000000 1.0
C      1  0.5534010000000  0.4929050000000  0.3966230000000 1.0
C      1  0.5593920000000  0.4955070000000  0.6010180000000 1.0
C      1  0.5373950000000  0.5243320000000  0.4449530000000 1.0
C      1  0.5166230000000  0.5151220000000  0.6094810000000 1.0
C      1  0.3865710000000  0.5500580000000  0.4552000000000 1.0
C      1  0.5633130000000  0.5191780000000  0.4602340000000 1.0
C      1  0.4889630000000  0.5074250000000  0.6110880000000 1.0
C      1  0.3887930000000  0.5340530000000  0.4338240000000 1.0
END
