TITL C-3201374-830-370 -9.27854436506276e-07 125000 -767.20146797954 0 0 124 (C1) n - 1
REM
REM in /home/nfs/bkarasulu/CARBON/AIRSS/Generating-Clusters/LCBOP/Higher-Symm/SD-CG/FIRE-CG
REM
REM
REM
REM
REM
REM ./C.cell (b20cbc046b6831c77cfcea5457e17084)
REM AIRSS Version 0.9.1 bugfix July 2018 build 013d7b7c2542+ Fri, 06 Jul 2018 19:26:36 +0100
REM compiler GCC version 9.2.1 20190827 (Red Hat 9.2.1-1)
REM options -cpp -mtune=generic -march=x86-64 -g -O0 -fpre-include=/usr/include/finclude/math-vector-fortran.h
REM seed -524951056 -552048402 -976114112 106950956 -1074835017 1903135324 1984674759 54741779 1374379015 -1596464513 -2100250727 1410569726 -47533224 634003013 1166691790 -1350296956 707192569 -1551679973 -2010676858 164254937 -964049556 -273963023 -1449626098 -1559415854 888187041 559456009 1786804116 1466138015 -1174780318 -1875451775 -758246968 -1674981235 1652286015
REM
CELL 1.54180   50.00000   50.00000   50.00000   90.00000   90.00000   90.00000
LATT -1
SFAC C  
C      1  0.4833840000000  0.5816300000000  0.4577920000000 1.0
C      1  0.4825920000000  0.4193460000000  0.5418480000000 1.0
C      1  0.4835780000000  0.4188450000000  0.4579520000000 1.0
C      1  0.4822210000000  0.5812630000000  0.5420450000000 1.0
C      1  0.4955450000000  0.4769450000000  0.5730150000000 1.0
C      1  0.4940980000000  0.5241530000000  0.4258750000000 1.0
C      1  0.4954770000000  0.5232910000000  0.5730580000000 1.0
C      1  0.4941090000000  0.4759280000000  0.4259550000000 1.0
C      1  0.4046780000000  0.4651930000000  0.4862370000000 1.0
C      1  0.4049240000000  0.5352700000000  0.5134100000000 1.0
C      1  0.4046630000000  0.5349600000000  0.4862020000000 1.0
C      1  0.4049590000000  0.4648430000000  0.5134450000000 1.0
C      1  0.5007350000000  0.5890700000000  0.5635790000000 1.0
C      1  0.5018400000000  0.4108800000000  0.4366110000000 1.0
C      1  0.5009290000000  0.4113250000000  0.5634280000000 1.0
C      1  0.5019110000000  0.5892760000000  0.4365380000000 1.0
C      1  0.4282480000000  0.5315430000000  0.4731340000000 1.0
C      1  0.4287990000000  0.4679740000000  0.5261180000000 1.0
C      1  0.4282410000000  0.4687200000000  0.4731600000000 1.0
C      1  0.4287670000000  0.5322170000000  0.5260970000000 1.0
C      1  0.4248570000000  0.4023350000000  0.5134270000000 1.0
C      1  0.4250900000000  0.5977650000000  0.4867560000000 1.0
C      1  0.4245590000000  0.5976160000000  0.5133500000000 1.0
C      1  0.4253160000000  0.4021870000000  0.4868360000000 1.0
C      1  0.5284020000000  0.6000140000000  0.5610030000000 1.0
C      1  0.5298530000000  0.4016120000000  0.4401950000000 1.0
C      1  0.5284100000000  0.4000210000000  0.5609220000000 1.0
C      1  0.5300830000000  0.5981210000000  0.4402360000000 1.0
C      1  0.5224840000000  0.5692170000000  0.5219900000000 1.0
C      1  0.5251240000000  0.4320810000000  0.4785280000000 1.0
C      1  0.5231470000000  0.4311480000000  0.5218840000000 1.0
C      1  0.5244610000000  0.5680550000000  0.4786450000000 1.0
C      1  0.5472820000000  0.4189310000000  0.5738520000000 1.0
C      1  0.5475610000000  0.5788920000000  0.4258220000000 1.0
C      1  0.5470070000000  0.5808810000000  0.5739730000000 1.0
C      1  0.5475860000000  0.4205630000000  0.4257050000000 1.0
C      1  0.5609580000000  0.5353280000000  0.4744150000000 1.0
C      1  0.5619440000000  0.4620780000000  0.5276380000000 1.0
C      1  0.5622950000000  0.4636820000000  0.4737240000000 1.0
C      1  0.5607830000000  0.5371280000000  0.5274420000000 1.0
C      1  0.5037530000000  0.5726900000000  0.5875000000000 1.0
C      1  0.5041730000000  0.4263620000000  0.4120110000000 1.0
C      1  0.5041210000000  0.4277320000000  0.5872750000000 1.0
C      1  0.5041190000000  0.5738310000000  0.4118780000000 1.0
C      1  0.4925380000000  0.5274920000000  0.4538010000000 1.0
C      1  0.4946090000000  0.4796720000000  0.5452520000000 1.0
C      1  0.4925850000000  0.4727470000000  0.4539080000000 1.0
C      1  0.4945480000000  0.5206050000000  0.5453000000000 1.0
C      1  0.4751690000000  0.4855610000000  0.5266270000000 1.0
C      1  0.4751670000000  0.5144940000000  0.4716890000000 1.0
C      1  0.4751460000000  0.5147110000000  0.5266410000000 1.0
C      1  0.4751730000000  0.4857910000000  0.4717190000000 1.0
C      1  0.5366620000000  0.4054770000000  0.5150970000000 1.0
C      1  0.5448940000000  0.5914940000000  0.4865710000000 1.0
C      1  0.5366010000000  0.5944890000000  0.5151810000000 1.0
C      1  0.5449560000000  0.4081520000000  0.4864770000000 1.0
C      1  0.5392290000000  0.3895390000000  0.4640250000000 1.0
C      1  0.5367540000000  0.6119970000000  0.5368920000000 1.0
C      1  0.5396490000000  0.6101390000000  0.4640230000000 1.0
C      1  0.5365260000000  0.3879490000000  0.5367900000000 1.0
C      1  0.5358870000000  0.4644500000000  0.5954120000000 1.0
C      1  0.5342850000000  0.5352330000000  0.4032600000000 1.0
C      1  0.5354850000000  0.5358230000000  0.5959030000000 1.0
C      1  0.5344870000000  0.4647530000000  0.4036470000000 1.0
C      1  0.5196790000000  0.5144990000000  0.5868000000000 1.0
C      1  0.5182440000000  0.4856490000000  0.4131450000000 1.0
C      1  0.5197870000000  0.4857410000000  0.5867080000000 1.0
C      1  0.5182020000000  0.5143680000000  0.4130500000000 1.0
C      1  0.4457580000000  0.4701140000000  0.4192120000000 1.0
C      1  0.4468840000000  0.5299620000000  0.5813640000000 1.0
C      1  0.4457660000000  0.5300080000000  0.4191340000000 1.0
C      1  0.4469670000000  0.4702290000000  0.5813230000000 1.0
C      1  0.5312360000000  0.5632470000000  0.5911180000000 1.0
C      1  0.5311200000000  0.4371150000000  0.4081770000000 1.0
C      1  0.5316960000000  0.4369840000000  0.5907710000000 1.0
C      1  0.5309560000000  0.5628330000000  0.4080000000000 1.0
C      1  0.4695140000000  0.5146010000000  0.4145810000000 1.0
C      1  0.4708680000000  0.4853730000000  0.5854440000000 1.0
C      1  0.4695210000000  0.4854730000000  0.4146230000000 1.0
C      1  0.4708070000000  0.5148470000000  0.5854680000000 1.0
C      1  0.5705270000000  0.4267120000000  0.5596780000000 1.0
C      1  0.5702900000000  0.5682550000000  0.4388320000000 1.0
C      1  0.5699470000000  0.5723300000000  0.5597600000000 1.0
C      1  0.5707780000000  0.4303930000000  0.4385230000000 1.0
C      1  0.4235710000000  0.5137130000000  0.5831500000000 1.0
C      1  0.4223890000000  0.4863890000000  0.4180020000000 1.0
C      1  0.4236170000000  0.4864180000000  0.5831410000000 1.0
C      1  0.4223870000000  0.5137430000000  0.4179730000000 1.0
C      1  0.4563160000000  0.4245780000000  0.4503530000000 1.0
C      1  0.4551940000000  0.5754240000000  0.5499680000000 1.0
C      1  0.4561740000000  0.5757280000000  0.4501190000000 1.0
C      1  0.4555160000000  0.4249530000000  0.5497680000000 1.0
C      1  0.4487000000000  0.5555990000000  0.5693690000000 1.0
C      1  0.4486810000000  0.4443770000000  0.4311210000000 1.0
C      1  0.4488700000000  0.4446490000000  0.5692410000000 1.0
C      1  0.4486790000000  0.5558070000000  0.4309430000000 1.0
C      1  0.5769780000000  0.4384740000000  0.5346820000000 1.0
C      1  0.5744770000000  0.5591440000000  0.4653020000000 1.0
C      1  0.5762500000000  0.5603920000000  0.5348330000000 1.0
C      1  0.5752650000000  0.4394880000000  0.4649630000000 1.0
C      1  0.4537300000000  0.4731120000000  0.4850390000000 1.0
C      1  0.4540230000000  0.5275990000000  0.5138060000000 1.0
C      1  0.4537380000000  0.5271830000000  0.4850240000000 1.0
C      1  0.4540350000000  0.4726650000000  0.5138170000000 1.0
C      1  0.5723630000000  0.5138160000000  0.5164780000000 1.0
C      1  0.5750890000000  0.4867810000000  0.4814550000000 1.0
C      1  0.5731420000000  0.4867610000000  0.5220330000000 1.0
C      1  0.5736160000000  0.5136600000000  0.4869510000000 1.0
C      1  0.5371000000000  0.4575400000000  0.4860620000000 1.0
C      1  0.5356250000000  0.5444710000000  0.5156080000000 1.0
C      1  0.5355410000000  0.5423770000000  0.4861980000000 1.0
C      1  0.5370160000000  0.4555110000000  0.5152660000000 1.0
C      1  0.5734310000000  0.4195390000000  0.4860450000000 1.0
C      1  0.5852810000000  0.5752410000000  0.5119310000000 1.0
C      1  0.5730910000000  0.5793690000000  0.4862270000000 1.0
C      1  0.5856810000000  0.4236020000000  0.5117110000000 1.0
C      1  0.4937940000000  0.5744920000000  0.5152880000000 1.0
C      1  0.4960840000000  0.4255670000000  0.4838400000000 1.0
C      1  0.4943490000000  0.4262630000000  0.5152110000000 1.0
C      1  0.4955620000000  0.5751180000000  0.4839130000000 1.0
C      1  0.4353280000000  0.4108770000000  0.5363350000000 1.0
C      1  0.4360990000000  0.5896720000000  0.4639430000000 1.0
C      1  0.4349200000000  0.5892360000000  0.5363740000000 1.0
C      1  0.4363360000000  0.4104310000000  0.4640870000000 1.0
END
