TITL C-3201375-1262-867 35853.2930841365 125000 -936.599253994565 0 0 157 (C2v) n - 1
REM
REM in /home/nfs/bkarasulu/CARBON/AIRSS/Generating-Clusters/LCBOP/Higher-Symm/SD-CG/FIRE-CG
REM
REM
REM
REM
REM
REM ./C.cell (b20cbc046b6831c77cfcea5457e17084)
REM AIRSS Version 0.9.1 bugfix July 2018 build 013d7b7c2542+ Fri, 06 Jul 2018 19:26:36 +0100
REM compiler GCC version 9.2.1 20190827 (Red Hat 9.2.1-1)
REM options -cpp -mtune=generic -march=x86-64 -g -O0 -fpre-include=/usr/include/finclude/math-vector-fortran.h
REM seed -1637353918 -2005572946 1070604526 -632459919 380495056 -1518512287 -777391085 -165525668 1930350108 -465594421 -1559397463 -358040012 -1500542968 1049939314 1059605563 1681948882 1932467851 -265029593 -139781411 1840391581 646939390 1117610267 -1195305592 768653358 -93349837 413214366 1176589446 -2140878282 614028516 838695043 -966408322 -463309041 -929147472
REM
CELL 1.54180   50.00000   50.00000   50.00000   90.00000   90.00000   90.00000
LATT -1
SFAC C  
C      1  0.5673570000000  0.4473560000000  0.5521340000000 1.0
C      1  0.4314550000000  0.4498020000000  0.4481330000000 1.0
C      1  0.5673720000000  0.5525140000000  0.5521410000000 1.0
C      1  0.4314580000000  0.5500900000000  0.4481350000000 1.0
C      1  0.4315000000000  0.4498000000000  0.5520800000000 1.0
C      1  0.5673130000000  0.4473580000000  0.4479570000000 1.0
C      1  0.4314990000000  0.5500860000000  0.5520800000000 1.0
C      1  0.5673300000000  0.5525160000000  0.4479640000000 1.0
C      1  0.5621250000000  0.5891930000000  0.5149900000000 1.0
C      1  0.4358260000000  0.5869710000000  0.4853560000000 1.0
C      1  0.5621060000000  0.4106740000000  0.5149830000000 1.0
C      1  0.4358220000000  0.4129130000000  0.4853510000000 1.0
C      1  0.4358380000000  0.5869690000000  0.5148580000000 1.0
C      1  0.5621140000000  0.5891930000000  0.4851220000000 1.0
C      1  0.4358350000000  0.4129130000000  0.5148560000000 1.0
C      1  0.5620930000000  0.4106750000000  0.4851120000000 1.0
C      1  0.5603870000000  0.5278370000000  0.5661470000000 1.0
C      1  0.4392260000000  0.5276520000000  0.4313560000000 1.0
C      1  0.5603820000000  0.4720370000000  0.5661420000000 1.0
C      1  0.4392210000000  0.4722440000000  0.4313560000000 1.0
C      1  0.4392830000000  0.5276480000000  0.5688530000000 1.0
C      1  0.5603320000000  0.5278410000000  0.4339610000000 1.0
C      1  0.4392810000000  0.4722410000000  0.5688510000000 1.0
C      1  0.5603250000000  0.4720390000000  0.4339570000000 1.0
C      1  0.4857340000000  0.5255250000000  0.4217650000000 1.0
C      1  0.5145730000000  0.5254040000000  0.5769830000000 1.0
C      1  0.4857280000000  0.4743690000000  0.4217640000000 1.0
C      1  0.5145700000000  0.4744790000000  0.5769790000000 1.0
C      1  0.5145090000000  0.5254110000000  0.4231630000000 1.0
C      1  0.4857990000000  0.5255210000000  0.5784050000000 1.0
C      1  0.5145030000000  0.4744850000000  0.4231600000000 1.0
C      1  0.4857960000000  0.4743660000000  0.5784020000000 1.0
C      1  0.4854610000000  0.4026020000000  0.4763030000000 1.0
C      1  0.5128140000000  0.4024060000000  0.5237950000000 1.0
C      1  0.4854730000000  0.5972960000000  0.4763060000000 1.0
C      1  0.5128240000000  0.5974880000000  0.5238040000000 1.0
C      1  0.5127910000000  0.4024050000000  0.4763440000000 1.0
C      1  0.4854840000000  0.4026020000000  0.5238620000000 1.0
C      1  0.5128030000000  0.5974910000000  0.4763480000000 1.0
C      1  0.4854930000000  0.5972940000000  0.5238690000000 1.0
C      1  0.3963640000000  0.4599530000000  0.4857450000000 1.0
C      1  0.6047810000000  0.4560810000000  0.5145480000000 1.0
C      1  0.3963640000000  0.5399050000000  0.4857440000000 1.0
C      1  0.6047980000000  0.5437470000000  0.5145560000000 1.0
C      1  0.6047700000000  0.4560830000000  0.4855130000000 1.0
C      1  0.3963760000000  0.4599530000000  0.5144980000000 1.0
C      1  0.6047870000000  0.5437480000000  0.4855200000000 1.0
C      1  0.3963750000000  0.5399040000000  0.5144990000000 1.0
C      1  0.3586780000000  0.5132720000000  0.4623710000000 1.0
C      1  0.6405350000000  0.5132320000000  0.5366670000000 1.0
C      1  0.3586720000000  0.4865630000000  0.4623700000000 1.0
C      1  0.6405370000000  0.4865550000000  0.5366660000000 1.0
C      1  0.6405130000000  0.5132380000000  0.4633850000000 1.0
C      1  0.3587040000000  0.5132710000000  0.5378960000000 1.0
C      1  0.6405130000000  0.4865610000000  0.4633810000000 1.0
C      1  0.3586990000000  0.4865630000000  0.5378980000000 1.0
C      1  0.6275520000000  0.4647380000000  0.5284480000000 1.0
C      1  0.3730760000000  0.4659910000000  0.4714290000000 1.0
C      1  0.6275570000000  0.5350550000000  0.5284550000000 1.0
C      1  0.3730830000000  0.5338430000000  0.4714280000000 1.0
C      1  0.3730990000000  0.4659910000000  0.5288320000000 1.0
C      1  0.6275300000000  0.4647430000000  0.4715980000000 1.0
C      1  0.3731040000000  0.5338420000000  0.5288310000000 1.0
C      1  0.6275370000000  0.5350590000000  0.4716050000000 1.0
C      1  0.4334890000000  0.4852950000000  0.4060210000000 1.0
C      1  0.5675340000000  0.4853590000000  0.5909140000000 1.0
C      1  0.4334920000000  0.5146020000000  0.4060210000000 1.0
C      1  0.5675350000000  0.5145090000000  0.5909170000000 1.0
C      1  0.5674550000000  0.4853660000000  0.4091810000000 1.0
C      1  0.4335710000000  0.4852910000000  0.5941920000000 1.0
C      1  0.5674570000000  0.5145170000000  0.4091830000000 1.0
C      1  0.4335720000000  0.5145980000000  0.5941930000000 1.0
C      1  0.4762670000000  0.4283260000000  0.5140800000000 1.0
C      1  0.5224530000000  0.4279770000000  0.4861150000000 1.0
C      1  0.4762760000000  0.5715720000000  0.5140830000000 1.0
C      1  0.5224620000000  0.5719180000000  0.4861210000000 1.0
C      1  0.5224660000000  0.4279780000000  0.5140140000000 1.0
C      1  0.4762540000000  0.4283260000000  0.4860940000000 1.0
C      1  0.5224740000000  0.5719160000000  0.5140200000000 1.0
C      1  0.4762640000000  0.5715730000000  0.4860970000000 1.0
C      1  0.5512820000000  0.4730130000000  0.3889910000000 1.0
C      1  0.4506100000000  0.4729700000000  0.6137020000000 1.0
C      1  0.5512880000000  0.5268770000000  0.3889950000000 1.0
C      1  0.4506130000000  0.5269160000000  0.6137040000000 1.0
C      1  0.4505100000000  0.4729740000000  0.3864960000000 1.0
C      1  0.5513790000000  0.4730020000000  0.6111150000000 1.0
C      1  0.4505170000000  0.5269200000000  0.3864960000000 1.0
C      1  0.5513810000000  0.5268660000000  0.6111200000000 1.0
C      1  0.4215060000000  0.4610330000000  0.5272820000000 1.0
C      1  0.5796490000000  0.4567250000000  0.4724350000000 1.0
C      1  0.4215080000000  0.5388500000000  0.5272830000000 1.0
C      1  0.5796640000000  0.5431420000000  0.4724410000000 1.0
C      1  0.5796710000000  0.4567250000000  0.5276460000000 1.0
C      1  0.4214840000000  0.4610330000000  0.4729400000000 1.0
C      1  0.5796860000000  0.5431410000000  0.5276530000000 1.0
C      1  0.4214870000000  0.5388530000000  0.4729410000000 1.0
C      1  0.4656820000000  0.4848400000000  0.4420390000000 1.0
C      1  0.5341880000000  0.4847450000000  0.5552230000000 1.0
C      1  0.4656850000000  0.5150560000000  0.4420390000000 1.0
C      1  0.5341900000000  0.5151390000000  0.5552260000000 1.0
C      1  0.5341410000000  0.4847470000000  0.4449000000000 1.0
C      1  0.4657320000000  0.4848380000000  0.5581460000000 1.0
C      1  0.5341440000000  0.5151420000000  0.4449020000000 1.0
C      1  0.4657340000000  0.5150540000000  0.5581470000000 1.0
C      1  0.5585290000000  0.4699370000000  0.5140300000000 1.0
C      1  0.4437950000000  0.4737630000000  0.4861140000000 1.0
C      1  0.5585310000000  0.5299490000000  0.5140350000000 1.0
C      1  0.4438030000000  0.5261310000000  0.4861150000000 1.0
C      1  0.4438070000000  0.4737620000000  0.5140890000000 1.0
C      1  0.5585160000000  0.4699350000000  0.4860700000000 1.0
C      1  0.4438140000000  0.5261300000000  0.5140900000000 1.0
C      1  0.5585200000000  0.5299500000000  0.4860760000000 1.0
C      1  0.5244380000000  0.5321740000000  0.3956540000000 1.0
C      1  0.4772470000000  0.5322170000000  0.6062070000000 1.0
C      1  0.5244310000000  0.4677220000000  0.3956500000000 1.0
C      1  0.4772440000000  0.4676680000000  0.6062030000000 1.0
C      1  0.4771580000000  0.5322210000000  0.3939710000000 1.0
C      1  0.5245260000000  0.5321640000000  0.6044840000000 1.0
C      1  0.4771510000000  0.4676720000000  0.3939700000000 1.0
C      1  0.5245220000000  0.4677120000000  0.6044790000000 1.0
C      1  0.5135970000000  0.5468450000000  0.5246780000000 1.0
C      1  0.4856280000000  0.5467440000000  0.4748170000000 1.0
C      1  0.5135910000000  0.4530480000000  0.5246740000000 1.0
C      1  0.4856210000000  0.4531530000000  0.4748140000000 1.0
C      1  0.4856490000000  0.5467420000000  0.5253530000000 1.0
C      1  0.5135770000000  0.5468490000000  0.4754680000000 1.0
C      1  0.4856440000000  0.4531530000000  0.5253510000000 1.0
C      1  0.5135690000000  0.4530450000000  0.4754620000000 1.0
C      1  0.5315550000000  0.5238410000000  0.5258770000000 1.0
C      1  0.4676170000000  0.5260070000000  0.4699740000000 1.0
C      1  0.5315520000000  0.4760500000000  0.5258710000000 1.0
C      1  0.4676100000000  0.4738900000000  0.4699740000000 1.0
C      1  0.4676410000000  0.5260050000000  0.5302100000000 1.0
C      1  0.5315320000000  0.5238430000000  0.4742550000000 1.0
C      1  0.4676360000000  0.4738890000000  0.5302080000000 1.0
C      1  0.5315290000000  0.4760470000000  0.4742510000000 1.0
C      1  0.5500670000000  0.4239130000000  0.4529370000000 1.0
C      1  0.4480160000000  0.4255330000000  0.5469170000000 1.0
C      1  0.5500830000000  0.5759610000000  0.4529470000000 1.0
C      1  0.4480200000000  0.5743510000000  0.5469170000000 1.0
C      1  0.4479750000000  0.4255330000000  0.4532810000000 1.0
C      1  0.5501070000000  0.4239120000000  0.5471690000000 1.0
C      1  0.4479830000000  0.5743550000000  0.4532850000000 1.0
C      1  0.5501200000000  0.5759590000000  0.5471730000000 1.0
C      1  0.5167710000000  0.4230040000000  0.5616510000000 1.0
C      1  0.4811670000000  0.4234190000000  0.4385980000000 1.0
C      1  0.5167810000000  0.5768720000000  0.5616510000000 1.0
C      1  0.4811790000000  0.5764670000000  0.4386060000000 1.0
C      1  0.4812200000000  0.4234190000000  0.5615710000000 1.0
C      1  0.5167180000000  0.4230050000000  0.4384850000000 1.0
C      1  0.4812280000000  0.5764620000000  0.5615700000000 1.0
C      1  0.5167320000000  0.5768770000000  0.4384960000000 1.0
C      1  0.5013240000000  0.4626160000000  0.3795750000000 1.0
C      1  0.5013320000000  0.5372790000000  0.3795770000000 1.0
C      1  0.5014300000000  0.4626080000000  0.6205760000000 1.0
C      1  0.5014340000000  0.5372710000000  0.6205800000000 1.0
C      1  0.5221390000000  0.4999450000000  0.5000600000000 1.0
END
