TITL C-3201375-1262-463 0.0427107283002535 125000 -537.400332282696 0 0 92 (C1) n - 1
REM
REM in /home/nfs/bkarasulu/CARBON/AIRSS/Generating-Clusters/LCBOP/Higher-Symm/SD-CG/FIRE-CG
REM
REM
REM
REM
REM
REM ./C.cell (b20cbc046b6831c77cfcea5457e17084)
REM AIRSS Version 0.9.1 bugfix July 2018 build 013d7b7c2542+ Fri, 06 Jul 2018 19:26:36 +0100
REM compiler GCC version 9.2.1 20190827 (Red Hat 9.2.1-1)
REM options -cpp -mtune=generic -march=x86-64 -g -O0 -fpre-include=/usr/include/finclude/math-vector-fortran.h
REM seed 562649270 1067829867 -435886400 344517549 -909625495 -1299023699 -981361942 486703013 -592948672 -1905591626 321658367 -1628906093 613488477 1989129516 -1246127354 2001053642 194421928 730018639 -48781703 305063698 -1764983979 2049211177 -900597696 -22170651 -1571141137 -1680979443 -1607247806 1550827563 -2034176326 46408642 54856752 -1588085711 1275379916
REM
CELL 1.54180   50.00000   50.00000   50.00000   90.00000   90.00000   90.00000
LATT -1
SFAC C  
C      1  0.4258110000000  0.4725260000000  0.4613110000000 1.0
C      1  0.5624160000000  0.4482690000000  0.4620470000000 1.0
C      1  0.5131580000000  0.5790770000000  0.4623790000000 1.0
C      1  0.5762950000000  0.4714810000000  0.5365420000000 1.0
C      1  0.4388620000000  0.4520010000000  0.5377450000000 1.0
C      1  0.4859830000000  0.5792090000000  0.5368530000000 1.0
C      1  0.5362390000000  0.5773160000000  0.5532950000000 1.0
C      1  0.4185600000000  0.4937740000000  0.5474950000000 1.0
C      1  0.5489710000000  0.4293870000000  0.5530790000000 1.0
C      1  0.4629750000000  0.5762590000000  0.4462780000000 1.0
C      1  0.5844430000000  0.4933820000000  0.4458860000000 1.0
C      1  0.4493600000000  0.4304330000000  0.4467430000000 1.0
C      1  0.5237760000000  0.4537760000000  0.4944110000000 1.0
C      1  0.5283170000000  0.5430700000000  0.4950370000000 1.0
C      1  0.4530010000000  0.5042650000000  0.4907490000000 1.0
C      1  0.4785720000000  0.4543260000000  0.5043880000000 1.0
C      1  0.4719760000000  0.5423490000000  0.5051210000000 1.0
C      1  0.5505870000000  0.5022310000000  0.5048530000000 1.0
C      1  0.5579320000000  0.4752680000000  0.4408980000000 1.0
C      1  0.4917620000000  0.5623510000000  0.4411160000000 1.0
C      1  0.4479370000000  0.4617630000000  0.4416130000000 1.0
C      1  0.4424540000000  0.4760920000000  0.5570530000000 1.0
C      1  0.5076740000000  0.5625760000000  0.5581410000000 1.0
C      1  0.5506950000000  0.4616130000000  0.5578670000000 1.0
C      1  0.4747710000000  0.5003410000000  0.4742880000000 1.0
C      1  0.5161570000000  0.4762610000000  0.4799280000000 1.0
C      1  0.5138780000000  0.5249330000000  0.4801430000000 1.0
C      1  0.5269510000000  0.4964660000000  0.5186360000000 1.0
C      1  0.4796080000000  0.4788720000000  0.5182110000000 1.0
C      1  0.4888740000000  0.5251810000000  0.5190070000000 1.0
C      1  0.4094800000000  0.4960140000000  0.4680260000000 1.0
C      1  0.5492170000000  0.4222260000000  0.4684570000000 1.0
C      1  0.5423970000000  0.5804700000000  0.4688820000000 1.0
C      1  0.5916180000000  0.4961950000000  0.5302220000000 1.0
C      1  0.4508530000000  0.4251990000000  0.5307530000000 1.0
C      1  0.4567630000000  0.5798820000000  0.5304630000000 1.0
C      1  0.5897900000000  0.5001270000000  0.4746860000000 1.0
C      1  0.4544130000000  0.5771950000000  0.4750490000000 1.0
C      1  0.4532180000000  0.4227290000000  0.4754720000000 1.0
C      1  0.4030110000000  0.4980470000000  0.5242190000000 1.0
C      1  0.5447170000000  0.5786000000000  0.5245030000000 1.0
C      1  0.5459600000000  0.4213910000000  0.5242610000000 1.0
C      1  0.4904190000000  0.4421120000000  0.5580360000000 1.0
C      1  0.5555060000000  0.5201880000000  0.5579920000000 1.0
C      1  0.4547230000000  0.5372200000000  0.5585760000000 1.0
C      1  0.5094720000000  0.4412890000000  0.4416750000000 1.0
C      1  0.4438080000000  0.5210670000000  0.4406440000000 1.0
C      1  0.5451390000000  0.5371460000000  0.4415980000000 1.0
C      1  0.5522790000000  0.5912060000000  0.4975530000000 1.0
C      1  0.3981090000000  0.4964650000000  0.4965040000000 1.0
C      1  0.5534800000000  0.4085260000000  0.4973290000000 1.0
C      1  0.4466410000000  0.5899130000000  0.5018160000000 1.0
C      1  0.6050290000000  0.4999880000000  0.5013680000000 1.0
C      1  0.4453780000000  0.4110610000000  0.5026130000000 1.0
C      1  0.4950260000000  0.5309780000000  0.4332910000000 1.0
C      1  0.4742390000000  0.4799690000000  0.4331520000000 1.0
C      1  0.5287070000000  0.4879580000000  0.4335680000000 1.0
C      1  0.5047450000000  0.5309570000000  0.5651610000000 1.0
C      1  0.5249000000000  0.4804130000000  0.5649240000000 1.0
C      1  0.4710970000000  0.4884210000000  0.5653470000000 1.0
C      1  0.4240070000000  0.5210660000000  0.4621730000000 1.0
C      1  0.5198250000000  0.4235060000000  0.4622360000000 1.0
C      1  0.5559640000000  0.5543410000000  0.4624270000000 1.0
C      1  0.5754830000000  0.5203950000000  0.5371480000000 1.0
C      1  0.4802970000000  0.4247880000000  0.5372600000000 1.0
C      1  0.4438130000000  0.5537250000000  0.5375190000000 1.0
C      1  0.4707170000000  0.5113640000000  0.4324310000000 1.0
C      1  0.5037390000000  0.4691970000000  0.4336790000000 1.0
C      1  0.5235590000000  0.5186410000000  0.4335430000000 1.0
C      1  0.5285220000000  0.5111310000000  0.5650520000000 1.0
C      1  0.4958740000000  0.4699660000000  0.5651450000000 1.0
C      1  0.4763730000000  0.5187450000000  0.5655910000000 1.0
C      1  0.4596260000000  0.4492090000000  0.4848380000000 1.0
C      1  0.5649010000000  0.4894720000000  0.4848430000000 1.0
C      1  0.4760210000000  0.5608750000000  0.4850960000000 1.0
C      1  0.5421270000000  0.4482190000000  0.5142680000000 1.0
C      1  0.4528880000000  0.4889510000000  0.5138890000000 1.0
C      1  0.5235240000000  0.5617440000000  0.5145330000000 1.0
C      1  0.5653660000000  0.5269880000000  0.5110080000000 1.0
C      1  0.4432070000000  0.5412650000000  0.5114100000000 1.0
C      1  0.4918360000000  0.4292830000000  0.5109660000000 1.0
C      1  0.4347170000000  0.5265460000000  0.4887010000000 1.0
C      1  0.5569030000000  0.5426900000000  0.4890940000000 1.0
C      1  0.5097270000000  0.4284330000000  0.4889200000000 1.0
C      1  0.5022700000000  0.5806540000000  0.5134430000000 1.0
C      1  0.4327810000000  0.4675360000000  0.5136780000000 1.0
C      1  0.5692490000000  0.4568500000000  0.5131370000000 1.0
C      1  0.4968320000000  0.5803260000000  0.4858130000000 1.0
C      1  0.5716220000000  0.4617550000000  0.4854850000000 1.0
C      1  0.4333230000000  0.4604310000000  0.4865610000000 1.0
C      1  0.5024140000000  0.5001380000000  0.4753720000000 1.0
C      1  0.4991890000000  0.4990380000000  0.5215920000000 1.0
END
