TITL C-3201373-1215-2263 -1.12969858796911e-07 125000 -357.356403221504 0 0 59 (C1) n - 1
REM
REM in /home/nfs/bkarasulu/CARBON/AIRSS/Generating-Clusters/LCBOP/Higher-Symm/SD-CG/FIRE-CG
REM
REM
REM
REM
REM
REM ./C.cell (b20cbc046b6831c77cfcea5457e17084)
REM AIRSS Version 0.9.1 bugfix July 2018 build 013d7b7c2542+ Fri, 06 Jul 2018 19:26:36 +0100
REM compiler GCC version 9.2.1 20190827 (Red Hat 9.2.1-1)
REM options -cpp -mtune=generic -march=x86-64 -g -O0 -fpre-include=/usr/include/finclude/math-vector-fortran.h
REM seed -910917789 1300135990 -1575281696 1331838869 918731899 1814989624 -1323327298 1468723505 -1807818533 1504173891 292267893 92911615 979693248 -447093355 -1104240460 -762358376 1868064158 563015357 -1377207818 1326426139 -1957794322 1779810602 2135090753 -1546747362 -1967134581 2137462028 -1688489891 418450127 -1871692568 547089384 -2040238105 -56353712 224180399
REM
CELL 1.54180   50.00000   50.00000   50.00000   90.00000   90.00000   90.00000
LATT -1
SFAC C  
C      1  0.4919080000000  0.4495020000000  0.4875200000000 1.0
C      1  0.5344380000000  0.5174950000000  0.4940520000000 1.0
C      1  0.4823110000000  0.5209410000000  0.5069600000000 1.0
C      1  0.4839830000000  0.5574710000000  0.4696230000000 1.0
C      1  0.4587960000000  0.4503200000000  0.4520740000000 1.0
C      1  0.5595260000000  0.4873600000000  0.4617430000000 1.0
C      1  0.4869050000000  0.5502870000000  0.4981360000000 1.0
C      1  0.4653820000000  0.4415820000000  0.4799810000000 1.0
C      1  0.5521470000000  0.4931140000000  0.4899950000000 1.0
C      1  0.5316280000000  0.6079230000000  0.4879760000000 1.0
C      1  0.4209740000000  0.4902550000000  0.4997930000000 1.0
C      1  0.5631640000000  0.4205220000000  0.4917280000000 1.0
C      1  0.5487570000000  0.5397400000000  0.5104180000000 1.0
C      1  0.4583820000000  0.5178790000000  0.5252960000000 1.0
C      1  0.5041380000000  0.4417840000000  0.5117290000000 1.0
C      1  0.5273580000000  0.5559320000000  0.4455410000000 1.0
C      1  0.4415710000000  0.4976260000000  0.4484340000000 1.0
C      1  0.5354130000000  0.4499580000000  0.4404470000000 1.0
C      1  0.4594480000000  0.5220320000000  0.5535010000000 1.0
C      1  0.5202200000000  0.4600980000000  0.5251070000000 1.0
C      1  0.5298790000000  0.5556560000000  0.5262300000000 1.0
C      1  0.5028450000000  0.4729250000000  0.5532360000000 1.0
C      1  0.5249450000000  0.5475230000000  0.5539080000000 1.0
C      1  0.4501140000000  0.5016800000000  0.5704890000000 1.0
C      1  0.4431190000000  0.4469980000000  0.4979210000000 1.0
C      1  0.5501410000000  0.4672350000000  0.5083390000000 1.0
C      1  0.5068270000000  0.5698910000000  0.5123020000000 1.0
C      1  0.5093470000000  0.5702800000000  0.4627970000000 1.0
C      1  0.4380550000000  0.4707790000000  0.4569400000000 1.0
C      1  0.5549600000000  0.4585830000000  0.4596270000000 1.0
C      1  0.5686360000000  0.5266390000000  0.5271100000000 1.0
C      1  0.4340660000000  0.5086250000000  0.5142030000000 1.0
C      1  0.4888750000000  0.4255070000000  0.5291980000000 1.0
C      1  0.5109890000000  0.5004510000000  0.5597570000000 1.0
C      1  0.5050510000000  0.5291400000000  0.5658810000000 1.0
C      1  0.4585420000000  0.4763520000000  0.5734160000000 1.0
C      1  0.5029300000000  0.4680870000000  0.4687890000000 1.0
C      1  0.5197950000000  0.5159170000000  0.4681870000000 1.0
C      1  0.4761510000000  0.5067940000000  0.4803030000000 1.0
C      1  0.5565070000000  0.4463610000000  0.4864830000000 1.0
C      1  0.5173910000000  0.5848190000000  0.4870730000000 1.0
C      1  0.4279560000000  0.4677670000000  0.4844930000000 1.0
C      1  0.4770850000000  0.4611540000000  0.5587470000000 1.0
C      1  0.5285380000000  0.5046090000000  0.5379120000000 1.0
C      1  0.4787230000000  0.5403460000000  0.5628660000000 1.0
C      1  0.4892690000000  0.5813740000000  0.5340740000000 1.0
C      1  0.4448870000000  0.4420330000000  0.5255680000000 1.0
C      1  0.5666260000000  0.4771340000000  0.5315080000000 1.0
C      1  0.5344510000000  0.5283990000000  0.4471780000000 1.0
C      1  0.4576860000000  0.5171430000000  0.4608180000000 1.0
C      1  0.5077940000000  0.4553740000000  0.4431690000000 1.0
C      1  0.5576370000000  0.5031130000000  0.5391590000000 1.0
C      1  0.4775970000000  0.5676420000000  0.5545620000000 1.0
C      1  0.4678000000000  0.4395130000000  0.5421670000000 1.0
C      1  0.4635940000000  0.5442350000000  0.4552540000000 1.0
C      1  0.4811950000000  0.4487200000000  0.4339790000000 1.0
C      1  0.5561710000000  0.5094320000000  0.4433040000000 1.0
C      1  0.4997600000000  0.4959880000000  0.4691940000000 1.0
C      1  0.5123210000000  0.5112650000000  0.5144180000000 1.0
END
