TITL C-3201379-3821-58 0.0646744194800531 125000 -1140.24072252189 0 0 186 (C1) n - 1
REM
REM in /home/nfs/bkarasulu/CARBON/AIRSS/Generating-Clusters/LCBOP/Higher-Symm/SD-CG/FIRE-CG
REM
REM
REM
REM
REM
REM ./C.cell (b20cbc046b6831c77cfcea5457e17084)
REM AIRSS Version 0.9.1 bugfix July 2018 build 013d7b7c2542+ Fri, 06 Jul 2018 19:26:36 +0100
REM compiler GCC version 9.2.1 20190827 (Red Hat 9.2.1-1)
REM options -cpp -mtune=generic -march=x86-64 -g -O0 -fpre-include=/usr/include/finclude/math-vector-fortran.h
REM seed -1987896775 652897305 -1011885118 -540022669 1046247672 1077682248 1723938966 -1038557645 1604002017 1064848480 755020844 -543619833 1756017084 -842711585 388736910 1218323137 798621688 63260453 850398981 1447437914 1500959414 -1041850629 1469498959 451003357 -1043829336 1445324105 1464047584 1622278758 1433793122 1394029880 -1602344773 -1938779732 -1559520251
REM
CELL 1.54180   50.00000   50.00000   50.00000   90.00000   90.00000   90.00000
LATT -1
SFAC C  
C      1  0.4571850000000  0.6070320000000  0.5315080000000 1.0
C      1  0.5367680000000  0.3898240000000  0.4868030000000 1.0
C      1  0.4553550000000  0.5695640000000  0.4671260000000 1.0
C      1  0.5477850000000  0.4293790000000  0.5169870000000 1.0
C      1  0.3755360000000  0.4808190000000  0.4969240000000 1.0
C      1  0.6167850000000  0.5180220000000  0.4997570000000 1.0
C      1  0.5160470000000  0.4495150000000  0.6038620000000 1.0
C      1  0.4970680000000  0.5516830000000  0.3872040000000 1.0
C      1  0.4131050000000  0.4723690000000  0.5237600000000 1.0
C      1  0.5986800000000  0.5326620000000  0.4592070000000 1.0
C      1  0.5710180000000  0.4905030000000  0.5157880000000 1.0
C      1  0.4604120000000  0.5236780000000  0.4660650000000 1.0
C      1  0.5831570000000  0.3735530000000  0.4703020000000 1.0
C      1  0.4257950000000  0.5978150000000  0.5712330000000 1.0
C      1  0.4759870000000  0.5556360000000  0.3684460000000 1.0
C      1  0.5360320000000  0.4344170000000  0.6174560000000 1.0
C      1  0.5656000000000  0.4941470000000  0.4882480000000 1.0
C      1  0.4643580000000  0.5069710000000  0.5158380000000 1.0
C      1  0.5663220000000  0.5891270000000  0.3917470000000 1.0
C      1  0.4504410000000  0.4574450000000  0.6104600000000 1.0
C      1  0.5281790000000  0.4738800000000  0.4269010000000 1.0
C      1  0.4515950000000  0.5603420000000  0.5781990000000 1.0
C      1  0.6212440000000  0.5174760000000  0.5275040000000 1.0
C      1  0.3702390000000  0.4773760000000  0.4691770000000 1.0
C      1  0.4887770000000  0.5450680000000  0.4138440000000 1.0
C      1  0.5146840000000  0.4526920000000  0.5754570000000 1.0
C      1  0.5153460000000  0.4307880000000  0.5569780000000 1.0
C      1  0.4860460000000  0.5685810000000  0.4307070000000 1.0
C      1  0.6047280000000  0.5269660000000  0.5466440000000 1.0
C      1  0.3874830000000  0.4724760000000  0.4468980000000 1.0
C      1  0.4336200000000  0.5439490000000  0.5038740000000 1.0
C      1  0.5733690000000  0.4505040000000  0.4753700000000 1.0
C      1  0.4299600000000  0.5703180000000  0.4504040000000 1.0
C      1  0.5679120000000  0.4171240000000  0.5332250000000 1.0
C      1  0.4354150000000  0.5439890000000  0.6263310000000 1.0
C      1  0.5406030000000  0.4552790000000  0.3746670000000 1.0
C      1  0.4878550000000  0.6078770000000  0.5260330000000 1.0
C      1  0.5060350000000  0.3888880000000  0.4876890000000 1.0
C      1  0.4701000000000  0.4610520000000  0.6299780000000 1.0
C      1  0.5397050000000  0.5816320000000  0.3977640000000 1.0
C      1  0.4962510000000  0.5842460000000  0.5704410000000 1.0
C      1  0.4878200000000  0.3970190000000  0.4413670000000 1.0
C      1  0.4566820000000  0.5150190000000  0.5908680000000 1.0
C      1  0.5564260000000  0.4982110000000  0.3954600000000 1.0
C      1  0.6159720000000  0.4617200000000  0.4120380000000 1.0
C      1  0.3853090000000  0.5048630000000  0.5698190000000 1.0
C      1  0.4097710000000  0.5794360000000  0.5290330000000 1.0
C      1  0.5962400000000  0.4180490000000  0.4950220000000 1.0
C      1  0.5613220000000  0.4071210000000  0.5828840000000 1.0
C      1  0.4368950000000  0.5716080000000  0.4000280000000 1.0
C      1  0.4472750000000  0.4416770000000  0.5215440000000 1.0
C      1  0.5497750000000  0.5363080000000  0.4578970000000 1.0
C      1  0.4537900000000  0.4682910000000  0.5831950000000 1.0
C      1  0.5760410000000  0.5376540000000  0.4165050000000 1.0
C      1  0.4722330000000  0.4269760000000  0.4734720000000 1.0
C      1  0.5272960000000  0.5757300000000  0.5362830000000 1.0
C      1  0.5143320000000  0.5687550000000  0.5855140000000 1.0
C      1  0.4642490000000  0.4039150000000  0.4270360000000 1.0
C      1  0.4725440000000  0.5708110000000  0.5641700000000 1.0
C      1  0.5146230000000  0.4030110000000  0.4345320000000 1.0
C      1  0.4327930000000  0.5776370000000  0.5902150000000 1.0
C      1  0.5268410000000  0.4464020000000  0.4219160000000 1.0
C      1  0.5300150000000  0.5471390000000  0.5753260000000 1.0
C      1  0.4470190000000  0.4853720000000  0.4408980000000 1.0
C      1  0.5585840000000  0.5096460000000  0.5936340000000 1.0
C      1  0.4243090000000  0.5015150000000  0.4457820000000 1.0
C      1  0.4528560000000  0.5634460000000  0.4952160000000 1.0
C      1  0.5524220000000  0.4361450000000  0.4881220000000 1.0
C      1  0.5585090000000  0.6078740000000  0.5008530000000 1.0
C      1  0.4413810000000  0.3957610000000  0.5066870000000 1.0
C      1  0.5412110000000  0.5812200000000  0.4502700000000 1.0
C      1  0.4767440000000  0.4114400000000  0.5374390000000 1.0
C      1  0.4460780000000  0.5335730000000  0.5725100000000 1.0
C      1  0.5516560000000  0.4880630000000  0.4218520000000 1.0
C      1  0.6004050000000  0.4427850000000  0.4801880000000 1.0
C      1  0.3921490000000  0.5585540000000  0.5237570000000 1.0
C      1  0.4823880000000  0.5638210000000  0.4583600000000 1.0
C      1  0.5237330000000  0.4371460000000  0.5301260000000 1.0
C      1  0.4848840000000  0.5163370000000  0.4538220000000 1.0
C      1  0.4894210000000  0.4939550000000  0.5581050000000 1.0
C      1  0.3806450000000  0.5343140000000  0.5162520000000 1.0
C      1  0.6183690000000  0.4661160000000  0.4814440000000 1.0
C      1  0.4247350000000  0.4891680000000  0.5045930000000 1.0
C      1  0.6153310000000  0.5094300000000  0.4553640000000 1.0
C      1  0.4717700000000  0.4546060000000  0.4679420000000 1.0
C      1  0.5302610000000  0.5453590000000  0.5435970000000 1.0
C      1  0.5967690000000  0.4722010000000  0.4262140000000 1.0
C      1  0.4060410000000  0.5138790000000  0.5567900000000 1.0
C      1  0.5749770000000  0.5362100000000  0.4445470000000 1.0
C      1  0.4317780000000  0.4579640000000  0.5387070000000 1.0
C      1  0.5849180000000  0.4653630000000  0.5830050000000 1.0
C      1  0.3900110000000  0.5196390000000  0.4214970000000 1.0
C      1  0.5544560000000  0.5030560000000  0.5347600000000 1.0
C      1  0.4513840000000  0.4896300000000  0.4945840000000 1.0
C      1  0.3988670000000  0.4964790000000  0.4355480000000 1.0
C      1  0.5733390000000  0.4874490000000  0.5924790000000 1.0
C      1  0.5134640000000  0.4787760000000  0.5629480000000 1.0
C      1  0.4824590000000  0.5187050000000  0.4248800000000 1.0
C      1  0.5914820000000  0.4732110000000  0.5250580000000 1.0
C      1  0.4317630000000  0.5210490000000  0.4641640000000 1.0
C      1  0.5475580000000  0.4122910000000  0.6050210000000 1.0
C      1  0.4524890000000  0.5670370000000  0.3788950000000 1.0
C      1  0.6207400000000  0.4953130000000  0.4802930000000 1.0
C      1  0.3750200000000  0.5083590000000  0.5081150000000 1.0
C      1  0.4784160000000  0.5483560000000  0.3417210000000 1.0
C      1  0.5447680000000  0.4422660000000  0.6428110000000 1.0
C      1  0.4170710000000  0.5377970000000  0.4815620000000 1.0
C      1  0.5993960000000  0.4489580000000  0.5372730000000 1.0
C      1  0.4995240000000  0.5487340000000  0.5020840000000 1.0
C      1  0.5107810000000  0.4509450000000  0.4868360000000 1.0
C      1  0.5884930000000  0.4449720000000  0.5643440000000 1.0
C      1  0.4019030000000  0.5440700000000  0.4188260000000 1.0
C      1  0.4811830000000  0.5413950000000  0.3167600000000 1.0
C      1  0.5530880000000  0.4506530000000  0.6660400000000 1.0
C      1  0.5220870000000  0.5645600000000  0.3840270000000 1.0
C      1  0.4962910000000  0.4604460000000  0.6203600000000 1.0
C      1  0.5089740000000  0.3812900000000  0.5554270000000 1.0
C      1  0.4858220000000  0.6151510000000  0.4488110000000 1.0
C      1  0.5712990000000  0.4215370000000  0.5615700000000 1.0
C      1  0.4231910000000  0.5633010000000  0.4229530000000 1.0
C      1  0.5079840000000  0.5314330000000  0.5251210000000 1.0
C      1  0.4965470000000  0.4687970000000  0.4716390000000 1.0
C      1  0.3925360000000  0.4593340000000  0.5086930000000 1.0
C      1  0.6016880000000  0.5417980000000  0.4869260000000 1.0
C      1  0.4423460000000  0.5257330000000  0.5242660000000 1.0
C      1  0.5690470000000  0.4768600000000  0.4663960000000 1.0
C      1  0.5503540000000  0.5364770000000  0.5925610000000 1.0
C      1  0.4419910000000  0.4191570000000  0.4247820000000 1.0
C      1  0.5852050000000  0.5957180000000  0.4101110000000 1.0
C      1  0.4269470000000  0.4408870000000  0.6094410000000 1.0
C      1  0.5066630000000  0.5944320000000  0.5452430000000 1.0
C      1  0.4868510000000  0.4026760000000  0.4696650000000 1.0
C      1  0.5733410000000  0.4813190000000  0.4387330000000 1.0
C      1  0.4310550000000  0.5246860000000  0.5504300000000 1.0
C      1  0.4272610000000  0.3748820000000  0.4958720000000 1.0
C      1  0.5728390000000  0.6274340000000  0.5138480000000 1.0
C      1  0.4334080000000  0.4562600000000  0.5661870000000 1.0
C      1  0.5678980000000  0.5889350000000  0.4579960000000 1.0
C      1  0.5300960000000  0.6109600000000  0.4996990000000 1.0
C      1  0.4676330000000  0.3910330000000  0.5188430000000 1.0
C      1  0.5056330000000  0.5555190000000  0.4747380000000 1.0
C      1  0.5018660000000  0.4449540000000  0.5132840000000 1.0
C      1  0.5885300000000  0.5657520000000  0.4984040000000 1.0
C      1  0.4044140000000  0.4349780000000  0.4959290000000 1.0
C      1  0.4301230000000  0.5966560000000  0.5421840000000 1.0
C      1  0.5715350000000  0.3935500000000  0.4840080000000 1.0
C      1  0.5856010000000  0.5959160000000  0.4371430000000 1.0
C      1  0.4170160000000  0.4401310000000  0.5836650000000 1.0
C      1  0.4755280000000  0.4373420000000  0.5240810000000 1.0
C      1  0.5313860000000  0.5571940000000  0.4625400000000 1.0
C      1  0.4718700000000  0.5632320000000  0.5377020000000 1.0
C      1  0.5262070000000  0.4276820000000  0.4431850000000 1.0
C      1  0.4983450000000  0.4076980000000  0.5562520000000 1.0
C      1  0.4851250000000  0.5972400000000  0.4281780000000 1.0
C      1  0.4261980000000  0.5676430000000  0.6159800000000 1.0
C      1  0.5308950000000  0.4397860000000  0.3946110000000 1.0
C      1  0.4495610000000  0.5222780000000  0.6175380000000 1.0
C      1  0.5506460000000  0.4803700000000  0.3744580000000 1.0
C      1  0.4213540000000  0.4356680000000  0.4304850000000 1.0
C      1  0.5634600000000  0.5542430000000  0.6090470000000 1.0
C      1  0.4921020000000  0.3768590000000  0.5102560000000 1.0
C      1  0.5014020000000  0.6142530000000  0.5004920000000 1.0
C      1  0.4681440000000  0.4921530000000  0.5781000000000 1.0
C      1  0.5685770000000  0.5233640000000  0.3950560000000 1.0
C      1  0.4304130000000  0.4230430000000  0.5064070000000 1.0
C      1  0.5730630000000  0.5874670000000  0.4858720000000 1.0
C      1  0.4008780000000  0.4461320000000  0.4473600000000 1.0
C      1  0.5821520000000  0.5430360000000  0.5407510000000 1.0
C      1  0.5887160000000  0.5670390000000  0.5271660000000 1.0
C      1  0.3944420000000  0.4287790000000  0.4697580000000 1.0
C      1  0.4890960000000  0.6192840000000  0.4753410000000 1.0
C      1  0.5067710000000  0.3665330000000  0.5324920000000 1.0
C      1  0.5983760000000  0.5884980000000  0.5410500000000 1.0
C      1  0.3783870000000  0.4069020000000  0.4658940000000 1.0
C      1  0.4884790000000  0.5093890000000  0.5325390000000 1.0
C      1  0.5002460000000  0.4956150000000  0.4650110000000 1.0
C      1  0.5327890000000  0.5879450000000  0.4244630000000 1.0
C      1  0.4642690000000  0.4649730000000  0.6563020000000 1.0
C      1  0.5564960000000  0.5312220000000  0.5385300000000 1.0
C      1  0.4534370000000  0.4755050000000  0.4680870000000 1.0
C      1  0.5942790000000  0.4236410000000  0.5224140000000 1.0
C      1  0.4086390000000  0.5613010000000  0.4680160000000 1.0
C      1  0.4759180000000  0.5622840000000  0.5107180000000 1.0
C      1  0.5292580000000  0.4354390000000  0.4714740000000 1.0
C      1  0.5366490000000  0.4880930000000  0.5501640000000 1.0
C      1  0.4645450000000  0.4959060000000  0.4197740000000 1.0
END
