TITL C-3201375-1262-1649 5.67179052645332e-07 125000 -299.952950107519 0 0 50 (C1) n - 1
REM
REM in /home/nfs/bkarasulu/CARBON/AIRSS/Generating-Clusters/LCBOP/Higher-Symm/SD-CG/FIRE-CG
REM
REM
REM
REM
REM
REM ./C.cell (b20cbc046b6831c77cfcea5457e17084)
REM AIRSS Version 0.9.1 bugfix July 2018 build 013d7b7c2542+ Fri, 06 Jul 2018 19:26:36 +0100
REM compiler GCC version 9.2.1 20190827 (Red Hat 9.2.1-1)
REM options -cpp -mtune=generic -march=x86-64 -g -O0 -fpre-include=/usr/include/finclude/math-vector-fortran.h
REM seed -879229761 -1770422794 1860685916 -1099545561 1588798071 197981729 1014354002 2127314116 1503854480 -376298300 2032987705 775305395 247155141 1524461673 27129377 1223254943 1667933057 10458827 -1777583216 2132472351 1471677474 1039286835 -12587244 -964879016 -712346024 -995102047 1554126341 -941133480 887733054 880619411 914825078 630410713 -254417981
REM
CELL 1.54180   50.00000   50.00000   50.00000   90.00000   90.00000   90.00000
LATT -1
SFAC C  
C      1  0.5581490000000  0.4558960000000  0.4854390000000 1.0
C      1  0.4429760000000  0.5486790000000  0.5148660000000 1.0
C      1  0.4895790000000  0.4916700000000  0.4616590000000 1.0
C      1  0.5034630000000  0.5034660000000  0.5080770000000 1.0
C      1  0.5367470000000  0.4425750000000  0.4414240000000 1.0
C      1  0.4635820000000  0.5647770000000  0.5579500000000 1.0
C      1  0.4863160000000  0.4495300000000  0.4858650000000 1.0
C      1  0.5123360000000  0.5488940000000  0.5141370000000 1.0
C      1  0.4881240000000  0.5069300000000  0.4854720000000 1.0
C      1  0.5185500000000  0.4810560000000  0.5073860000000 1.0
C      1  0.5647740000000  0.5129950000000  0.4988500000000 1.0
C      1  0.4399720000000  0.4909660000000  0.5125750000000 1.0
C      1  0.4596980000000  0.5469070000000  0.4689140000000 1.0
C      1  0.5455480000000  0.4477100000000  0.5319140000000 1.0
C      1  0.4483180000000  0.4695260000000  0.4585940000000 1.0
C      1  0.5244760000000  0.5111680000000  0.5492430000000 1.0
C      1  0.4852090000000  0.5802290000000  0.4909250000000 1.0
C      1  0.5170630000000  0.4192600000000  0.5065330000000 1.0
C      1  0.5624750000000  0.4461310000000  0.4300680000000 1.0
C      1  0.4370890000000  0.5661520000000  0.5680140000000 1.0
C      1  0.4759520000000  0.4666780000000  0.4647470000000 1.0
C      1  0.5111680000000  0.5233780000000  0.5267800000000 1.0
C      1  0.5120690000000  0.5307080000000  0.4430820000000 1.0
C      1  0.4974590000000  0.4686300000000  0.5576620000000 1.0
C      1  0.5622700000000  0.4932560000000  0.5192350000000 1.0
C      1  0.4361600000000  0.5069330000000  0.4893510000000 1.0
C      1  0.5029730000000  0.5052180000000  0.4409890000000 1.0
C      1  0.5087510000000  0.4924060000000  0.5637530000000 1.0
C      1  0.5349080000000  0.4452350000000  0.4701410000000 1.0
C      1  0.4659770000000  0.5594430000000  0.5297510000000 1.0
C      1  0.5264920000000  0.5475310000000  0.4880650000000 1.0
C      1  0.4773970000000  0.4537610000000  0.5141020000000 1.0
C      1  0.5201510000000  0.4346440000000  0.5302870000000 1.0
C      1  0.4839050000000  0.5622210000000  0.4688150000000 1.0
C      1  0.4331340000000  0.4909770000000  0.4659470000000 1.0
C      1  0.5515250000000  0.5035070000000  0.5438080000000 1.0
C      1  0.4177990000000  0.5519140000000  0.5276590000000 1.0
C      1  0.5825240000000  0.4574730000000  0.4708610000000 1.0
C      1  0.5513590000000  0.5338250000000  0.4881710000000 1.0
C      1  0.4541320000000  0.4690870000000  0.5190220000000 1.0
C      1  0.4896980000000  0.5666700000000  0.5155960000000 1.0
C      1  0.5114570000000  0.4350950000000  0.4834560000000 1.0
C      1  0.5578340000000  0.4652530000000  0.5128100000000 1.0
C      1  0.4446120000000  0.5344900000000  0.4898590000000 1.0
C      1  0.5151350000000  0.4365860000000  0.4258300000000 1.0
C      1  0.4853010000000  0.5680360000000  0.5741580000000 1.0
C      1  0.4151300000000  0.5600870000000  0.5533530000000 1.0
C      1  0.5844580000000  0.4530760000000  0.4442310000000 1.0
C      1  0.5095850000000  0.5494960000000  0.4641440000000 1.0
C      1  0.4962390000000  0.4498690000000  0.5364290000000 1.0
END
