TITL C-3201373-1215-1756 -7.20285205143832e-07 125000 -996.537730453263 0 0 162 (C6) n - 1
REM
REM in /home/nfs/bkarasulu/CARBON/AIRSS/Generating-Clusters/LCBOP/Higher-Symm/SD-CG/FIRE-CG
REM
REM
REM
REM
REM
REM ./C.cell (b20cbc046b6831c77cfcea5457e17084)
REM AIRSS Version 0.9.1 bugfix July 2018 build 013d7b7c2542+ Fri, 06 Jul 2018 19:26:36 +0100
REM compiler GCC version 9.2.1 20190827 (Red Hat 9.2.1-1)
REM options -cpp -mtune=generic -march=x86-64 -g -O0 -fpre-include=/usr/include/finclude/math-vector-fortran.h
REM seed 806298795 -2003222255 1466885344 -1827607805 1728344602 1109226052 -1561721269 -173579639 -1463184354 -1137594606 493268939 -160681742 -1377225566 699866105 573741786 1754886118 490155045 -1682205091 1762681423 2050768857 895078308 -2129248397 417169634 -1730348253 473451045 1060434546 -678157610 -1264433900 -1289872369 2090909343 -814260292 -2025413043 1028564312
REM
CELL 1.54180   50.00000   50.00000   50.00000   90.00000   90.00000   90.00000
LATT -1
SFAC C  
C      1  0.5222240000000  0.5851480000000  0.4482590000000 1.0
C      1  0.4373830000000  0.5617980000000  0.4482180000000 1.0
C      1  0.4151840000000  0.4766490000000  0.4482100000000 1.0
C      1  0.4778260000000  0.4148490000000  0.4482420000000 1.0
C      1  0.5626670000000  0.4381980000000  0.4482830000000 1.0
C      1  0.5848660000000  0.5233480000000  0.4482910000000 1.0
C      1  0.5166530000000  0.5910090000000  0.5516480000000 1.0
C      1  0.4295000000000  0.5599490000000  0.5516060000000 1.0
C      1  0.4128210000000  0.4689430000000  0.5516010000000 1.0
C      1  0.4832960000000  0.4089950000000  0.5516370000000 1.0
C      1  0.5704490000000  0.4400540000000  0.5516790000000 1.0
C      1  0.5871280000000  0.5310610000000  0.5516840000000 1.0
C      1  0.5495350000000  0.4453320000000  0.3968010000000 1.0
C      1  0.5721340000000  0.5155190000000  0.3968100000000 1.0
C      1  0.5226490000000  0.5701840000000  0.3967840000000 1.0
C      1  0.4505650000000  0.5546620000000  0.3967490000000 1.0
C      1  0.4279660000000  0.4844740000000  0.3967400000000 1.0
C      1  0.4774510000000  0.4298090000000  0.3967660000000 1.0
C      1  0.5545620000000  0.4502880000000  0.6030980000000 1.0
C      1  0.5703100000000  0.5224410000000  0.6031040000000 1.0
C      1  0.5156980000000  0.5721570000000  0.6030750000000 1.0
C      1  0.4453370000000  0.5497180000000  0.6030420000000 1.0
C      1  0.4295890000000  0.4775650000000  0.6030360000000 1.0
C      1  0.4842010000000  0.4278500000000  0.6030650000000 1.0
C      1  0.5068650000000  0.5260860000000  0.5396770000000 1.0
C      1  0.4808320000000  0.5190060000000  0.5396640000000 1.0
C      1  0.4739480000000  0.4929210000000  0.5396620000000 1.0
C      1  0.4930960000000  0.4739160000000  0.5396720000000 1.0
C      1  0.5191280000000  0.4809960000000  0.5396840000000 1.0
C      1  0.5260130000000  0.5070810000000  0.5396870000000 1.0
C      1  0.5144340000000  0.5230420000000  0.4587160000000 1.0
C      1  0.4872710000000  0.5240030000000  0.4587030000000 1.0
C      1  0.4728570000000  0.5009600000000  0.4586970000000 1.0
C      1  0.4856060000000  0.4769560000000  0.4587040000000 1.0
C      1  0.5127690000000  0.4759940000000  0.4587170000000 1.0
C      1  0.5271830000000  0.4990370000000  0.4587230000000 1.0
C      1  0.5377590000000  0.4622840000000  0.5337310000000 1.0
C      1  0.5515360000000  0.5138570000000  0.5337360000000 1.0
C      1  0.5137600000000  0.5515750000000  0.5337160000000 1.0
C      1  0.4622080000000  0.5377190000000  0.5336920000000 1.0
C      1  0.4484310000000  0.4861450000000  0.5336870000000 1.0
C      1  0.4862070000000  0.4484280000000  0.5337060000000 1.0
C      1  0.5256660000000  0.4537580000000  0.4683020000000 1.0
C      1  0.5528860000000  0.4990930000000  0.4683140000000 1.0
C      1  0.5272350000000  0.5453340000000  0.4683000000000 1.0
C      1  0.4743640000000  0.5462400000000  0.4682740000000 1.0
C      1  0.4471440000000  0.5009050000000  0.4682620000000 1.0
C      1  0.4727950000000  0.4546640000000  0.4682760000000 1.0
C      1  0.6141800000000  0.4935600000000  0.4724500000000 1.0
C      1  0.5626730000000  0.5956510000000  0.4724220000000 1.0
C      1  0.4485060000000  0.6020900000000  0.4723660000000 1.0
C      1  0.3858470000000  0.5064380000000  0.4723380000000 1.0
C      1  0.4373530000000  0.4043470000000  0.4723670000000 1.0
C      1  0.5515200000000  0.3979080000000  0.4724230000000 1.0
C      1  0.6022460000000  0.4947810000000  0.5243160000000 1.0
C      1  0.5556380000000  0.5859490000000  0.5242900000000 1.0
C      1  0.4533800000000  0.5911690000000  0.5242400000000 1.0
C      1  0.3977300000000  0.5052210000000  0.5242150000000 1.0
C      1  0.4443380000000  0.4140530000000  0.5242410000000 1.0
C      1  0.5465960000000  0.4088330000000  0.5242910000000 1.0
C      1  0.4284430000000  0.4943370000000  0.5524410000000 1.0
C      1  0.4691150000000  0.4352220000000  0.5524630000000 1.0
C      1  0.5406460000000  0.4408870000000  0.5524980000000 1.0
C      1  0.5715050000000  0.5056670000000  0.5525110000000 1.0
C      1  0.5308340000000  0.5647820000000  0.5524890000000 1.0
C      1  0.4593030000000  0.5591170000000  0.5524540000000 1.0
C      1  0.4272010000000  0.5055890000000  0.4481710000000 1.0
C      1  0.4587710000000  0.4397260000000  0.4481890000000 1.0
C      1  0.5315950000000  0.4341350000000  0.4482240000000 1.0
C      1  0.5728500000000  0.4944070000000  0.4482430000000 1.0
C      1  0.5412790000000  0.5602710000000  0.4482250000000 1.0
C      1  0.4684550000000  0.5658620000000  0.4481890000000 1.0
C      1  0.5641800000000  0.5623020000000  0.5094300000000 1.0
C      1  0.4781330000000  0.5867370000000  0.5093870000000 1.0
C      1  0.4139480000000  0.5244350000000  0.5093580000000 1.0
C      1  0.4358110000000  0.4376990000000  0.5093710000000 1.0
C      1  0.5218580000000  0.4132640000000  0.5094140000000 1.0
C      1  0.5860420000000  0.4755660000000  0.5094430000000 1.0
C      1  0.5742060000000  0.5742330000000  0.4850070000000 1.0
C      1  0.4728190000000  0.6013740000000  0.4849570000000 1.0
C      1  0.3986200000000  0.5271410000000  0.4849230000000 1.0
C      1  0.4258080000000  0.4257670000000  0.4849400000000 1.0
C      1  0.5271950000000  0.3986250000000  0.4849900000000 1.0
C      1  0.6013940000000  0.4728580000000  0.4850240000000 1.0
C      1  0.4711920000000  0.5015060000000  0.6099230000000 1.0
C      1  0.4842680000000  0.4758530000000  0.6099300000000 1.0
C      1  0.5130220000000  0.4743510000000  0.6099450000000 1.0
C      1  0.5287000000000  0.4985010000000  0.6099510000000 1.0
C      1  0.5156240000000  0.5241540000000  0.6099440000000 1.0
C      1  0.4868700000000  0.5256560000000  0.6099300000000 1.0
C      1  0.4715970000000  0.5042100000000  0.3892140000000 1.0
C      1  0.4821770000000  0.4774590000000  0.3892200000000 1.0
C      1  0.5106340000000  0.4732460000000  0.3892340000000 1.0
C      1  0.5285110000000  0.4957830000000  0.3892420000000 1.0
C      1  0.5179310000000  0.5225340000000  0.3892360000000 1.0
C      1  0.4894740000000  0.5267470000000  0.3892220000000 1.0
C      1  0.4433750000000  0.5079980000000  0.3951880000000 1.0
C      1  0.4647840000000  0.4549150000000  0.3952000000000 1.0
C      1  0.5214590000000  0.4469130000000  0.3952280000000 1.0
C      1  0.5567260000000  0.4919950000000  0.3952440000000 1.0
C      1  0.5353180000000  0.5450780000000  0.3952310000000 1.0
C      1  0.4786430000000  0.5530800000000  0.3952030000000 1.0
C      1  0.4426170000000  0.5025510000000  0.6044180000000 1.0
C      1  0.4690760000000  0.4516270000000  0.6044320000000 1.0
C      1  0.5264080000000  0.4490790000000  0.6044600000000 1.0
C      1  0.5572800000000  0.4974550000000  0.6044740000000 1.0
C      1  0.5308210000000  0.5483800000000  0.6044590000000 1.0
C      1  0.4734900000000  0.5509280000000  0.6044310000000 1.0
C      1  0.5147170000000  0.4212220000000  0.5653120000000 1.0
C      1  0.5755680000000  0.4733850000000  0.5653400000000 1.0
C      1  0.5608190000000  0.5521660000000  0.5653300000000 1.0
C      1  0.4852180000000  0.5787820000000  0.5652930000000 1.0
C      1  0.4243670000000  0.5266190000000  0.5652650000000 1.0
C      1  0.4391170000000  0.4478380000000  0.5652740000000 1.0
C      1  0.5062760000000  0.4217630000000  0.4358070000000 1.0
C      1  0.5709070000000  0.4662890000000  0.4358370000000 1.0
C      1  0.5646620000000  0.5445240000000  0.4358320000000 1.0
C      1  0.4937860000000  0.5782330000000  0.4357960000000 1.0
C      1  0.4291560000000  0.5337070000000  0.4357660000000 1.0
C      1  0.4354000000000  0.4554720000000  0.4357710000000 1.0
C      1  0.6051710000000  0.5213080000000  0.4710950000000 1.0
C      1  0.5341380000000  0.6017220000000  0.4710580000000 1.0
C      1  0.4289820000000  0.5804130000000  0.4710070000000 1.0
C      1  0.3948570000000  0.4786900000000  0.4709940000000 1.0
C      1  0.4658900000000  0.3982760000000  0.4710310000000 1.0
C      1  0.5710460000000  0.4195850000000  0.4710820000000 1.0
C      1  0.6036370000000  0.5248030000000  0.5258710000000 1.0
C      1  0.5303320000000  0.6021650000000  0.5258320000000 1.0
C      1  0.4266830000000  0.5773630000000  0.5257820000000 1.0
C      1  0.3963380000000  0.4751980000000  0.5257710000000 1.0
C      1  0.4696420000000  0.3978360000000  0.5258090000000 1.0
C      1  0.5732920000000  0.4226390000000  0.5258590000000 1.0
C      1  0.4421330000000  0.4670000000000  0.5121270000000 1.0
C      1  0.4996420000000  0.4333920000000  0.5121560000000 1.0
C      1  0.5575030000000  0.4663920000000  0.5121830000000 1.0
C      1  0.5578540000000  0.5330000000000  0.5121810000000 1.0
C      1  0.5003450000000  0.5666090000000  0.5121520000000 1.0
C      1  0.4424850000000  0.5336090000000  0.5121250000000 1.0
C      1  0.4412530000000  0.4830290000000  0.4888220000000 1.0
C      1  0.4853260000000  0.4406330000000  0.4888450000000 1.0
C      1  0.5440780000000  0.4576040000000  0.4888730000000 1.0
C      1  0.5587580000000  0.5169700000000  0.4888780000000 1.0
C      1  0.5146850000000  0.5593660000000  0.4888560000000 1.0
C      1  0.4559320000000  0.5423960000000  0.4888270000000 1.0
C      1  0.4892880000000  0.5717370000000  0.5927330000000 1.0
C      1  0.4324980000000  0.5266320000000  0.5927070000000 1.0
C      1  0.4431640000000  0.4548980000000  0.5927140000000 1.0
C      1  0.5106210000000  0.4282690000000  0.5927480000000 1.0
C      1  0.5674110000000  0.4733740000000  0.5927740000000 1.0
C      1  0.5567440000000  0.5451080000000  0.5927670000000 1.0
C      1  0.4963690000000  0.5718310000000  0.4072870000000 1.0
C      1  0.4359970000000  0.5327310000000  0.4072590000000 1.0
C      1  0.4396730000000  0.4608970000000  0.4072630000000 1.0
C      1  0.5037210000000  0.4281630000000  0.4072950000000 1.0
C      1  0.5640930000000  0.4672630000000  0.4073230000000 1.0
C      1  0.5604170000000  0.5390970000000  0.4073190000000 1.0
C      1  0.4758820000000  0.3899490000000  0.4977970000000 1.0
C      1  0.4167530000000  0.5759130000000  0.4977620000000 1.0
C      1  0.5832480000000  0.4240870000000  0.4978480000000 1.0
C      1  0.3926340000000  0.4658620000000  0.4977540000000 1.0
C      1  0.6073670000000  0.5341380000000  0.4978570000000 1.0
C      1  0.5241200000000  0.6100510000000  0.4978130000000 1.0
END
