TITL C-3201375-1262-618 0.000715713403570413 125000 -965.808002599709 0 0 156 (C1) n - 1
REM
REM in /home/nfs/bkarasulu/CARBON/AIRSS/Generating-Clusters/LCBOP/Higher-Symm/SD-CG/FIRE-CG
REM
REM
REM
REM
REM
REM ./C.cell (b20cbc046b6831c77cfcea5457e17084)
REM AIRSS Version 0.9.1 bugfix July 2018 build 013d7b7c2542+ Fri, 06 Jul 2018 19:26:36 +0100
REM compiler GCC version 9.2.1 20190827 (Red Hat 9.2.1-1)
REM options -cpp -mtune=generic -march=x86-64 -g -O0 -fpre-include=/usr/include/finclude/math-vector-fortran.h
REM seed 1762535393 -240183274 752988831 2069968125 -1307282362 -1236487002 -790398729 1147353366 207642244 -2038729274 667356709 1723543751 306482856 -366384845 763405061 1292517272 -116687284 -1004809537 -282715130 -2078001343 -2075056287 757759362 -1664274654 -1106969254 -110960284 -228652834 1618420388 1656629625 -1172752026 1414509258 2025996546 -1043327382 -1553320336
REM
CELL 1.54180   50.00000   50.00000   50.00000   90.00000   90.00000   90.00000
LATT -1
SFAC C  
C      1  0.5776970000000  0.5586610000000  0.4235620000000 1.0
C      1  0.5575230000000  0.5041800000000  0.5762970000000 1.0
C      1  0.4656040000000  0.5374170000000  0.4122060000000 1.0
C      1  0.4871980000000  0.4882930000000  0.5533060000000 1.0
C      1  0.5048580000000  0.4709490000000  0.4641000000000 1.0
C      1  0.5355440000000  0.5834110000000  0.4228960000000 1.0
C      1  0.4665980000000  0.4305160000000  0.5321660000000 1.0
C      1  0.4344260000000  0.4336250000000  0.5760260000000 1.0
C      1  0.4925850000000  0.6254740000000  0.5124520000000 1.0
C      1  0.4906430000000  0.5333010000000  0.4951780000000 1.0
C      1  0.5076190000000  0.4858470000000  0.5326410000000 1.0
C      1  0.5946970000000  0.4378860000000  0.5289680000000 1.0
C      1  0.5308030000000  0.6159020000000  0.4827600000000 1.0
C      1  0.4474790000000  0.6188400000000  0.5256340000000 1.0
C      1  0.4186650000000  0.4397730000000  0.4482740000000 1.0
C      1  0.4400750000000  0.5408640000000  0.4257460000000 1.0
C      1  0.5466130000000  0.5193020000000  0.5954880000000 1.0
C      1  0.5820190000000  0.4235960000000  0.5074900000000 1.0
C      1  0.4015880000000  0.4682940000000  0.5316090000000 1.0
C      1  0.4080850000000  0.4202790000000  0.5365000000000 1.0
C      1  0.5122500000000  0.4970680000000  0.4523650000000 1.0
C      1  0.5746660000000  0.4209600000000  0.5733600000000 1.0
C      1  0.4624590000000  0.4246200000000  0.4265370000000 1.0
C      1  0.4408980000000  0.4823330000000  0.4914130000000 1.0
C      1  0.4465770000000  0.4323870000000  0.4487180000000 1.0
C      1  0.5423420000000  0.4753250000000  0.4013290000000 1.0
C      1  0.4749980000000  0.5559750000000  0.3924680000000 1.0
C      1  0.5582280000000  0.4987490000000  0.5501430000000 1.0
C      1  0.5189480000000  0.5412670000000  0.4499730000000 1.0
C      1  0.4428010000000  0.5868560000000  0.4550260000000 1.0
C      1  0.4478110000000  0.6144150000000  0.4970140000000 1.0
C      1  0.4123030000000  0.5907170000000  0.5420490000000 1.0
C      1  0.5258150000000  0.5338630000000  0.5475150000000 1.0
C      1  0.5688970000000  0.5955300000000  0.4556940000000 1.0
C      1  0.5155090000000  0.5922610000000  0.4406360000000 1.0
C      1  0.5025130000000  0.5617470000000  0.3900450000000 1.0
C      1  0.5899410000000  0.3915660000000  0.4721450000000 1.0
C      1  0.4571080000000  0.5680190000000  0.3755620000000 1.0
C      1  0.4145610000000  0.4913930000000  0.4295130000000 1.0
C      1  0.5680140000000  0.4867410000000  0.3994110000000 1.0
C      1  0.5888070000000  0.4661540000000  0.4669500000000 1.0
C      1  0.4595060000000  0.4785260000000  0.5591930000000 1.0
C      1  0.5468800000000  0.5552890000000  0.5502150000000 1.0
C      1  0.5336320000000  0.6050610000000  0.5323090000000 1.0
C      1  0.4038570000000  0.6065100000000  0.4783080000000 1.0
C      1  0.5032440000000  0.4221510000000  0.5676500000000 1.0
C      1  0.5221200000000  0.4939200000000  0.4058450000000 1.0
C      1  0.5445230000000  0.4840190000000  0.4824920000000 1.0
C      1  0.4497410000000  0.5280860000000  0.4752800000000 1.0
C      1  0.5610870000000  0.3480890000000  0.4751750000000 1.0
C      1  0.5081850000000  0.5298130000000  0.5702480000000 1.0
C      1  0.4904580000000  0.5769300000000  0.4422930000000 1.0
C      1  0.5859360000000  0.4386280000000  0.4606960000000 1.0
C      1  0.3967860000000  0.4064700000000  0.5146580000000 1.0
C      1  0.4763890000000  0.6367370000000  0.5609730000000 1.0
C      1  0.4173740000000  0.4165190000000  0.5631690000000 1.0
C      1  0.4848990000000  0.5168170000000  0.5621560000000 1.0
C      1  0.4854860000000  0.4283430000000  0.4130460000000 1.0
C      1  0.4784940000000  0.4648550000000  0.4586720000000 1.0
C      1  0.5257940000000  0.4610210000000  0.6116680000000 1.0
C      1  0.5148050000000  0.5191110000000  0.4977730000000 1.0
C      1  0.5133920000000  0.4632980000000  0.5146760000000 1.0
C      1  0.5592960000000  0.4083970000000  0.5162080000000 1.0
C      1  0.5782960000000  0.3676750000000  0.4694290000000 1.0
C      1  0.5413400000000  0.3368200000000  0.5397250000000 1.0
C      1  0.4356130000000  0.5511020000000  0.5176040000000 1.0
C      1  0.4276410000000  0.6137880000000  0.5453200000000 1.0
C      1  0.5545480000000  0.5496670000000  0.5005270000000 1.0
C      1  0.4747440000000  0.6222760000000  0.4894380000000 1.0
C      1  0.4567010000000  0.4767080000000  0.3781570000000 1.0
C      1  0.5959280000000  0.4666550000000  0.5312020000000 1.0
C      1  0.5202620000000  0.6177870000000  0.5100850000000 1.0
C      1  0.4552400000000  0.6383420000000  0.5797990000000 1.0
C      1  0.5255460000000  0.5720570000000  0.3990930000000 1.0
C      1  0.4578920000000  0.6495200000000  0.6050310000000 1.0
C      1  0.5810700000000  0.5095010000000  0.4048100000000 1.0
C      1  0.5124470000000  0.6129700000000  0.4607720000000 1.0
C      1  0.4603850000000  0.6600300000000  0.6287490000000 1.0
C      1  0.4453760000000  0.4432840000000  0.5182440000000 1.0
C      1  0.5876860000000  0.4665040000000  0.5802520000000 1.0
C      1  0.4185950000000  0.4456810000000  0.5278880000000 1.0
C      1  0.3936110000000  0.4858930000000  0.5113090000000 1.0
C      1  0.4166640000000  0.5670140000000  0.5306520000000 1.0
C      1  0.4761800000000  0.5384210000000  0.4717370000000 1.0
C      1  0.4847740000000  0.5518300000000  0.5163560000000 1.0
C      1  0.4433980000000  0.5028120000000  0.5541000000000 1.0
C      1  0.5335730000000  0.4191700000000  0.5152150000000 1.0
C      1  0.3902780000000  0.5473200000000  0.4664770000000 1.0
C      1  0.5487590000000  0.3825380000000  0.5553040000000 1.0
C      1  0.5310600000000  0.3606030000000  0.5541350000000 1.0
C      1  0.4614070000000  0.4452530000000  0.4696440000000 1.0
C      1  0.5699090000000  0.5331350000000  0.5177670000000 1.0
C      1  0.4493770000000  0.4560280000000  0.5729510000000 1.0
C      1  0.5575000000000  0.6095770000000  0.4757280000000 1.0
C      1  0.4121960000000  0.4653490000000  0.4368490000000 1.0
C      1  0.5290380000000  0.5081940000000  0.4747790000000 1.0
C      1  0.4743910000000  0.6272120000000  0.5346730000000 1.0
C      1  0.5648990000000  0.3852930000000  0.5317610000000 1.0
C      1  0.6004350000000  0.4794410000000  0.5578100000000 1.0
C      1  0.4838750000000  0.6156380000000  0.4642320000000 1.0
C      1  0.5102660000000  0.4813630000000  0.6193180000000 1.0
C      1  0.4492630000000  0.4552060000000  0.4934600000000 1.0
C      1  0.5317730000000  0.5644930000000  0.5023900000000 1.0
C      1  0.5044410000000  0.3628900000000  0.5422010000000 1.0
C      1  0.5817980000000  0.4832750000000  0.5122270000000 1.0
C      1  0.5405200000000  0.4450470000000  0.5942210000000 1.0
C      1  0.5041370000000  0.5034430000000  0.4251850000000 1.0
C      1  0.4788800000000  0.5116600000000  0.4132630000000 1.0
C      1  0.4296860000000  0.5646800000000  0.4404330000000 1.0
C      1  0.5282170000000  0.4219010000000  0.5809050000000 1.0
C      1  0.4308820000000  0.6017710000000  0.4773760000000 1.0
C      1  0.5281310000000  0.3340900000000  0.5135830000000 1.0
C      1  0.4019840000000  0.5617190000000  0.4469480000000 1.0
C      1  0.3954620000000  0.4114750000000  0.4880440000000 1.0
C      1  0.5502710000000  0.4048740000000  0.5723180000000 1.0
C      1  0.5688480000000  0.4463750000000  0.5867660000000 1.0
C      1  0.3907500000000  0.4727700000000  0.5571430000000 1.0
C      1  0.4233510000000  0.5168540000000  0.4258510000000 1.0
C      1  0.5620760000000  0.5799750000000  0.4330250000000 1.0
C      1  0.6062570000000  0.5077670000000  0.5600510000000 1.0
C      1  0.4671820000000  0.4921130000000  0.3963820000000 1.0
C      1  0.4600120000000  0.5267100000000  0.5516530000000 1.0
C      1  0.5568580000000  0.4324040000000  0.4170120000000 1.0
C      1  0.5029640000000  0.3480460000000  0.5186290000000 1.0
C      1  0.5835200000000  0.5345420000000  0.4137460000000 1.0
C      1  0.5217680000000  0.4660000000000  0.4873400000000 1.0
C      1  0.5946890000000  0.4230520000000  0.5535060000000 1.0
C      1  0.5198880000000  0.5124850000000  0.5256590000000 1.0
C      1  0.4931050000000  0.4282670000000  0.5418640000000 1.0
C      1  0.4631020000000  0.4876480000000  0.4511840000000 1.0
C      1  0.4022750000000  0.5320920000000  0.4868080000000 1.0
C      1  0.5862250000000  0.3687820000000  0.5273400000000 1.0
C      1  0.5756160000000  0.4312660000000  0.4357590000000 1.0
C      1  0.4695480000000  0.5943400000000  0.4501660000000 1.0
C      1  0.6083180000000  0.4811790000000  0.4550470000000 1.0
C      1  0.5741210000000  0.5456790000000  0.5442360000000 1.0
C      1  0.5410940000000  0.5833880000000  0.5471320000000 1.0
C      1  0.5073600000000  0.5690530000000  0.5143020000000 1.0
C      1  0.3800630000000  0.4778250000000  0.5803690000000 1.0
C      1  0.4605550000000  0.5458510000000  0.5305560000000 1.0
C      1  0.5188160000000  0.5240100000000  0.5960620000000 1.0
C      1  0.5097090000000  0.4375420000000  0.4059330000000 1.0
C      1  0.4310720000000  0.6272380000000  0.5699460000000 1.0
C      1  0.3914760000000  0.5089670000000  0.4981940000000 1.0
C      1  0.5891920000000  0.4185990000000  0.4804690000000 1.0
C      1  0.4016770000000  0.4248480000000  0.4654850000000 1.0
C      1  0.5717250000000  0.4775270000000  0.4864330000000 1.0
C      1  0.4930750000000  0.5507910000000  0.4521710000000 1.0
C      1  0.5688270000000  0.5050780000000  0.5244050000000 1.0
C      1  0.4479910000000  0.5003420000000  0.4711000000000 1.0
C      1  0.4296240000000  0.5387540000000  0.4927400000000 1.0
C      1  0.5051400000000  0.5072970000000  0.6142370000000 1.0
C      1  0.5361510000000  0.4477890000000  0.4061260000000 1.0
C      1  0.5132970000000  0.4364870000000  0.5236610000000 1.0
C      1  0.5957630000000  0.5330930000000  0.5581910000000 1.0
C      1  0.5429200000000  0.3352560000000  0.4899780000000 1.0
END
