TITL C-3201377-4638-1407 1.1419620470609 125000 -315.960676035348 0 0 55 (C1) n - 1
REM
REM in /home/nfs/bkarasulu/CARBON/AIRSS/Generating-Clusters/LCBOP/Higher-Symm/SD-CG/FIRE-CG
REM
REM
REM
REM
REM
REM ./C.cell (b20cbc046b6831c77cfcea5457e17084)
REM AIRSS Version 0.9.1 bugfix July 2018 build 013d7b7c2542+ Fri, 06 Jul 2018 19:26:36 +0100
REM compiler GCC version 9.2.1 20190827 (Red Hat 9.2.1-1)
REM options -cpp -mtune=generic -march=x86-64 -g -O0 -fpre-include=/usr/include/finclude/math-vector-fortran.h
REM seed -579908493 -1454359435 1500309906 -720770210 898824482 1609203583 46045927 806953066 553827814 1721918040 -1086136799 -140154257 -339370118 2122275114 762320452 1717494352 1063665680 -1136237394 708938365 -478581441 267671448 1959668671 938152074 -537711513 -306468686 -781798551 -528254350 962893443 760439980 1584305787 1596645416 611331859 630847069
REM
CELL 1.54180   50.00000   50.00000   50.00000   90.00000   90.00000   90.00000
LATT -1
SFAC C  
C      1  0.4508960000000  0.5008500000000  0.5534770000000 1.0
C      1  0.4435880000000  0.4761510000000  0.3599560000000 1.0
C      1  0.4790980000000  0.4604760000000  0.4561780000000 1.0
C      1  0.5047320000000  0.5453220000000  0.6211730000000 1.0
C      1  0.6159710000000  0.4955140000000  0.5676020000000 1.0
C      1  0.4937720000000  0.6060330000000  0.5467000000000 1.0
C      1  0.5149620000000  0.5625320000000  0.6012900000000 1.0
C      1  0.4912080000000  0.4974830000000  0.4052170000000 1.0
C      1  0.4801740000000  0.5106230000000  0.5903680000000 1.0
C      1  0.4827480000000  0.4435810000000  0.3545970000000 1.0
C      1  0.5259690000000  0.4726720000000  0.4580130000000 1.0
C      1  0.4594760000000  0.4524500000000  0.4740670000000 1.0
C      1  0.5038720000000  0.5239430000000  0.5270450000000 1.0
C      1  0.4645190000000  0.4471660000000  0.5025040000000 1.0
C      1  0.4884370000000  0.4494580000000  0.5160660000000 1.0
C      1  0.5505770000000  0.4521700000000  0.5549730000000 1.0
C      1  0.5008620000000  0.5210450000000  0.4983540000000 1.0
C      1  0.5213370000000  0.5608240000000  0.5046520000000 1.0
C      1  0.5094320000000  0.5491970000000  0.6477320000000 1.0
C      1  0.4899360000000  0.6053820000000  0.6077920000000 1.0
C      1  0.5102990000000  0.4556010000000  0.5317740000000 1.0
C      1  0.4603360000000  0.4567880000000  0.3482750000000 1.0
C      1  0.5189790000000  0.5636150000000  0.5552400000000 1.0
C      1  0.5119230000000  0.5433480000000  0.4835610000000 1.0
C      1  0.4195800000000  0.4397980000000  0.4935440000000 1.0
C      1  0.5160910000000  0.5502830000000  0.5310350000000 1.0
C      1  0.4985810000000  0.5037000000000  0.5457580000000 1.0
C      1  0.5021980000000  0.4737360000000  0.4154900000000 1.0
C      1  0.6044790000000  0.5080720000000  0.5478680000000 1.0
C      1  0.5025220000000  0.4688530000000  0.4433740000000 1.0
C      1  0.5084990000000  0.4534830000000  0.3970470000000 1.0
C      1  0.4075250000000  0.4605970000000  0.3940330000000 1.0
C      1  0.4388960000000  0.4393840000000  0.5132810000000 1.0
C      1  0.4080040000000  0.4544520000000  0.4198710000000 1.0
C      1  0.5332280000000  0.4387820000000  0.5379160000000 1.0
C      1  0.5766770000000  0.5053590000000  0.5085600000000 1.0
C      1  0.5908830000000  0.5481020000000  0.5251010000000 1.0
C      1  0.5017970000000  0.5866380000000  0.5921470000000 1.0
C      1  0.4739530000000  0.5072480000000  0.3873350000000 1.0
C      1  0.4174980000000  0.4505430000000  0.4443260000000 1.0
C      1  0.5457240000000  0.4800180000000  0.4740500000000 1.0
C      1  0.5518450000000  0.5353600000000  0.5808250000000 1.0
C      1  0.5132780000000  0.5468040000000  0.4567790000000 1.0
C      1  0.4895080000000  0.5237950000000  0.6114950000000 1.0
C      1  0.5149950000000  0.4809680000000  0.5463910000000 1.0
C      1  0.4558320000000  0.4998040000000  0.3691380000000 1.0
C      1  0.5303590000000  0.5517980000000  0.5790890000000 1.0
C      1  0.5039190000000  0.5870490000000  0.5632590000000 1.0
C      1  0.4192810000000  0.4684770000000  0.3714980000000 1.0
C      1  0.5401930000000  0.4773270000000  0.5604590000000 1.0
C      1  0.4310500000000  0.4478760000000  0.4682530000000 1.0
C      1  0.5624950000000  0.4912540000000  0.4912070000000 1.0
C      1  0.4761190000000  0.5050680000000  0.5632100000000 1.0
C      1  0.5906950000000  0.5208280000000  0.5271470000000 1.0
C      1  0.5011900000000  0.4423190000000  0.3739080000000 1.0
END
