TITL C-3201379-3821-1763 -800.361840217249 125000 -234.777916657585 0 0 40 (C1) n - 1
REM
REM in /home/nfs/bkarasulu/CARBON/AIRSS/Generating-Clusters/LCBOP/Higher-Symm/SD-CG/FIRE-CG
REM
REM
REM
REM
REM
REM ./C.cell (b20cbc046b6831c77cfcea5457e17084)
REM AIRSS Version 0.9.1 bugfix July 2018 build 013d7b7c2542+ Fri, 06 Jul 2018 19:26:36 +0100
REM compiler GCC version 9.2.1 20190827 (Red Hat 9.2.1-1)
REM options -cpp -mtune=generic -march=x86-64 -g -O0 -fpre-include=/usr/include/finclude/math-vector-fortran.h
REM seed -1465893559 -1342293169 -1220501723 -1465931408 1668207442 719738979 901864384 -861652681 -1489661349 401718265 1826486442 -1160633192 -1051226045 271111405 47858176 -1882434830 1819939078 1334162077 -41606725 -1232312366 122503312 130960566 1221380350 -850984203 1254813534 -1599633559 1511072628 -724917180 -525290726 -586923628 2120459861 46785106 1336115788
REM
CELL 1.54180   50.00000   50.00000   50.00000   90.00000   90.00000   90.00000
LATT -1
SFAC C  
C      1  0.5525110000000  0.5122670000000  0.4632340000000 1.0
C      1  0.4724450000000  0.4955320000000  0.5149860000000 1.0
C      1  0.4648870000000  0.5106410000000  0.5375530000000 1.0
C      1  0.5785520000000  0.5053560000000  0.4716120000000 1.0
C      1  0.5383240000000  0.5366430000000  0.4710400000000 1.0
C      1  0.4914400000000  0.4732780000000  0.5154010000000 1.0
C      1  0.5103040000000  0.4694930000000  0.5354920000000 1.0
C      1  0.5446320000000  0.5516230000000  0.4936150000000 1.0
C      1  0.5604990000000  0.4430220000000  0.4929390000000 1.0
C      1  0.4778640000000  0.5708900000000  0.5080740000000 1.0
C      1  0.4889120000000  0.5585860000000  0.5309410000000 1.0
C      1  0.5711960000000  0.4650650000000  0.5069410000000 1.0
C      1  0.4467830000000  0.5001490000000  0.5559920000000 1.0
C      1  0.6004150000000  0.5170290000000  0.4600610000000 1.0
C      1  0.4792230000000  0.5643660000000  0.4821040000000 1.0
C      1  0.5367580000000  0.4394940000000  0.4809920000000 1.0
C      1  0.5166200000000  0.5619990000000  0.5343450000000 1.0
C      1  0.5607260000000  0.4693010000000  0.5326950000000 1.0
C      1  0.5377800000000  0.5596570000000  0.5181060000000 1.0
C      1  0.5359450000000  0.4699220000000  0.5428200000000 1.0
C      1  0.5127910000000  0.5374980000000  0.4567080000000 1.0
C      1  0.4926390000000  0.4616170000000  0.4885590000000 1.0
C      1  0.4640340000000  0.4997600000000  0.4877310000000 1.0
C      1  0.5349640000000  0.4965010000000  0.4466410000000 1.0
C      1  0.4869050000000  0.5417690000000  0.4676190000000 1.0
C      1  0.5158090000000  0.4561510000000  0.4730450000000 1.0
C      1  0.5133010000000  0.5151210000000  0.4391320000000 1.0
C      1  0.4728330000000  0.4754240000000  0.4734920000000 1.0
C      1  0.5816610000000  0.4862070000000  0.4919070000000 1.0
C      1  0.4757050000000  0.5362350000000  0.5413610000000 1.0
C      1  0.5192340000000  0.4740830000000  0.4521540000000 1.0
C      1  0.4716890000000  0.5185910000000  0.4685670000000 1.0
C      1  0.3765910000000  0.4874690000000  0.5665010000000 1.0
C      1  0.4023610000000  0.4875600000000  0.5703930000000 1.0
C      1  0.4408760000000  0.4749790000000  0.5968580000000 1.0
C      1  0.4594660000000  0.4802310000000  0.3993280000000 1.0
C      1  0.4723340000000  0.4860390000000  0.4212290000000 1.0
C      1  0.4512750000000  0.4633220000000  0.6177190000000 1.0
C      1  0.4300040000000  0.4875740000000  0.5744170000000 1.0
C      1  0.4862940000000  0.4922600000000  0.4448570000000 1.0
END
