TITL C-3201373-1215-1032 0.0211104098552132 125000 -727.598404298874 0 0 119 (C1) n - 1
REM
REM in /home/nfs/bkarasulu/CARBON/AIRSS/Generating-Clusters/LCBOP/Higher-Symm/SD-CG/FIRE-CG
REM
REM
REM
REM
REM
REM ./C.cell (b20cbc046b6831c77cfcea5457e17084)
REM AIRSS Version 0.9.1 bugfix July 2018 build 013d7b7c2542+ Fri, 06 Jul 2018 19:26:36 +0100
REM compiler GCC version 9.2.1 20190827 (Red Hat 9.2.1-1)
REM options -cpp -mtune=generic -march=x86-64 -g -O0 -fpre-include=/usr/include/finclude/math-vector-fortran.h
REM seed -459122524 2139026502 -1794869240 1992432914 1321022253 -731629242 1868955093 -2069420574 -551308231 1417603679 433203146 -1437472590 -505128269 1661863615 -1931766879 1668495201 444763648 -2086333978 546153906 716239458 78330947 2029533175 85619378 2071606520 1202792605 1831523810 -695348668 2088650417 -609184177 1047901831 -1889183258 -37627010 -1610742276
REM
CELL 1.54180   50.00000   50.00000   50.00000   90.00000   90.00000   90.00000
LATT -1
SFAC C  
C      1  0.5098300000000  0.5745150000000  0.4573920000000 1.0
C      1  0.4890430000000  0.4316720000000  0.4437790000000 1.0
C      1  0.4886690000000  0.5078070000000  0.4489940000000 1.0
C      1  0.5008900000000  0.4828870000000  0.4542840000000 1.0
C      1  0.5363830000000  0.5762950000000  0.4712110000000 1.0
C      1  0.4687560000000  0.4230830000000  0.4650930000000 1.0
C      1  0.4013760000000  0.4625320000000  0.4780790000000 1.0
C      1  0.6030450000000  0.5388160000000  0.4606320000000 1.0
C      1  0.4253090000000  0.5559550000000  0.4777830000000 1.0
C      1  0.5735810000000  0.4486180000000  0.4813640000000 1.0
C      1  0.3428290000000  0.4932910000000  0.5073980000000 1.0
C      1  0.5903310000000  0.5294940000000  0.5306670000000 1.0
C      1  0.5135110000000  0.5507290000000  0.5276320000000 1.0
C      1  0.5123640000000  0.4168530000000  0.5232630000000 1.0
C      1  0.5658460000000  0.3819290000000  0.4711800000000 1.0
C      1  0.4447480000000  0.6198710000000  0.4858660000000 1.0
C      1  0.5648930000000  0.4555340000000  0.4542740000000 1.0
C      1  0.4329080000000  0.5445910000000  0.4528910000000 1.0
C      1  0.5457450000000  0.5004290000000  0.5072970000000 1.0
C      1  0.4507930000000  0.4943360000000  0.4958520000000 1.0
C      1  0.4576860000000  0.4890430000000  0.5833570000000 1.0
C      1  0.5458030000000  0.5294840000000  0.5835800000000 1.0
C      1  0.5609840000000  0.5041840000000  0.4152850000000 1.0
C      1  0.4283640000000  0.5003100000000  0.4094110000000 1.0
C      1  0.4292710000000  0.6053270000000  0.5320690000000 1.0
C      1  0.5945340000000  0.3817210000000  0.5106840000000 1.0
C      1  0.5374680000000  0.4533360000000  0.4443940000000 1.0
C      1  0.4594180000000  0.5441230000000  0.4415740000000 1.0
C      1  0.5795550000000  0.3953580000000  0.4916050000000 1.0
C      1  0.4323680000000  0.6026920000000  0.5041860000000 1.0
C      1  0.5584810000000  0.5591760000000  0.4615570000000 1.0
C      1  0.4425230000000  0.4374500000000  0.4627200000000 1.0
C      1  0.5828490000000  0.4910650000000  0.4232040000000 1.0
C      1  0.4090150000000  0.5107140000000  0.4250600000000 1.0
C      1  0.5575770000000  0.5785670000000  0.5671080000000 1.0
C      1  0.4441850000000  0.4462640000000  0.5565010000000 1.0
C      1  0.4830450000000  0.4423040000000  0.3954760000000 1.0
C      1  0.5036890000000  0.5183520000000  0.3810410000000 1.0
C      1  0.3914390000000  0.4888810000000  0.4829840000000 1.0
C      1  0.6036570000000  0.5169540000000  0.4788340000000 1.0
C      1  0.5702450000000  0.4860930000000  0.5129830000000 1.0
C      1  0.4130360000000  0.5481920000000  0.5194740000000 1.0
C      1  0.5842030000000  0.4776820000000  0.4475330000000 1.0
C      1  0.4136140000000  0.5221250000000  0.4501870000000 1.0
C      1  0.5062440000000  0.4551400000000  0.4949390000000 1.0
C      1  0.4945620000000  0.5380640000000  0.4852930000000 1.0
C      1  0.4257770000000  0.5842760000000  0.5487900000000 1.0
C      1  0.6083250000000  0.3690480000000  0.5288060000000 1.0
C      1  0.5234050000000  0.4312150000000  0.5985170000000 1.0
C      1  0.4813450000000  0.5816170000000  0.5914350000000 1.0
C      1  0.5301220000000  0.5239950000000  0.4499670000000 1.0
C      1  0.4596710000000  0.4689190000000  0.4297400000000 1.0
C      1  0.5404950000000  0.4790450000000  0.5788970000000 1.0
C      1  0.4617870000000  0.5372710000000  0.5742660000000 1.0
C      1  0.4800600000000  0.6015640000000  0.6098930000000 1.0
C      1  0.5192270000000  0.4208840000000  0.6234850000000 1.0
C      1  0.4503520000000  0.4645280000000  0.4563080000000 1.0
C      1  0.5493040000000  0.5326580000000  0.4677780000000 1.0
C      1  0.4520160000000  0.5430520000000  0.5477930000000 1.0
C      1  0.5528170000000  0.4709060000000  0.5540670000000 1.0
C      1  0.5302610000000  0.4045050000000  0.4432200000000 1.0
C      1  0.4676520000000  0.5957520000000  0.4476660000000 1.0
C      1  0.5065830000000  0.3770180000000  0.4954240000000 1.0
C      1  0.5674030000000  0.5465430000000  0.5298140000000 1.0
C      1  0.4995780000000  0.5814760000000  0.5701350000000 1.0
C      1  0.5186480000000  0.4155340000000  0.5756270000000 1.0
C      1  0.4479510000000  0.4660320000000  0.5739980000000 1.0
C      1  0.5538530000000  0.5548960000000  0.5796060000000 1.0
C      1  0.4260000000000  0.5774200000000  0.4943790000000 1.0
C      1  0.5771830000000  0.4232710000000  0.4918720000000 1.0
C      1  0.5950390000000  0.4902430000000  0.4718340000000 1.0
C      1  0.4042590000000  0.5136990000000  0.4766900000000 1.0
C      1  0.5299010000000  0.5058890000000  0.5833450000000 1.0
C      1  0.4736670000000  0.5122170000000  0.5820830000000 1.0
C      1  0.5749610000000  0.4845140000000  0.5415630000000 1.0
C      1  0.4276670000000  0.5568060000000  0.5418700000000 1.0
C      1  0.5335270000000  0.5047460000000  0.4260020000000 1.0
C      1  0.4541900000000  0.4954060000000  0.4194920000000 1.0
C      1  0.5557170000000  0.5950050000000  0.5456740000000 1.0
C      1  0.4462880000000  0.4311580000000  0.5346530000000 1.0
C      1  0.5410490000000  0.5777070000000  0.5002110000000 1.0
C      1  0.4742870000000  0.4134790000000  0.4920860000000 1.0
C      1  0.6047350000000  0.5248230000000  0.5064260000000 1.0
C      1  0.3662500000000  0.4905960000000  0.4953110000000 1.0
C      1  0.5447370000000  0.5259890000000  0.4951380000000 1.0
C      1  0.4629670000000  0.4765330000000  0.4784720000000 1.0
C      1  0.5473260000000  0.3863790000000  0.4525470000000 1.0
C      1  0.4571050000000  0.6153430000000  0.4624820000000 1.0
C      1  0.4675860000000  0.5171540000000  0.4333330000000 1.0
C      1  0.5246610000000  0.4783860000000  0.4393780000000 1.0
C      1  0.5154280000000  0.5120110000000  0.4034180000000 1.0
C      1  0.4774680000000  0.4477090000000  0.4216880000000 1.0
C      1  0.5196210000000  0.4435390000000  0.5172270000000 1.0
C      1  0.4903290000000  0.5422190000000  0.5127610000000 1.0
C      1  0.5039660000000  0.5274470000000  0.4611790000000 1.0
C      1  0.4911660000000  0.4712680000000  0.4780660000000 1.0
C      1  0.5020140000000  0.4959090000000  0.5351060000000 1.0
C      1  0.4762310000000  0.4895340000000  0.5346360000000 1.0
C      1  0.4814860000000  0.5710570000000  0.4478470000000 1.0
C      1  0.5187630000000  0.4301730000000  0.4442280000000 1.0
C      1  0.5894880000000  0.5075940000000  0.5493130000000 1.0
C      1  0.3198230000000  0.4960650000000  0.5193410000000 1.0
C      1  0.4594090000000  0.5057890000000  0.5194600000000 1.0
C      1  0.5255030000000  0.4887470000000  0.5230980000000 1.0
C      1  0.4984880000000  0.4021010000000  0.5027110000000 1.0
C      1  0.5412780000000  0.5496870000000  0.5139150000000 1.0
C      1  0.5324610000000  0.4576710000000  0.5953850000000 1.0
C      1  0.4644730000000  0.5591360000000  0.5918520000000 1.0
C      1  0.5840460000000  0.4730730000000  0.4927370000000 1.0
C      1  0.4114540000000  0.5354660000000  0.4946990000000 1.0
C      1  0.5093030000000  0.5673540000000  0.5498000000000 1.0
C      1  0.5149030000000  0.4089790000000  0.5500500000000 1.0
C      1  0.5489720000000  0.5973460000000  0.5194110000000 1.0
C      1  0.4552420000000  0.4200310000000  0.5121540000000 1.0
C      1  0.4159680000000  0.4401720000000  0.4726570000000 1.0
C      1  0.5858970000000  0.5592830000000  0.4555800000000 1.0
C      1  0.4658410000000  0.5330140000000  0.5249040000000 1.0
C      1  0.5336530000000  0.4625050000000  0.5333130000000 1.0
C      1  0.5017070000000  0.5095820000000  0.5861770000000 1.0
END
