TITL C-3201372-1405-1165 1258.45784352361 125000 -977.240879177668 0 0 160 (C1) n - 1
REM
REM in /home/nfs/bkarasulu/CARBON/AIRSS/Generating-Clusters/LCBOP/Higher-Symm/SD-CG/FIRE-CG
REM
REM
REM
REM
REM
REM ./C.cell (b20cbc046b6831c77cfcea5457e17084)
REM AIRSS Version 0.9.1 bugfix July 2018 build 013d7b7c2542+ Fri, 06 Jul 2018 19:26:36 +0100
REM compiler GCC version 9.2.1 20190827 (Red Hat 9.2.1-1)
REM options -cpp -mtune=generic -march=x86-64 -g -O0 -fpre-include=/usr/include/finclude/math-vector-fortran.h
REM seed -1146635854 -1081805873 513711916 -698228192 1639468823 2030427283 941972167 1805440994 -1718713573 1124711531 -228826272 2099753200 -16490085 991209476 200572941 2022983541 629632937 -255010199 1332746917 -1996701944 547474962 -584941390 1816752872 -751990758 -2028870112 -1009503246 148135747 563003320 -295527807 1017461555 322952586 1959324257 -1897803909
REM
CELL 1.54180   50.00000   50.00000   50.00000   90.00000   90.00000   90.00000
LATT -1
SFAC C  
C      1  0.6048570000000  0.4417510000000  0.5329320000000 1.0
C      1  0.4536160000000  0.6141480000000  0.4577560000000 1.0
C      1  0.5817820000000  0.4251710000000  0.5301330000000 1.0
C      1  0.5836640000000  0.5635270000000  0.4965460000000 1.0
C      1  0.4472270000000  0.6143720000000  0.4853440000000 1.0
C      1  0.5422170000000  0.5118610000000  0.5872700000000 1.0
C      1  0.6137280000000  0.4611720000000  0.5131470000000 1.0
C      1  0.6256690000000  0.4924560000000  0.4488810000000 1.0
C      1  0.4939710000000  0.4870790000000  0.4044460000000 1.0
C      1  0.4140770000000  0.5590710000000  0.4530260000000 1.0
C      1  0.5213310000000  0.4928050000000  0.5909310000000 1.0
C      1  0.5293510000000  0.6205400000000  0.5661320000000 1.0
C      1  0.4049700000000  0.5449170000000  0.5248810000000 1.0
C      1  0.5491480000000  0.5608830000000  0.5304900000000 1.0
C      1  0.5658990000000  0.4701470000000  0.4583800000000 1.0
C      1  0.5400210000000  0.5537790000000  0.4823280000000 1.0
C      1  0.5423800000000  0.4988030000000  0.4318200000000 1.0
C      1  0.5375960000000  0.5802420000000  0.4319520000000 1.0
C      1  0.5267450000000  0.4945280000000  0.5079810000000 1.0
C      1  0.4519910000000  0.4784600000000  0.4664350000000 1.0
C      1  0.4324730000000  0.5407070000000  0.3969900000000 1.0
C      1  0.5227920000000  0.6074000000000  0.4704320000000 1.0
C      1  0.4834780000000  0.4326340000000  0.6058480000000 1.0
C      1  0.4890400000000  0.3941240000000  0.4554130000000 1.0
C      1  0.4022920000000  0.5332770000000  0.5866050000000 1.0
C      1  0.5038750000000  0.3735170000000  0.5466200000000 1.0
C      1  0.5114010000000  0.6038470000000  0.5237740000000 1.0
C      1  0.4553330000000  0.4368620000000  0.4257320000000 1.0
C      1  0.5550350000000  0.5648980000000  0.5024650000000 1.0
C      1  0.5957430000000  0.5632380000000  0.5235800000000 1.0
C      1  0.4498980000000  0.4835080000000  0.5754830000000 1.0
C      1  0.5320760000000  0.6037890000000  0.5445540000000 1.0
C      1  0.4473490000000  0.4597010000000  0.5896850000000 1.0
C      1  0.4269260000000  0.4967340000000  0.4287650000000 1.0
C      1  0.6157420000000  0.4884790000000  0.5240990000000 1.0
C      1  0.4675490000000  0.6141060000000  0.5049460000000 1.0
C      1  0.4877320000000  0.5430890000000  0.6064780000000 1.0
C      1  0.4414310000000  0.5665960000000  0.3986780000000 1.0
C      1  0.4520250000000  0.4334210000000  0.4534650000000 1.0
C      1  0.4682090000000  0.4516770000000  0.4714940000000 1.0
C      1  0.4482260000000  0.5609100000000  0.5406580000000 1.0
C      1  0.5975310000000  0.5106720000000  0.5129610000000 1.0
C      1  0.4710630000000  0.5445490000000  0.5008370000000 1.0
C      1  0.4008870000000  0.4959210000000  0.4965960000000 1.0
C      1  0.5053240000000  0.4218870000000  0.4919340000000 1.0
C      1  0.3982830000000  0.4589530000000  0.4460520000000 1.0
C      1  0.4482500000000  0.5805770000000  0.4228680000000 1.0
C      1  0.5331450000000  0.3987490000000  0.4584860000000 1.0
C      1  0.5050850000000  0.5515420000000  0.4143410000000 1.0
C      1  0.4958690000000  0.5333040000000  0.5812590000000 1.0
C      1  0.5341050000000  0.5529500000000  0.4229920000000 1.0
C      1  0.5131940000000  0.5468070000000  0.4804040000000 1.0
C      1  0.5028940000000  0.5444810000000  0.5559340000000 1.0
C      1  0.5721910000000  0.4807510000000  0.5723740000000 1.0
C      1  0.5451090000000  0.4364100000000  0.4055630000000 1.0
C      1  0.4962800000000  0.4211420000000  0.5425390000000 1.0
C      1  0.5538190000000  0.4292400000000  0.4840600000000 1.0
C      1  0.4024100000000  0.5633270000000  0.5029780000000 1.0
C      1  0.4821460000000  0.6011310000000  0.5258270000000 1.0
C      1  0.4801970000000  0.4943860000000  0.5370520000000 1.0
C      1  0.5100860000000  0.3982360000000  0.4758240000000 1.0
C      1  0.5036970000000  0.4357020000000  0.4296360000000 1.0
C      1  0.5132960000000  0.4738280000000  0.3877530000000 1.0
C      1  0.5619850000000  0.5380410000000  0.5437230000000 1.0
C      1  0.5413080000000  0.4033500000000  0.5491810000000 1.0
C      1  0.4661540000000  0.4998910000000  0.4804440000000 1.0
C      1  0.4303780000000  0.5301780000000  0.4851520000000 1.0
C      1  0.4265220000000  0.4954890000000  0.5641230000000 1.0
C      1  0.5383750000000  0.5283100000000  0.4424550000000 1.0
C      1  0.4822290000000  0.5276220000000  0.6281230000000 1.0
C      1  0.5858780000000  0.4554820000000  0.5749690000000 1.0
C      1  0.5265550000000  0.4662490000000  0.5032130000000 1.0
C      1  0.4929180000000  0.6025620000000  0.4322990000000 1.0
C      1  0.4527790000000  0.4880660000000  0.4377850000000 1.0
C      1  0.5043020000000  0.4484950000000  0.5416120000000 1.0
C      1  0.5601510000000  0.4325380000000  0.4307060000000 1.0
C      1  0.4775940000000  0.4321770000000  0.4944940000000 1.0
C      1  0.5022260000000  0.4072410000000  0.4338900000000 1.0
C      1  0.6091020000000  0.4555720000000  0.5583100000000 1.0
C      1  0.4974700000000  0.5048780000000  0.4499830000000 1.0
C      1  0.5376550000000  0.4768780000000  0.4521780000000 1.0
C      1  0.5553280000000  0.4823730000000  0.4116870000000 1.0
C      1  0.4843050000000  0.4657340000000  0.5308880000000 1.0
C      1  0.5492920000000  0.4773670000000  0.5554810000000 1.0
C      1  0.4550600000000  0.4193580000000  0.5654060000000 1.0
C      1  0.4950920000000  0.4641410000000  0.4673870000000 1.0
C      1  0.5287830000000  0.4609360000000  0.5487610000000 1.0
C      1  0.6202360000000  0.4829350000000  0.5526010000000 1.0
C      1  0.4911410000000  0.4081050000000  0.6153270000000 1.0
C      1  0.4820630000000  0.5018530000000  0.6360480000000 1.0
C      1  0.4584240000000  0.5392430000000  0.5252920000000 1.0
C      1  0.4074480000000  0.4676660000000  0.5022890000000 1.0
C      1  0.5551850000000  0.5318270000000  0.4693710000000 1.0
C      1  0.4034780000000  0.5914440000000  0.5039980000000 1.0
C      1  0.4656980000000  0.5836420000000  0.5416730000000 1.0
C      1  0.5424730000000  0.4444690000000  0.5927620000000 1.0
C      1  0.5848020000000  0.5855340000000  0.5406520000000 1.0
C      1  0.4644800000000  0.6016060000000  0.4344000000000 1.0
C      1  0.4208800000000  0.6096240000000  0.4944510000000 1.0
C      1  0.5641990000000  0.4191230000000  0.5528630000000 1.0
C      1  0.5527070000000  0.4190240000000  0.4562510000000 1.0
C      1  0.5890890000000  0.5344030000000  0.5320630000000 1.0
C      1  0.4590630000000  0.5295000000000  0.4780040000000 1.0
C      1  0.5205800000000  0.6085340000000  0.4970750000000 1.0
C      1  0.4077090000000  0.5075000000000  0.5811820000000 1.0
C      1  0.3992490000000  0.4399440000000  0.4652720000000 1.0
C      1  0.5734720000000  0.4945590000000  0.5004470000000 1.0
C      1  0.6070520000000  0.4983730000000  0.4676940000000 1.0
C      1  0.4260100000000  0.5171610000000  0.4088720000000 1.0
C      1  0.5730300000000  0.4583640000000  0.4337660000000 1.0
C      1  0.5550920000000  0.5864910000000  0.5428050000000 1.0
C      1  0.5887570000000  0.5021270000000  0.5811200000000 1.0
C      1  0.4886990000000  0.5470160000000  0.4380470000000 1.0
C      1  0.4094940000000  0.5551900000000  0.5727320000000 1.0
C      1  0.5221800000000  0.4644630000000  0.5995170000000 1.0
C      1  0.5385910000000  0.4639180000000  0.3975760000000 1.0
C      1  0.5839060000000  0.4826880000000  0.4756640000000 1.0
C      1  0.4119460000000  0.4414110000000  0.4910340000000 1.0
C      1  0.4606480000000  0.4350720000000  0.5885500000000 1.0
C      1  0.4331330000000  0.4210560000000  0.4951660000000 1.0
C      1  0.4405840000000  0.5617270000000  0.4431330000000 1.0
C      1  0.5884030000000  0.5426880000000  0.4776560000000 1.0
C      1  0.4797050000000  0.4418550000000  0.4148950000000 1.0
C      1  0.5083460000000  0.5311800000000  0.4550530000000 1.0
C      1  0.4984960000000  0.5472710000000  0.5039620000000 1.0
C      1  0.3802030000000  0.5250800000000  0.4571080000000 1.0
C      1  0.4803620000000  0.4950200000000  0.4282520000000 1.0
C      1  0.4144260000000  0.5524290000000  0.4804280000000 1.0
C      1  0.4621370000000  0.3895870000000  0.4632740000000 1.0
C      1  0.4671990000000  0.4179380000000  0.5398310000000 1.0
C      1  0.5148740000000  0.4568620000000  0.4481180000000 1.0
C      1  0.3900570000000  0.5468120000000  0.4435610000000 1.0
C      1  0.5285450000000  0.4393930000000  0.4945730000000 1.0
C      1  0.5073780000000  0.4705410000000  0.3606050000000 1.0
C      1  0.5655500000000  0.4354160000000  0.5768880000000 1.0
C      1  0.4870960000000  0.4759030000000  0.6309840000000 1.0
C      1  0.4203660000000  0.5568330000000  0.5469380000000 1.0
C      1  0.5526520000000  0.5282930000000  0.5684590000000 1.0
C      1  0.4628290000000  0.5453560000000  0.4516140000000 1.0
C      1  0.5069630000000  0.5354800000000  0.5289040000000 1.0
C      1  0.5137440000000  0.3990500000000  0.5461660000000 1.0
C      1  0.5067940000000  0.5067390000000  0.5258680000000 1.0
C      1  0.5187440000000  0.5983900000000  0.4439270000000 1.0
C      1  0.4760440000000  0.4923550000000  0.5673650000000 1.0
C      1  0.5492790000000  0.5071360000000  0.4956920000000 1.0
C      1  0.4558500000000  0.5114190000000  0.5304920000000 1.0
C      1  0.4567950000000  0.4229650000000  0.5131570000000 1.0
C      1  0.4971570000000  0.5526870000000  0.3883890000000 1.0
C      1  0.4434610000000  0.4105100000000  0.4688180000000 1.0
C      1  0.6065070000000  0.5223710000000  0.4848280000000 1.0
C      1  0.3939600000000  0.5022690000000  0.4676150000000 1.0
C      1  0.5725410000000  0.4217680000000  0.5036280000000 1.0
C      1  0.6143970000000  0.5025340000000  0.5720930000000 1.0
C      1  0.5014450000000  0.4670060000000  0.3354770000000 1.0
C      1  0.4966670000000  0.5042890000000  0.5818240000000 1.0
C      1  0.4290640000000  0.5037140000000  0.5368620000000 1.0
C      1  0.4930110000000  0.4915990000000  0.4742110000000 1.0
C      1  0.4052810000000  0.4863920000000  0.4456470000000 1.0
C      1  0.4980590000000  0.4563250000000  0.6134770000000 1.0
C      1  0.4089500000000  0.5152520000000  0.5185730000000 1.0
END
