TITL C-3201372-1405-601 -1.72215853206068e-06 125000 -404.543130697731 0 0 68 (C1) n - 1
REM
REM in /home/nfs/bkarasulu/CARBON/AIRSS/Generating-Clusters/LCBOP/Higher-Symm/SD-CG/FIRE-CG
REM
REM
REM
REM
REM
REM ./C.cell (b20cbc046b6831c77cfcea5457e17084)
REM AIRSS Version 0.9.1 bugfix July 2018 build 013d7b7c2542+ Fri, 06 Jul 2018 19:26:36 +0100
REM compiler GCC version 9.2.1 20190827 (Red Hat 9.2.1-1)
REM options -cpp -mtune=generic -march=x86-64 -g -O0 -fpre-include=/usr/include/finclude/math-vector-fortran.h
REM seed 347732858 1185795047 1362471169 1725639079 1697106013 997568422 -454109709 676138868 1692741618 -347635255 57490139 -2119104803 -1494582854 1150665017 -1517304404 -1548401108 -459747882 -513721411 222686538 727894011 1543722142 -1778457309 2118739719 -1778835236 -881136765 833542174 412632639 -605502559 1617561537 277305317 -454470681 -232168582 -1764391510
REM
CELL 1.54180   50.00000   50.00000   50.00000   90.00000   90.00000   90.00000
LATT -1
SFAC C  
C      1  0.5325200000000  0.3971000000000  0.5421060000000 1.0
C      1  0.5433600000000  0.6060970000000  0.5415810000000 1.0
C      1  0.4026140000000  0.4969980000000  0.5495850000000 1.0
C      1  0.4986600000000  0.5110220000000  0.4781230000000 1.0
C      1  0.4789350000000  0.4692840000000  0.4850420000000 1.0
C      1  0.5306800000000  0.4780920000000  0.4802100000000 1.0
C      1  0.4781070000000  0.4927610000000  0.4323980000000 1.0
C      1  0.5279890000000  0.5014960000000  0.4273330000000 1.0
C      1  0.4958110000000  0.5392520000000  0.4313280000000 1.0
C      1  0.4659280000000  0.4647770000000  0.5466610000000 1.0
C      1  0.5451300000000  0.4658130000000  0.5321100000000 1.0
C      1  0.5069480000000  0.5471930000000  0.5193140000000 1.0
C      1  0.4873130000000  0.5744010000000  0.5504050000000 1.0
C      1  0.4495040000000  0.4879730000000  0.5854830000000 1.0
C      1  0.5268930000000  0.4484930000000  0.5747860000000 1.0
C      1  0.5358000000000  0.5834430000000  0.5280180000000 1.0
C      1  0.4292750000000  0.5019710000000  0.5437120000000 1.0
C      1  0.5235820000000  0.4215170000000  0.5331320000000 1.0
C      1  0.4943780000000  0.5219300000000  0.5240730000000 1.0
C      1  0.4900910000000  0.4755170000000  0.5352010000000 1.0
C      1  0.5340760000000  0.4927150000000  0.5261410000000 1.0
C      1  0.4539710000000  0.4300750000000  0.4713540000000 1.0
C      1  0.5837850000000  0.5163470000000  0.4738260000000 1.0
C      1  0.4650290000000  0.5547060000000  0.4773770000000 1.0
C      1  0.5576060000000  0.4536950000000  0.5093050000000 1.0
C      1  0.5127220000000  0.5505780000000  0.4912650000000 1.0
C      1  0.4651840000000  0.4365560000000  0.5374460000000 1.0
C      1  0.4550640000000  0.5328100000000  0.4598130000000 1.0
C      1  0.5102800000000  0.4541720000000  0.4358630000000 1.0
C      1  0.5424270000000  0.5489170000000  0.4353660000000 1.0
C      1  0.4962600000000  0.5641380000000  0.4454240000000 1.0
C      1  0.4598610000000  0.4722660000000  0.4411200000000 1.0
C      1  0.5544200000000  0.4953400000000  0.4358470000000 1.0
C      1  0.5116230000000  0.4345320000000  0.4553460000000 1.0
C      1  0.5494520000000  0.5676820000000  0.4536500000000 1.0
C      1  0.4317320000000  0.5208900000000  0.4715410000000 1.0
C      1  0.5199120000000  0.4314430000000  0.4833770000000 1.0
C      1  0.5497240000000  0.5792290000000  0.4782300000000 1.0
C      1  0.4238410000000  0.5188710000000  0.4976630000000 1.0
C      1  0.5379250000000  0.5015910000000  0.4978540000000 1.0
C      1  0.4794970000000  0.5141320000000  0.5003360000000 1.0
C      1  0.4916580000000  0.4616160000000  0.5104500000000 1.0
C      1  0.5059110000000  0.4822940000000  0.4281390000000 1.0
C      1  0.5224560000000  0.5297560000000  0.4270980000000 1.0
C      1  0.4735750000000  0.5214360000000  0.4385780000000 1.0
C      1  0.5403050000000  0.4522830000000  0.4871030000000 1.0
C      1  0.5234670000000  0.5244620000000  0.4846820000000 1.0
C      1  0.4621710000000  0.4920960000000  0.4959070000000 1.0
C      1  0.4925620000000  0.5622500000000  0.4735070000000 1.0
C      1  0.4624170000000  0.4559300000000  0.4643140000000 1.0
C      1  0.5739760000000  0.5027980000000  0.4528020000000 1.0
C      1  0.4335720000000  0.5236070000000  0.5248020000000 1.0
C      1  0.5066970000000  0.4222530000000  0.5092830000000 1.0
C      1  0.5528840000000  0.5733550000000  0.5062190000000 1.0
C      1  0.4629070000000  0.5620140000000  0.5476220000000 1.0
C      1  0.4519740000000  0.4913530000000  0.6112040000000 1.0
C      1  0.5201900000000  0.4522690000000  0.5996840000000 1.0
C      1  0.4480950000000  0.4844950000000  0.5575600000000 1.0
C      1  0.5315250000000  0.4456160000000  0.5474690000000 1.0
C      1  0.5111810000000  0.5697430000000  0.5352630000000 1.0
C      1  0.4605900000000  0.4152720000000  0.4929850000000 1.0
C      1  0.5829580000000  0.5327390000000  0.4951050000000 1.0
C      1  0.4516520000000  0.5613290000000  0.5012750000000 1.0
C      1  0.4775240000000  0.4208010000000  0.5152020000000 1.0
C      1  0.5716810000000  0.5522450000000  0.5099460000000 1.0
C      1  0.4474980000000  0.5493510000000  0.5270700000000 1.0
C      1  0.5069700000000  0.4986460000000  0.5358930000000 1.0
C      1  0.5031270000000  0.4834140000000  0.4728390000000 1.0
END
