TITL C-3201379-3821-576 -2.51567164168533e-07 125000 -1120.56050490778 0 0 179 (C1) n - 1
REM
REM in /home/nfs/bkarasulu/CARBON/AIRSS/Generating-Clusters/LCBOP/Higher-Symm/SD-CG/FIRE-CG
REM
REM
REM
REM
REM
REM ./C.cell (b20cbc046b6831c77cfcea5457e17084)
REM AIRSS Version 0.9.1 bugfix July 2018 build 013d7b7c2542+ Fri, 06 Jul 2018 19:26:36 +0100
REM compiler GCC version 9.2.1 20190827 (Red Hat 9.2.1-1)
REM options -cpp -mtune=generic -march=x86-64 -g -O0 -fpre-include=/usr/include/finclude/math-vector-fortran.h
REM seed -9301751 -1150085459 -1418694834 1217520842 991167913 -629911088 1059892898 346408872 48930011 -394608224 -863719398 -1793773413 -836215891 -847212822 1673492205 860975916 796253380 -1033368831 -322760258 967485925 1417206263 -1073660171 735269773 493721230 1637674147 -412389157 -687324671 1461950769 -2050622718 -1182474521 -1875031170 838767968 -1310620060
REM
CELL 1.54180   50.00000   50.00000   50.00000   90.00000   90.00000   90.00000
LATT -1
SFAC C  
C      1  0.5316810000000  0.6190200000000  0.4887460000000 1.0
C      1  0.5369440000000  0.5123310000000  0.6138390000000 1.0
C      1  0.5365680000000  0.3842390000000  0.5188360000000 1.0
C      1  0.5286110000000  0.4849010000000  0.3843110000000 1.0
C      1  0.4659380000000  0.6189840000000  0.4878170000000 1.0
C      1  0.4726320000000  0.5130150000000  0.6201870000000 1.0
C      1  0.4714720000000  0.3810740000000  0.5155130000000 1.0
C      1  0.4651580000000  0.4905950000000  0.3776820000000 1.0
C      1  0.4722800000000  0.4473330000000  0.4316220000000 1.0
C      1  0.4769060000000  0.5583110000000  0.4518340000000 1.0
C      1  0.4721850000000  0.5509850000000  0.5626780000000 1.0
C      1  0.4779050000000  0.4443350000000  0.5460080000000 1.0
C      1  0.5244600000000  0.4366090000000  0.4291350000000 1.0
C      1  0.5265140000000  0.5599300000000  0.4521070000000 1.0
C      1  0.5242260000000  0.5375940000000  0.5495450000000 1.0
C      1  0.5298720000000  0.4466340000000  0.5447270000000 1.0
C      1  0.3706560000000  0.4927610000000  0.4791440000000 1.0
C      1  0.3710070000000  0.5213050000000  0.4942220000000 1.0
C      1  0.3716300000000  0.5079480000000  0.5213190000000 1.0
C      1  0.3716570000000  0.4804010000000  0.5090310000000 1.0
C      1  0.6275720000000  0.4933440000000  0.4812220000000 1.0
C      1  0.6287090000000  0.5208090000000  0.4938210000000 1.0
C      1  0.6314600000000  0.5092120000000  0.5215750000000 1.0
C      1  0.6308530000000  0.4789710000000  0.5100420000000 1.0
C      1  0.4411080000000  0.3989900000000  0.5102350000000 1.0
C      1  0.4367060000000  0.4932730000000  0.3984390000000 1.0
C      1  0.4388580000000  0.6031110000000  0.4911100000000 1.0
C      1  0.4411160000000  0.5109170000000  0.6039710000000 1.0
C      1  0.5628550000000  0.4004110000000  0.5160370000000 1.0
C      1  0.5529840000000  0.4858450000000  0.4010070000000 1.0
C      1  0.5589650000000  0.6033070000000  0.4920400000000 1.0
C      1  0.5632120000000  0.5091460000000  0.5999960000000 1.0
C      1  0.5279450000000  0.3745040000000  0.4550840000000 1.0
C      1  0.5269600000000  0.5581970000000  0.3809020000000 1.0
C      1  0.5254120000000  0.6107730000000  0.5575770000000 1.0
C      1  0.5213290000000  0.4416080000000  0.6170930000000 1.0
C      1  0.4654350000000  0.3798820000000  0.4508690000000 1.0
C      1  0.4652970000000  0.5526950000000  0.3820750000000 1.0
C      1  0.4654290000000  0.6196790000000  0.5491630000000 1.0
C      1  0.4600430000000  0.4494320000000  0.6164640000000 1.0
C      1  0.4718500000000  0.4709880000000  0.4167170000000 1.0
C      1  0.4738740000000  0.5773880000000  0.4714560000000 1.0
C      1  0.4736040000000  0.5278380000000  0.5778510000000 1.0
C      1  0.4762900000000  0.4252460000000  0.5260390000000 1.0
C      1  0.5187240000000  0.4403600000000  0.4022080000000 1.0
C      1  0.5238150000000  0.5774940000000  0.4733120000000 1.0
C      1  0.5244460000000  0.5175690000000  0.5687550000000 1.0
C      1  0.5257590000000  0.4280480000000  0.5247620000000 1.0
C      1  0.5619210000000  0.5609470000000  0.5674980000000 1.0
C      1  0.5672430000000  0.4353780000000  0.5696150000000 1.0
C      1  0.5689230000000  0.4294350000000  0.4407270000000 1.0
C      1  0.5683540000000  0.5674100000000  0.4352340000000 1.0
C      1  0.4297870000000  0.5675720000000  0.5698280000000 1.0
C      1  0.4351950000000  0.4302480000000  0.5619380000000 1.0
C      1  0.4285270000000  0.4340400000000  0.4328250000000 1.0
C      1  0.4336170000000  0.5672950000000  0.4365800000000 1.0
C      1  0.4073950000000  0.4617510000000  0.4667010000000 1.0
C      1  0.4071150000000  0.5349280000000  0.4619650000000 1.0
C      1  0.4062270000000  0.5409140000000  0.5357040000000 1.0
C      1  0.4084570000000  0.4663270000000  0.5399180000000 1.0
C      1  0.5918250000000  0.4601130000000  0.4716170000000 1.0
C      1  0.5912430000000  0.5341100000000  0.4640870000000 1.0
C      1  0.5969490000000  0.5417680000000  0.5376330000000 1.0
C      1  0.5963410000000  0.4672710000000  0.5440950000000 1.0
C      1  0.5379850000000  0.4827400000000  0.5125070000000 1.0
C      1  0.5318560000000  0.4700290000000  0.4638390000000 1.0
C      1  0.5352630000000  0.5252030000000  0.4827740000000 1.0
C      1  0.5556600000000  0.5279600000000  0.5228090000000 1.0
C      1  0.4695230000000  0.4819000000000  0.5173890000000 1.0
C      1  0.4706090000000  0.4710160000000  0.4701060000000 1.0
C      1  0.4696160000000  0.5186720000000  0.4784670000000 1.0
C      1  0.4563110000000  0.5280030000000  0.5245300000000 1.0
C      1  0.5270170000000  0.5681110000000  0.5004070000000 1.0
C      1  0.5213440000000  0.4905500000000  0.5622740000000 1.0
C      1  0.5268320000000  0.4349140000000  0.4972180000000 1.0
C      1  0.5251480000000  0.5124080000000  0.4389770000000 1.0
C      1  0.4681890000000  0.5667870000000  0.4974160000000 1.0
C      1  0.4680770000000  0.5015500000000  0.5660770000000 1.0
C      1  0.4720740000000  0.4336900000000  0.4992870000000 1.0
C      1  0.4722790000000  0.4973540000000  0.4298780000000 1.0
C      1  0.5087810000000  0.3569970000000  0.4483850000000 1.0
C      1  0.5083040000000  0.5659600000000  0.3632900000000 1.0
C      1  0.5099710000000  0.6316640000000  0.5641140000000 1.0
C      1  0.5027220000000  0.4359870000000  0.6355440000000 1.0
C      1  0.4820940000000  0.3593320000000  0.4466480000000 1.0
C      1  0.4815320000000  0.5636500000000  0.3637320000000 1.0
C      1  0.4837320000000  0.6360050000000  0.5601460000000 1.0
C      1  0.4760800000000  0.4396020000000  0.6356430000000 1.0
C      1  0.5287670000000  0.5473530000000  0.4065980000000 1.0
C      1  0.5244100000000  0.5856730000000  0.5454170000000 1.0
C      1  0.5237950000000  0.4527720000000  0.5916430000000 1.0
C      1  0.5304690000000  0.4019920000000  0.4597300000000 1.0
C      1  0.4674760000000  0.5425000000000  0.4080740000000 1.0
C      1  0.4651160000000  0.5924570000000  0.5422140000000 1.0
C      1  0.4639790000000  0.4574680000000  0.5899830000000 1.0
C      1  0.4664440000000  0.4074270000000  0.4562210000000 1.0
C      1  0.6043320000000  0.4864330000000  0.4672580000000 1.0
C      1  0.6069810000000  0.5376270000000  0.4886630000000 1.0
C      1  0.6112540000000  0.5156680000000  0.5397570000000 1.0
C      1  0.6091260000000  0.4638790000000  0.5179600000000 1.0
C      1  0.3933630000000  0.4872480000000  0.4644390000000 1.0
C      1  0.3927750000000  0.5374460000000  0.4875280000000 1.0
C      1  0.3934320000000  0.5144790000000  0.5375110000000 1.0
C      1  0.3940440000000  0.4646400000000  0.5143090000000 1.0
C      1  0.5203330000000  0.5021130000000  0.6357000000000 1.0
C      1  0.5194580000000  0.3626930000000  0.5083310000000 1.0
C      1  0.5132650000000  0.5034930000000  0.3674340000000 1.0
C      1  0.5127580000000  0.6371560000000  0.5020400000000 1.0
C      1  0.4924600000000  0.5017210000000  0.6383460000000 1.0
C      1  0.4914050000000  0.3615130000000  0.5065740000000 1.0
C      1  0.4856600000000  0.5057210000000  0.3635230000000 1.0
C      1  0.4847170000000  0.6372610000000  0.5012590000000 1.0
C      1  0.4890440000000  0.5351610000000  0.4627650000000 1.0
C      1  0.4782000000000  0.5421090000000  0.5371050000000 1.0
C      1  0.4896760000000  0.4681270000000  0.5349480000000 1.0
C      1  0.4873190000000  0.4551740000000  0.4540840000000 1.0
C      1  0.5187590000000  0.5324010000000  0.4598770000000 1.0
C      1  0.5036900000000  0.5334680000000  0.5306790000000 1.0
C      1  0.5204800000000  0.4739880000000  0.5371060000000 1.0
C      1  0.5142610000000  0.4539740000000  0.4492350000000 1.0
C      1  0.4182210000000  0.5427090000000  0.5629500000000 1.0
C      1  0.4210620000000  0.4395300000000  0.5398580000000 1.0
C      1  0.4191120000000  0.4598570000000  0.4395510000000 1.0
C      1  0.4200440000000  0.5615550000000  0.4604930000000 1.0
C      1  0.5812290000000  0.5411240000000  0.5628420000000 1.0
C      1  0.5821990000000  0.4411940000000  0.5463700000000 1.0
C      1  0.5776510000000  0.4550410000000  0.4473190000000 1.0
C      1  0.5794510000000  0.5613050000000  0.4607350000000 1.0
C      1  0.4086830000000  0.4482370000000  0.4934980000000 1.0
C      1  0.4081320000000  0.5077390000000  0.4481240000000 1.0
C      1  0.4071450000000  0.5545670000000  0.5080110000000 1.0
C      1  0.4086820000000  0.4940960000000  0.5541140000000 1.0
C      1  0.5927490000000  0.4475110000000  0.4989040000000 1.0
C      1  0.5890150000000  0.5066340000000  0.4529510000000 1.0
C      1  0.5945160000000  0.5550420000000  0.5094070000000 1.0
C      1  0.5963120000000  0.4950410000000  0.5562280000000 1.0
C      1  0.4565880000000  0.5395730000000  0.4975110000000 1.0
C      1  0.4568530000000  0.5012020000000  0.5381050000000 1.0
C      1  0.4646140000000  0.4610250000000  0.4958170000000 1.0
C      1  0.4649910000000  0.4965300000000  0.4582680000000 1.0
C      1  0.5433060000000  0.5445680000000  0.5025220000000 1.0
C      1  0.5598320000000  0.5002520000000  0.5240510000000 1.0
C      1  0.5366280000000  0.4611750000000  0.4908550000000 1.0
C      1  0.5413250000000  0.4912190000000  0.4479040000000 1.0
C      1  0.5787000000000  0.4269250000000  0.5186260000000 1.0
C      1  0.5663010000000  0.4859710000000  0.4333940000000 1.0
C      1  0.5774840000000  0.5770980000000  0.4890360000000 1.0
C      1  0.5799400000000  0.5132370000000  0.5756950000000 1.0
C      1  0.4234790000000  0.4264040000000  0.5118400000000 1.0
C      1  0.4217660000000  0.4886540000000  0.4258450000000 1.0
C      1  0.4217280000000  0.5761530000000  0.4884460000000 1.0
C      1  0.4223160000000  0.5140170000000  0.5764950000000 1.0
C      1  0.4878430000000  0.4002120000000  0.5294950000000 1.0
C      1  0.4813930000000  0.4699520000000  0.3904460000000 1.0
C      1  0.4844670000000  0.6034640000000  0.4708030000000 1.0
C      1  0.4894280000000  0.5270390000000  0.6008760000000 1.0
C      1  0.5163860000000  0.4020280000000  0.5303910000000 1.0
C      1  0.5094280000000  0.4630090000000  0.3886050000000 1.0
C      1  0.5132320000000  0.6035670000000  0.4713820000000 1.0
C      1  0.5176130000000  0.5240040000000  0.5956950000000 1.0
C      1  0.5132540000000  0.5239160000000  0.4155470000000 1.0
C      1  0.5103980000000  0.5805140000000  0.5209450000000 1.0
C      1  0.5080310000000  0.4753040000000  0.5828810000000 1.0
C      1  0.5135650000000  0.4164320000000  0.4785420000000 1.0
C      1  0.4841750000000  0.5201340000000  0.4152720000000 1.0
C      1  0.4808400000000  0.5813070000000  0.5198140000000 1.0
C      1  0.4795080000000  0.4796880000000  0.5823250000000 1.0
C      1  0.4837890000000  0.4174390000000  0.4778830000000 1.0
C      1  0.4603160000000  0.4405500000000  0.5681250000000 1.0
C      1  0.4551190000000  0.4260660000000  0.4372650000000 1.0
C      1  0.4592640000000  0.5581040000000  0.4299850000000 1.0
C      1  0.4561080000000  0.5738180000000  0.5621400000000 1.0
C      1  0.5400770000000  0.4421410000000  0.5708100000000 1.0
C      1  0.5430660000000  0.4185230000000  0.4401370000000 1.0
C      1  0.5415870000000  0.5614710000000  0.4283020000000 1.0
C      1  0.5363670000000  0.5625900000000  0.5561890000000 1.0
C      1  0.4812590000000  0.5025860000000  0.5003350000000 1.0
C      1  0.5249670000000  0.5043220000000  0.4977210000000 1.0
C      1  0.5035110000000  0.5137080000000  0.5113860000000 1.0
END
