TITL C-3201375-1262-603 0.348546697006531 125000 -300.325064138227 0 0 50 (C1) n - 1
REM
REM in /home/nfs/bkarasulu/CARBON/AIRSS/Generating-Clusters/LCBOP/Higher-Symm/SD-CG/FIRE-CG
REM
REM
REM
REM
REM
REM ./C.cell (b20cbc046b6831c77cfcea5457e17084)
REM AIRSS Version 0.9.1 bugfix July 2018 build 013d7b7c2542+ Fri, 06 Jul 2018 19:26:36 +0100
REM compiler GCC version 9.2.1 20190827 (Red Hat 9.2.1-1)
REM options -cpp -mtune=generic -march=x86-64 -g -O0 -fpre-include=/usr/include/finclude/math-vector-fortran.h
REM seed -106336195 -1267975873 -977330377 2036991120 660807329 1038391329 -1483164893 285669243 -1357654918 858055395 -1837496332 350155136 -989073434 1107919786 468597028 745723677 -1411221249 560662950 -689845520 1975083554 1654889235 1389309465 -526978090 -1268534072 -127685442 724389208 1104874698 -123580504 158035612 -1820885985 1322340328 1203071569 1678291978
REM
CELL 1.54180   50.00000   50.00000   50.00000   90.00000   90.00000   90.00000
LATT -1
SFAC C  
C      1  0.5181520000000  0.4521150000000  0.4650540000000 1.0
C      1  0.5932800000000  0.5832320000000  0.4680390000000 1.0
C      1  0.4707380000000  0.5036890000000  0.5794510000000 1.0
C      1  0.4751250000000  0.4791800000000  0.4734750000000 1.0
C      1  0.4196210000000  0.4971790000000  0.4465580000000 1.0
C      1  0.5529630000000  0.5029000000000  0.4844180000000 1.0
C      1  0.5053980000000  0.4666330000000  0.5825570000000 1.0
C      1  0.4963550000000  0.4703860000000  0.5364100000000 1.0
C      1  0.4990820000000  0.5411890000000  0.4761740000000 1.0
C      1  0.5042130000000  0.5200440000000  0.5505020000000 1.0
C      1  0.5540790000000  0.4852940000000  0.5339650000000 1.0
C      1  0.4883130000000  0.4977350000000  0.5380370000000 1.0
C      1  0.4537610000000  0.5557540000000  0.4889830000000 1.0
C      1  0.4620490000000  0.5297120000000  0.4470620000000 1.0
C      1  0.4903320000000  0.5251910000000  0.5757270000000 1.0
C      1  0.5505640000000  0.5093650000000  0.5480270000000 1.0
C      1  0.5462980000000  0.4375470000000  0.5288220000000 1.0
C      1  0.4414040000000  0.4944020000000  0.5085200000000 1.0
C      1  0.5015380000000  0.4261480000000  0.5174670000000 1.0
C      1  0.5661630000000  0.5428950000000  0.4604270000000 1.0
C      1  0.5284890000000  0.4283210000000  0.5087760000000 1.0
C      1  0.5583990000000  0.4886150000000  0.5062850000000 1.0
C      1  0.5423550000000  0.4611650000000  0.5442280000000 1.0
C      1  0.5313990000000  0.4357120000000  0.4817090000000 1.0
C      1  0.4602670000000  0.4507110000000  0.5085000000000 1.0
C      1  0.4370580000000  0.5172870000000  0.4450570000000 1.0
C      1  0.4397860000000  0.5540740000000  0.5116940000000 1.0
C      1  0.4972690000000  0.4686830000000  0.4626340000000 1.0
C      1  0.4844010000000  0.4480060000000  0.5227600000000 1.0
C      1  0.5163480000000  0.4638940000000  0.5563670000000 1.0
C      1  0.4097680000000  0.4733400000000  0.4533260000000 1.0
C      1  0.4198020000000  0.4336240000000  0.4846710000000 1.0
C      1  0.5093830000000  0.5224330000000  0.4343900000000 1.0
C      1  0.4828580000000  0.5236090000000  0.4285810000000 1.0
C      1  0.6006920000000  0.5580420000000  0.4288310000000 1.0
C      1  0.5362570000000  0.5550310000000  0.5406820000000 1.0
C      1  0.4575590000000  0.4759160000000  0.4951150000000 1.0
C      1  0.4417190000000  0.5090000000000  0.5328520000000 1.0
C      1  0.4831650000000  0.4804450000000  0.5909620000000 1.0
C      1  0.5812200000000  0.5403580000000  0.4362350000000 1.0
C      1  0.4710880000000  0.5434040000000  0.4708810000000 1.0
C      1  0.4339640000000  0.5359520000000  0.5306430000000 1.0
C      1  0.5460200000000  0.5248130000000  0.4682860000000 1.0
C      1  0.5194230000000  0.5295640000000  0.4600190000000 1.0
C      1  0.6068410000000  0.5795090000000  0.4445980000000 1.0
C      1  0.4615730000000  0.5007510000000  0.5512600000000 1.0
C      1  0.5304960000000  0.5289970000000  0.5464140000000 1.0
C      1  0.4092010000000  0.4500790000000  0.4664160000000 1.0
C      1  0.4400430000000  0.4322780000000  0.5023300000000 1.0
C      1  0.5737340000000  0.5657930000000  0.4758210000000 1.0
END
