TITL C-3201376-6384-2005 -59779.2183647077 125000 -511.37973329247 0 0 94 (D3) n - 1
REM
REM in /home/nfs/bkarasulu/CARBON/AIRSS/Generating-Clusters/LCBOP/Higher-Symm/SD-CG/FIRE-CG
REM
REM
REM
REM
REM
REM ./C.cell (b20cbc046b6831c77cfcea5457e17084)
REM AIRSS Version 0.9.1 bugfix July 2018 build 013d7b7c2542+ Fri, 06 Jul 2018 19:26:36 +0100
REM compiler GCC version 9.2.1 20190827 (Red Hat 9.2.1-1)
REM options -cpp -mtune=generic -march=x86-64 -g -O0 -fpre-include=/usr/include/finclude/math-vector-fortran.h
REM seed 515616002 -864080495 1315132168 -1461186642 -922059387 2032007594 162739272 1126748442 -304861022 -484404877 1136320360 -1204499977 -1681346447 1383359232 -1774785298 -54690145 478971502 -1798157918 772213517 634515705 -2093182622 1965716911 -1533815842 -475949147 -1536051190 -630985794 1209895700 1502430548 -343177018 2003951167 -826795983 -645501197 -1787120329
REM
CELL 1.54180   50.00000   50.00000   50.00000   90.00000   90.00000   90.00000
LATT -1
SFAC C  
C      1  0.5359650000000  0.5162590000000  0.5342720000000 1.0
C      1  0.4687930000000  0.5224230000000  0.5342900000000 1.0
C      1  0.4970490000000  0.4611570000000  0.5343480000000 1.0
C      1  0.4652100000000  0.5162170000000  0.4649820000000 1.0
C      1  0.5323960000000  0.5223790000000  0.4649230000000 1.0
C      1  0.5041330000000  0.4611270000000  0.4649990000000 1.0
C      1  0.4580880000000  0.4383470000000  0.4453530000000 1.0
C      1  0.5750980000000  0.4938930000000  0.4452780000000 1.0
C      1  0.4684730000000  0.5674420000000  0.4452620000000 1.0
C      1  0.5430700000000  0.4384190000000  0.5539930000000 1.0
C      1  0.4260620000000  0.4939850000000  0.5540100000000 1.0
C      1  0.5326690000000  0.5675260000000  0.5539190000000 1.0
C      1  0.5861180000000  0.5288820000000  0.5288690000000 1.0
C      1  0.4327860000000  0.5595630000000  0.5289120000000 1.0
C      1  0.4828710000000  0.4113980000000  0.5289660000000 1.0
C      1  0.4150430000000  0.5288310000000  0.4703590000000 1.0
C      1  0.5684000000000  0.5595370000000  0.4703060000000 1.0
C      1  0.5182780000000  0.4113810000000  0.4704020000000 1.0
C      1  0.4225600000000  0.5021010000000  0.5261580000000 1.0
C      1  0.5377560000000  0.4313040000000  0.5261540000000 1.0
C      1  0.5414550000000  0.5664620000000  0.5260710000000 1.0
C      1  0.5786030000000  0.5020510000000  0.4731180000000 1.0
C      1  0.4634010000000  0.4312700000000  0.4732010000000 1.0
C      1  0.4596950000000  0.5664170000000  0.4731140000000 1.0
C      1  0.4813600000000  0.4766420000000  0.4565410000000 1.0
C      1  0.5303020000000  0.4949060000000  0.4564190000000 1.0
C      1  0.4900360000000  0.5281240000000  0.4564430000000 1.0
C      1  0.5197940000000  0.4767070000000  0.5428530000000 1.0
C      1  0.4708940000000  0.4949690000000  0.5428290000000 1.0
C      1  0.5111410000000  0.5282240000000  0.5427310000000 1.0
C      1  0.5053900000000  0.5200010000000  0.5947890000000 1.0
C      1  0.4802580000000  0.4928830000000  0.5950980000000 1.0
C      1  0.5151840000000  0.4857770000000  0.5948950000000 1.0
C      1  0.4965240000000  0.5210560000000  0.4041740000000 1.0
C      1  0.5201430000000  0.4943640000000  0.4043760000000 1.0
C      1  0.4856040000000  0.4857370000000  0.4044840000000 1.0
C      1  0.5097330000000  0.4220300000000  0.5207050000000 1.0
C      1  0.5634780000000  0.5468210000000  0.5206010000000 1.0
C      1  0.4285530000000  0.5309850000000  0.5206700000000 1.0
C      1  0.4914230000000  0.4220180000000  0.4786710000000 1.0
C      1  0.4376760000000  0.5467850000000  0.4786020000000 1.0
C      1  0.5726230000000  0.5309580000000  0.4785670000000 1.0
C      1  0.5023740000000  0.5731860000000  0.5574730000000 1.0
C      1  0.4363230000000  0.4648980000000  0.5575560000000 1.0
C      1  0.5631040000000  0.4618470000000  0.5575280000000 1.0
C      1  0.4987940000000  0.5730990000000  0.4417150000000 1.0
C      1  0.5648250000000  0.4648290000000  0.4417440000000 1.0
C      1  0.4380380000000  0.4617540000000  0.4418000000000 1.0
C      1  0.5436850000000  0.4303330000000  0.4727640000000 1.0
C      1  0.5392820000000  0.5720580000000  0.4726940000000 1.0
C      1  0.4187590000000  0.4973640000000  0.4727700000000 1.0
C      1  0.4574680000000  0.4303540000000  0.5265780000000 1.0
C      1  0.4618960000000  0.5720770000000  0.5265020000000 1.0
C      1  0.5824080000000  0.4974030000000  0.5265080000000 1.0
C      1  0.5197450000000  0.4800450000000  0.4768560000000 1.0
C      1  0.5082290000000  0.5264270000000  0.4768350000000 1.0
C      1  0.4737870000000  0.4932740000000  0.4769210000000 1.0
C      1  0.4814600000000  0.4800630000000  0.5224360000000 1.0
C      1  0.4929510000000  0.5264670000000  0.5223500000000 1.0
C      1  0.5273860000000  0.4932800000000  0.5224150000000 1.0
C      1  0.5580110000000  0.5135670000000  0.4283010000000 1.0
C      1  0.4600230000000  0.5427540000000  0.4283220000000 1.0
C      1  0.4836680000000  0.4433570000000  0.4283930000000 1.0
C      1  0.4432170000000  0.5136470000000  0.5709490000000 1.0
C      1  0.5411210000000  0.5428670000000  0.5708770000000 1.0
C      1  0.5174880000000  0.4433800000000  0.5709710000000 1.0
C      1  0.5696910000000  0.4907190000000  0.5531110000000 1.0
C      1  0.4740830000000  0.5644270000000  0.5530880000000 1.0
C      1  0.4580410000000  0.4447380000000  0.5531650000000 1.0
C      1  0.4314780000000  0.4906350000000  0.4461840000000 1.0
C      1  0.5271120000000  0.5643710000000  0.4461070000000 1.0
C      1  0.5431150000000  0.4446880000000  0.4461610000000 1.0
C      1  0.4872470000000  0.5315050000000  0.4271960000000 1.0
C      1  0.4798460000000  0.4725810000000  0.4272930000000 1.0
C      1  0.5346010000000  0.4956730000000  0.4271430000000 1.0
C      1  0.5139010000000  0.5315650000000  0.5719780000000 1.0
C      1  0.5212800000000  0.4726010000000  0.5721290000000 1.0
C      1  0.4665720000000  0.4956940000000  0.5720750000000 1.0
C      1  0.4286120000000  0.4792850000000  0.4999590000000 1.0
C      1  0.5544490000000  0.4479310000000  0.4999240000000 1.0
C      1  0.5186860000000  0.5725900000000  0.4998620000000 1.0
C      1  0.5725500000000  0.4792820000000  0.4993470000000 1.0
C      1  0.4467090000000  0.4479260000000  0.4994090000000 1.0
C      1  0.4824780000000  0.5725830000000  0.4993120000000 1.0
C      1  0.4890240000000  0.4444710000000  0.5579470000000 1.0
C      1  0.5544120000000  0.5176650000000  0.5578830000000 1.0
C      1  0.4584040000000  0.5377200000000  0.5579090000000 1.0
C      1  0.5121390000000  0.4444480000000  0.4413890000000 1.0
C      1  0.4467680000000  0.5175660000000  0.4413630000000 1.0
C      1  0.5428340000000  0.5376720000000  0.4413250000000 1.0
C      1  0.4471870000000  0.5307600000000  0.4996360000000 1.0
C      1  0.5539700000000  0.5307550000000  0.4995910000000 1.0
C      1  0.5005820000000  0.4382850000000  0.4996810000000 1.0
C      1  0.5006070000000  0.4999180000000  0.4996360000000 1.0
END
