TITL C-3201375-1262-398 -1.18234657044661e-07 125000 -780.896588319309 0 0 128 (C4h) n - 1
REM
REM in /home/nfs/bkarasulu/CARBON/AIRSS/Generating-Clusters/LCBOP/Higher-Symm/SD-CG/FIRE-CG
REM
REM
REM
REM
REM
REM ./C.cell (b20cbc046b6831c77cfcea5457e17084)
REM AIRSS Version 0.9.1 bugfix July 2018 build 013d7b7c2542+ Fri, 06 Jul 2018 19:26:36 +0100
REM compiler GCC version 9.2.1 20190827 (Red Hat 9.2.1-1)
REM options -cpp -mtune=generic -march=x86-64 -g -O0 -fpre-include=/usr/include/finclude/math-vector-fortran.h
REM seed -107583488 -2145395302 -298806222 -906907965 -231760690 -1987440079 1768991974 194972306 2117642185 -467335726 824425042 -825396763 -1978635669 -1481379502 2008644033 -403122251 -2058475945 1938073167 1236938949 -1850339571 1571532339 -784143212 -861017914 552909585 1029937390 -1996934108 1725350774 -1061615105 -1474525601 311992232 1171448573 -521768310 436843514
REM
CELL 1.54180   50.00000   50.00000   50.00000   90.00000   90.00000   90.00000
LATT -1
SFAC C  
C      1  0.4246020000000  0.4265380000000  0.5225100000000 1.0
C      1  0.4774900000000  0.4265380000000  0.4246020000000 1.0
C      1  0.5753980000000  0.4265380000000  0.4774910000000 1.0
C      1  0.5225100000000  0.4265390000000  0.5753990000000 1.0
C      1  0.4246020000000  0.5734620000000  0.5225090000000 1.0
C      1  0.4774900000000  0.5734610000000  0.4246010000000 1.0
C      1  0.5753980000000  0.5734620000000  0.4774900000000 1.0
C      1  0.5225100000000  0.5734620000000  0.5753980000000 1.0
C      1  0.4952660000000  0.4736090000000  0.4195100000000 1.0
C      1  0.5804900000000  0.4736100000000  0.4952660000000 1.0
C      1  0.5047340000000  0.4736100000000  0.5804910000000 1.0
C      1  0.4195100000000  0.4736100000000  0.5047350000000 1.0
C      1  0.4952660000000  0.5263900000000  0.4195090000000 1.0
C      1  0.5804900000000  0.5263900000000  0.4952650000000 1.0
C      1  0.5047340000000  0.5263910000000  0.5804900000000 1.0
C      1  0.4195100000000  0.5263900000000  0.5047340000000 1.0
C      1  0.4745610000000  0.5539570000000  0.5367320000000 1.0
C      1  0.4632670000000  0.5539570000000  0.4745610000000 1.0
C      1  0.5254380000000  0.5539570000000  0.4632670000000 1.0
C      1  0.5367330000000  0.5539570000000  0.5254380000000 1.0
C      1  0.4745620000000  0.4460430000000  0.5367330000000 1.0
C      1  0.4632670000000  0.4460430000000  0.4745620000000 1.0
C      1  0.5254390000000  0.4460430000000  0.4632680000000 1.0
C      1  0.5367330000000  0.4460430000000  0.5254390000000 1.0
C      1  0.5545500000000  0.5708390000000  0.4316040000000 1.0
C      1  0.5683950000000  0.5708400000000  0.5545490000000 1.0
C      1  0.4454500000000  0.5708400000000  0.5683950000000 1.0
C      1  0.4316050000000  0.5708390000000  0.4454500000000 1.0
C      1  0.5545500000000  0.4291600000000  0.4316050000000 1.0
C      1  0.5683950000000  0.4291610000000  0.5545500000000 1.0
C      1  0.4454500000000  0.4291610000000  0.5683960000000 1.0
C      1  0.4316050000000  0.4291600000000  0.4454510000000 1.0
C      1  0.4741760000000  0.4370690000000  0.5651720000000 1.0
C      1  0.4348280000000  0.4370680000000  0.4741770000000 1.0
C      1  0.5258240000000  0.4370680000000  0.4348290000000 1.0
C      1  0.5651720000000  0.4370680000000  0.5258240000000 1.0
C      1  0.4741760000000  0.5629320000000  0.5651710000000 1.0
C      1  0.4348280000000  0.5629320000000  0.4741760000000 1.0
C      1  0.5258240000000  0.5629310000000  0.4348280000000 1.0
C      1  0.5651720000000  0.5629320000000  0.5258230000000 1.0
C      1  0.5188200000000  0.5899870000000  0.5523500000000 1.0
C      1  0.4476490000000  0.5899870000000  0.5188200000000 1.0
C      1  0.4811800000000  0.5899870000000  0.4476480000000 1.0
C      1  0.5523510000000  0.5899870000000  0.4811790000000 1.0
C      1  0.5188200000000  0.4100130000000  0.5523520000000 1.0
C      1  0.4476490000000  0.4100130000000  0.5188210000000 1.0
C      1  0.4811800000000  0.4100130000000  0.4476500000000 1.0
C      1  0.5523510000000  0.4100130000000  0.4811800000000 1.0
C      1  0.5453730000000  0.4799520000000  0.4168990000000 1.0
C      1  0.5831010000000  0.4799530000000  0.5453730000000 1.0
C      1  0.4546270000000  0.4799530000000  0.5831010000000 1.0
C      1  0.4168990000000  0.4799520000000  0.4546270000000 1.0
C      1  0.5453730000000  0.5200470000000  0.4168990000000 1.0
C      1  0.5831010000000  0.5200480000000  0.5453730000000 1.0
C      1  0.4546270000000  0.5200480000000  0.5831010000000 1.0
C      1  0.4168990000000  0.5200470000000  0.4546270000000 1.0
C      1  0.4055890000000  0.5153920000000  0.5309930000000 1.0
C      1  0.4690070000000  0.5153910000000  0.4055890000000 1.0
C      1  0.5944110000000  0.5153910000000  0.4690070000000 1.0
C      1  0.5309930000000  0.5153920000000  0.5944110000000 1.0
C      1  0.4055890000000  0.4846090000000  0.5309930000000 1.0
C      1  0.4690070000000  0.4846080000000  0.4055890000000 1.0
C      1  0.5944110000000  0.4846080000000  0.4690070000000 1.0
C      1  0.5309930000000  0.4846090000000  0.5944110000000 1.0
C      1  0.5111780000000  0.4851200000000  0.5513140000000 1.0
C      1  0.4486860000000  0.4851200000000  0.5111780000000 1.0
C      1  0.4888220000000  0.4851200000000  0.4486860000000 1.0
C      1  0.5513140000000  0.4851200000000  0.4888220000000 1.0
C      1  0.5111780000000  0.5148800000000  0.5513140000000 1.0
C      1  0.4486860000000  0.5148800000000  0.5111780000000 1.0
C      1  0.4888220000000  0.5148800000000  0.4486860000000 1.0
C      1  0.5513140000000  0.5148800000000  0.4888220000000 1.0
C      1  0.4993040000000  0.4435430000000  0.5789710000000 1.0
C      1  0.4210290000000  0.4435430000000  0.4993040000000 1.0
C      1  0.5006960000000  0.4435420000000  0.4210290000000 1.0
C      1  0.5789710000000  0.4435430000000  0.5006970000000 1.0
C      1  0.4993040000000  0.5564580000000  0.5789710000000 1.0
C      1  0.4210290000000  0.5564570000000  0.4993030000000 1.0
C      1  0.5006960000000  0.5564570000000  0.4210290000000 1.0
C      1  0.5789710000000  0.5564570000000  0.5006960000000 1.0
C      1  0.4660690000000  0.4713330000000  0.4607770000000 1.0
C      1  0.5392240000000  0.4713330000000  0.4660690000000 1.0
C      1  0.5339310000000  0.4713340000000  0.5392240000000 1.0
C      1  0.4607760000000  0.4713340000000  0.5339320000000 1.0
C      1  0.4660690000000  0.5286660000000  0.4607760000000 1.0
C      1  0.5392240000000  0.5286660000000  0.4660680000000 1.0
C      1  0.5339310000000  0.5286670000000  0.5392230000000 1.0
C      1  0.4607760000000  0.5286670000000  0.5339310000000 1.0
C      1  0.5773300000000  0.4375090000000  0.4501530000000 1.0
C      1  0.5498470000000  0.4375100000000  0.5773310000000 1.0
C      1  0.4226700000000  0.4375100000000  0.5498480000000 1.0
C      1  0.4501530000000  0.4375090000000  0.4226700000000 1.0
C      1  0.5773300000000  0.5624900000000  0.4501520000000 1.0
C      1  0.5498470000000  0.5624910000000  0.5773300000000 1.0
C      1  0.4226700000000  0.5624910000000  0.5498470000000 1.0
C      1  0.4501530000000  0.5624900000000  0.4226690000000 1.0
C      1  0.4483030000000  0.4669000000000  0.4175380000000 1.0
C      1  0.5824620000000  0.4669000000000  0.4483040000000 1.0
C      1  0.5516970000000  0.4669010000000  0.5824620000000 1.0
C      1  0.4175380000000  0.4669010000000  0.5516970000000 1.0
C      1  0.4483030000000  0.5330990000000  0.4175380000000 1.0
C      1  0.5824620000000  0.5330990000000  0.4483030000000 1.0
C      1  0.5516970000000  0.5331000000000  0.5824620000000 1.0
C      1  0.4175380000000  0.5331000000000  0.5516960000000 1.0
C      1  0.5200460000000  0.4232060000000  0.5285170000000 1.0
C      1  0.4714840000000  0.4232060000000  0.5200470000000 1.0
C      1  0.4799540000000  0.4232050000000  0.4714840000000 1.0
C      1  0.5285160000000  0.4232060000000  0.4799540000000 1.0
C      1  0.5200460000000  0.5767950000000  0.5285160000000 1.0
C      1  0.4714840000000  0.5767940000000  0.5200460000000 1.0
C      1  0.4799540000000  0.5767940000000  0.4714830000000 1.0
C      1  0.5285160000000  0.5767940000000  0.4799530000000 1.0
C      1  0.4442750000000  0.5238350000000  0.5580430000000 1.0
C      1  0.4419570000000  0.5238340000000  0.4442750000000 1.0
C      1  0.5557250000000  0.5238340000000  0.4419570000000 1.0
C      1  0.5580430000000  0.5238350000000  0.5557240000000 1.0
C      1  0.4442750000000  0.4761660000000  0.5580430000000 1.0
C      1  0.4419570000000  0.4761650000000  0.4442760000000 1.0
C      1  0.5557250000000  0.4761650000000  0.4419570000000 1.0
C      1  0.5580430000000  0.4761660000000  0.5557250000000 1.0
C      1  0.5198250000000  0.5144970000000  0.4079140000000 1.0
C      1  0.5920860000000  0.5144980000000  0.5198250000000 1.0
C      1  0.4801750000000  0.5144990000000  0.5920860000000 1.0
C      1  0.4079140000000  0.5144980000000  0.4801750000000 1.0
C      1  0.5198250000000  0.4855010000000  0.4079140000000 1.0
C      1  0.5920860000000  0.4855020000000  0.5198250000000 1.0
C      1  0.4801750000000  0.4855030000000  0.5920860000000 1.0
C      1  0.4079140000000  0.4855020000000  0.4801750000000 1.0
END
