TITL C-3201379-3821-1050 56755.6306459 125000 -1220.90599797942 0 0 200 (C1) n - 1
REM
REM in /home/nfs/bkarasulu/CARBON/AIRSS/Generating-Clusters/LCBOP/Higher-Symm/SD-CG/FIRE-CG
REM
REM
REM
REM
REM
REM ./C.cell (b20cbc046b6831c77cfcea5457e17084)
REM AIRSS Version 0.9.1 bugfix July 2018 build 013d7b7c2542+ Fri, 06 Jul 2018 19:26:36 +0100
REM compiler GCC version 9.2.1 20190827 (Red Hat 9.2.1-1)
REM options -cpp -mtune=generic -march=x86-64 -g -O0 -fpre-include=/usr/include/finclude/math-vector-fortran.h
REM seed -1477897690 427174195 923312285 123397471 -317450097 -1926297534 -919013270 -1102941260 -269029387 -566608894 -773280368 -200871290 -1320154787 1559807448 -798961142 -1049552275 1307121965 1518104716 1640445931 -1597249933 -1336897009 666988688 -1042512103 721182055 1355104691 1402396248 -40914169 1030376868 294108311 2064731618 598761943 1213969943 171588660
REM
CELL 1.54180   50.00000   50.00000   50.00000   90.00000   90.00000   90.00000
LATT -1
SFAC C  
C      1  0.4862100000000  0.5680440000000  0.4196690000000 1.0
C      1  0.5769710000000  0.5645920000000  0.5295700000000 1.0
C      1  0.4380070000000  0.5679840000000  0.5489720000000 1.0
C      1  0.5227200000000  0.5291330000000  0.6117560000000 1.0
C      1  0.3897130000000  0.5282500000000  0.4572700000000 1.0
C      1  0.5938540000000  0.5430790000000  0.4459440000000 1.0
C      1  0.4002800000000  0.4900980000000  0.4770330000000 1.0
C      1  0.5691710000000  0.5020090000000  0.4311370000000 1.0
C      1  0.5302060000000  0.4869860000000  0.5967360000000 1.0
C      1  0.5160840000000  0.4361420000000  0.5219050000000 1.0
C      1  0.4699610000000  0.4362790000000  0.5010900000000 1.0
C      1  0.5096440000000  0.4458340000000  0.4737560000000 1.0
C      1  0.5429360000000  0.5377740000000  0.3961360000000 1.0
C      1  0.5656240000000  0.5267000000000  0.5887940000000 1.0
C      1  0.3887560000000  0.5377870000000  0.5076080000000 1.0
C      1  0.4402680000000  0.4453860000000  0.4988490000000 1.0
C      1  0.5280930000000  0.4500560000000  0.4491980000000 1.0
C      1  0.5282530000000  0.4489290000000  0.5485410000000 1.0
C      1  0.6163190000000  0.5280660000000  0.5316420000000 1.0
C      1  0.4183830000000  0.5336760000000  0.5813290000000 1.0
C      1  0.4703710000000  0.5317010000000  0.3833860000000 1.0
C      1  0.5288950000000  0.4377370000000  0.4964150000000 1.0
C      1  0.4860320000000  0.4366810000000  0.5249010000000 1.0
C      1  0.4815200000000  0.4370630000000  0.4738290000000 1.0
C      1  0.4291310000000  0.5930370000000  0.5099050000000 1.0
C      1  0.5237000000000  0.5923160000000  0.4424920000000 1.0
C      1  0.5496620000000  0.5973000000000  0.5562550000000 1.0
C      1  0.5250490000000  0.5834470000000  0.5623190000000 1.0
C      1  0.4338090000000  0.5831200000000  0.4829410000000 1.0
C      1  0.5378010000000  0.5888200000000  0.4679160000000 1.0
C      1  0.5856130000000  0.4502510000000  0.3853090000000 1.0
C      1  0.5844810000000  0.4360600000000  0.6011110000000 1.0
C      1  0.3607590000000  0.4472270000000  0.5208830000000 1.0
C      1  0.5490850000000  0.4711170000000  0.5471650000000 1.0
C      1  0.4320870000000  0.4679860000000  0.5170770000000 1.0
C      1  0.5145620000000  0.4724850000000  0.4345420000000 1.0
C      1  0.4208330000000  0.4046160000000  0.5192860000000 1.0
C      1  0.5251390000000  0.4062790000000  0.4270710000000 1.0
C      1  0.5529760000000  0.4069480000000  0.5563620000000 1.0
C      1  0.6269120000000  0.4556780000000  0.5096010000000 1.0
C      1  0.4257420000000  0.4621300000000  0.6005370000000 1.0
C      1  0.4525910000000  0.4581040000000  0.3825830000000 1.0
C      1  0.4300050000000  0.5037160000000  0.5468990000000 1.0
C      1  0.4896950000000  0.5048300000000  0.4137200000000 1.0
C      1  0.5785310000000  0.5047090000000  0.5359170000000 1.0
C      1  0.4492500000000  0.5919210000000  0.5327080000000 1.0
C      1  0.4940330000000  0.5926650000000  0.4370460000000 1.0
C      1  0.5654810000000  0.5907500000000  0.5325630000000 1.0
C      1  0.5635490000000  0.3973320000000  0.5082380000000 1.0
C      1  0.4567590000000  0.4039710000000  0.5565240000000 1.0
C      1  0.4738620000000  0.4025340000000  0.4363200000000 1.0
C      1  0.5428630000000  0.5511780000000  0.4946980000000 1.0
C      1  0.4703450000000  0.5426630000000  0.5295750000000 1.0
C      1  0.4750370000000  0.5528610000000  0.4621500000000 1.0
C      1  0.4344850000000  0.5071710000000  0.4039860000000 1.0
C      1  0.6100090000000  0.5028970000000  0.4915670000000 1.0
C      1  0.4525730000000  0.5118780000000  0.6065060000000 1.0
C      1  0.6050300000000  0.4372110000000  0.5026850000000 1.0
C      1  0.4364880000000  0.4464870000000  0.5796840000000 1.0
C      1  0.4640320000000  0.4439070000000  0.4042470000000 1.0
C      1  0.6032560000000  0.4426880000000  0.5542880000000 1.0
C      1  0.3923450000000  0.4495290000000  0.5601670000000 1.0
C      1  0.5052270000000  0.4473520000000  0.3791380000000 1.0
C      1  0.4384740000000  0.5226270000000  0.4281730000000 1.0
C      1  0.5862220000000  0.5178000000000  0.4874580000000 1.0
C      1  0.4724710000000  0.5268310000000  0.5919720000000 1.0
C      1  0.4654670000000  0.5547330000000  0.4018870000000 1.0
C      1  0.6015190000000  0.5513360000000  0.5189160000000 1.0
C      1  0.4369080000000  0.5563940000000  0.5759130000000 1.0
C      1  0.5435730000000  0.5554020000000  0.4185280000000 1.0
C      1  0.5389830000000  0.5392370000000  0.5890900000000 1.0
C      1  0.4021500000000  0.5405730000000  0.4808200000000 1.0
C      1  0.4103670000000  0.4854790000000  0.5931800000000 1.0
C      1  0.4667720000000  0.4818560000000  0.3737470000000 1.0
C      1  0.6267950000000  0.4776820000000  0.5285460000000 1.0
C      1  0.4839710000000  0.6172180000000  0.4829220000000 1.0
C      1  0.5283940000000  0.6171160000000  0.5102810000000 1.0
C      1  0.4971140000000  0.6157940000000  0.5104660000000 1.0
C      1  0.5183630000000  0.5243390000000  0.5180140000000 1.0
C      1  0.4711490000000  0.5339260000000  0.5014070000000 1.0
C      1  0.5071340000000  0.5258700000000  0.4736460000000 1.0
C      1  0.5554750000000  0.5207360000000  0.5397290000000 1.0
C      1  0.4329070000000  0.5182110000000  0.5217890000000 1.0
C      1  0.5053000000000  0.5210450000000  0.4311470000000 1.0
C      1  0.6088300000000  0.4880340000000  0.4478420000000 1.0
C      1  0.5016450000000  0.4805220000000  0.6304870000000 1.0
C      1  0.3862410000000  0.4762540000000  0.4362920000000 1.0
C      1  0.5775910000000  0.4996210000000  0.5890500000000 1.0
C      1  0.3829960000000  0.5105020000000  0.5201270000000 1.0
C      1  0.5411340000000  0.5094920000000  0.3894900000000 1.0
C      1  0.4976830000000  0.4756320000000  0.3727400000000 1.0
C      1  0.6134480000000  0.4703220000000  0.5545970000000 1.0
C      1  0.3912050000000  0.4785380000000  0.5688360000000 1.0
C      1  0.5592910000000  0.5068370000000  0.4837880000000 1.0
C      1  0.4885140000000  0.5132160000000  0.5717460000000 1.0
C      1  0.4478720000000  0.5080130000000  0.4525180000000 1.0
C      1  0.5273830000000  0.5754770000000  0.4924940000000 1.0
C      1  0.4948180000000  0.5607870000000  0.5287850000000 1.0
C      1  0.4856860000000  0.5714080000000  0.4806830000000 1.0
C      1  0.5587980000000  0.6172600000000  0.5735560000000 1.0
C      1  0.4021820000000  0.5863530000000  0.5187970000000 1.0
C      1  0.5389520000000  0.5836170000000  0.4191620000000 1.0
C      1  0.4246960000000  0.5113410000000  0.5994970000000 1.0
C      1  0.4526000000000  0.5078200000000  0.3815020000000 1.0
C      1  0.6249580000000  0.5042480000000  0.5157430000000 1.0
C      1  0.4673550000000  0.4917790000000  0.5030830000000 1.0
C      1  0.5055020000000  0.4741730000000  0.4827140000000 1.0
C      1  0.5036670000000  0.4814130000000  0.5286440000000 1.0
C      1  0.5696710000000  0.4112420000000  0.5323310000000 1.0
C      1  0.4303740000000  0.4126170000000  0.5459230000000 1.0
C      1  0.4970770000000  0.4122440000000  0.4202050000000 1.0
C      1  0.4264770000000  0.4188560000000  0.4945320000000 1.0
C      1  0.5422180000000  0.4239730000000  0.4429920000000 1.0
C      1  0.5305190000000  0.4236560000000  0.5648380000000 1.0
C      1  0.5945890000000  0.4388810000000  0.4728360000000 1.0
C      1  0.5016950000000  0.4339150000000  0.6046350000000 1.0
C      1  0.4067910000000  0.4283420000000  0.4494710000000 1.0
C      1  0.5865160000000  0.5627940000000  0.4687210000000 1.0
C      1  0.4803330000000  0.5772910000000  0.5804360000000 1.0
C      1  0.4375500000000  0.5758770000000  0.4355570000000 1.0
C      1  0.5367350000000  0.5048850000000  0.5040650000000 1.0
C      1  0.4779650000000  0.5174860000000  0.5450890000000 1.0
C      1  0.4773110000000  0.5062490000000  0.4608980000000 1.0
C      1  0.5508740000000  0.4654110000000  0.4629410000000 1.0
C      1  0.5042730000000  0.4672800000000  0.5551540000000 1.0
C      1  0.4406620000000  0.4604820000000  0.4707500000000 1.0
C      1  0.5519040000000  0.4950060000000  0.4553630000000 1.0
C      1  0.5137320000000  0.4921380000000  0.5718200000000 1.0
C      1  0.4302540000000  0.4896730000000  0.4736620000000 1.0
C      1  0.5151740000000  0.5000830000000  0.3773910000000 1.0
C      1  0.6018580000000  0.4932850000000  0.5715880000000 1.0
C      1  0.3861070000000  0.5028610000000  0.5502420000000 1.0
C      1  0.5260870000000  0.4356810000000  0.3655150000000 1.0
C      1  0.5994080000000  0.4307700000000  0.5795350000000 1.0
C      1  0.3709670000000  0.4399980000000  0.5445190000000 1.0
C      1  0.4545630000000  0.5409890000000  0.4791720000000 1.0
C      1  0.5328560000000  0.5378380000000  0.4697530000000 1.0
C      1  0.5162420000000  0.5438000000000  0.5399700000000 1.0
C      1  0.5584880000000  0.3845440000000  0.5715470000000 1.0
C      1  0.4052390000000  0.3819390000000  0.5177530000000 1.0
C      1  0.5359260000000  0.3827220000000  0.4176990000000 1.0
C      1  0.4803010000000  0.6028690000000  0.5354660000000 1.0
C      1  0.4737580000000  0.6053780000000  0.4570260000000 1.0
C      1  0.5575040000000  0.6048460000000  0.5081940000000 1.0
C      1  0.5671890000000  0.4191150000000  0.4609560000000 1.0
C      1  0.5055250000000  0.4184400000000  0.5804660000000 1.0
C      1  0.4261690000000  0.4130000000000  0.4649570000000 1.0
C      1  0.3835210000000  0.4888620000000  0.5003770000000 1.0
C      1  0.5607540000000  0.4940610000000  0.4043080000000 1.0
C      1  0.5582350000000  0.4800330000000  0.5984160000000 1.0
C      1  0.4886710000000  0.4779790000000  0.4235730000000 1.0
C      1  0.5714000000000  0.4775510000000  0.5310110000000 1.0
C      1  0.4374910000000  0.4763840000000  0.5442670000000 1.0
C      1  0.5176880000000  0.5011780000000  0.6187330000000 1.0
C      1  0.3879830000000  0.4996650000000  0.4527870000000 1.0
C      1  0.5946830000000  0.5130780000000  0.4394000000000 1.0
C      1  0.6007610000000  0.5144440000000  0.5514340000000 1.0
C      1  0.4087920000000  0.5190810000000  0.5590660000000 1.0
C      1  0.4949190000000  0.5179860000000  0.3879140000000 1.0
C      1  0.4429240000000  0.5513570000000  0.4213650000000 1.0
C      1  0.5928700000000  0.5459630000000  0.4914920000000 1.0
C      1  0.4641140000000  0.5546130000000  0.5866690000000 1.0
C      1  0.4981420000000  0.4547610000000  0.6216810000000 1.0
C      1  0.3944000000000  0.4501880000000  0.4388920000000 1.0
C      1  0.6043780000000  0.4621110000000  0.4570570000000 1.0
C      1  0.5437710000000  0.5440420000000  0.4445200000000 1.0
C      1  0.5278310000000  0.5538200000000  0.5652870000000 1.0
C      1  0.4286250000000  0.5536380000000  0.4806010000000 1.0
C      1  0.4499860000000  0.4026910000000  0.4505160000000 1.0
C      1  0.5640440000000  0.3993500000000  0.4813800000000 1.0
C      1  0.4815350000000  0.4059590000000  0.5686470000000 1.0
C      1  0.4167000000000  0.4328090000000  0.5629300000000 1.0
C      1  0.4898660000000  0.4313380000000  0.3986990000000 1.0
C      1  0.5929480000000  0.4289780000000  0.5298890000000 1.0
C      1  0.4409970000000  0.5450820000000  0.5313030000000 1.0
C      1  0.4913050000000  0.5458490000000  0.4387620000000 1.0
C      1  0.5562020000000  0.5450600000000  0.5219550000000 1.0
C      1  0.5481060000000  0.6009770000000  0.4002380000000 1.0
C      1  0.5671380000000  0.6359680000000  0.5896650000000 1.0
C      1  0.3875010000000  0.5633860000000  0.5205480000000 1.0
C      1  0.5723200000000  0.4713850000000  0.3927790000000 1.0
C      1  0.5673460000000  0.4553880000000  0.6079460000000 1.0
C      1  0.3664380000000  0.4669260000000  0.5038120000000 1.0
C      1  0.5711430000000  0.4644980000000  0.5069400000000 1.0
C      1  0.4535890000000  0.4594650000000  0.5605690000000 1.0
C      1  0.4682250000000  0.4588890000000  0.4283510000000 1.0
C      1  0.4802520000000  0.4958180000000  0.5269860000000 1.0
C      1  0.4809360000000  0.4865200000000  0.4794610000000 1.0
C      1  0.5198780000000  0.4819060000000  0.5055290000000 1.0
C      1  0.4627880000000  0.4505950000000  0.4548990000000 1.0
C      1  0.5528850000000  0.4535390000000  0.4893900000000 1.0
C      1  0.4788660000000  0.4509730000000  0.5507540000000 1.0
C      1  0.4462630000000  0.5925500000000  0.4579680000000 1.0
C      1  0.5655470000000  0.5908910000000  0.4766870000000 1.0
C      1  0.4961770000000  0.5918290000000  0.5605850000000 1.0
C      1  0.4384430000000  0.4949100000000  0.5024850000000 1.0
C      1  0.5242090000000  0.4998610000000  0.4422070000000 1.0
C      1  0.5376350000000  0.5001860000000  0.5530720000000 1.0
C      1  0.4981550000000  0.5276890000000  0.4986080000000 1.0
C      1  0.5016330000000  0.5732280000000  0.5034050000000 1.0
END
