TITL C-3201376-6384-524 -0.00517335162810769 125000 -428.163978728742 0 0 72 (C1) n - 1
REM
REM in /home/nfs/bkarasulu/CARBON/AIRSS/Generating-Clusters/LCBOP/Higher-Symm/SD-CG/FIRE-CG
REM
REM
REM
REM
REM
REM ./C.cell (b20cbc046b6831c77cfcea5457e17084)
REM AIRSS Version 0.9.1 bugfix July 2018 build 013d7b7c2542+ Fri, 06 Jul 2018 19:26:36 +0100
REM compiler GCC version 9.2.1 20190827 (Red Hat 9.2.1-1)
REM options -cpp -mtune=generic -march=x86-64 -g -O0 -fpre-include=/usr/include/finclude/math-vector-fortran.h
REM seed 1294571002 -1587040090 -1948813484 717849994 -1313934525 1130149782 -529324825 1544596959 690299886 1154983958 -1825303483 1562948289 1574660905 1931917743 -1464297144 1070866658 -1743440073 1408404608 -1796891607 -532209360 1969301503 -1452552364 -1483491354 1729778123 -817661030 -897819567 1321392747 2072357029 -1559028474 -1107381281 -955099446 1193871434 -499959427
REM
CELL 1.54180   50.00000   50.00000   50.00000   90.00000   90.00000   90.00000
LATT -1
SFAC C  
C      1  0.4343970000000  0.5033250000000  0.5529550000000 1.0
C      1  0.4705100000000  0.5131560000000  0.4344790000000 1.0
C      1  0.5374240000000  0.4891120000000  0.4274320000000 1.0
C      1  0.5198830000000  0.5119970000000  0.5884160000000 1.0
C      1  0.5633270000000  0.4290700000000  0.4842220000000 1.0
C      1  0.4734800000000  0.4494980000000  0.5844770000000 1.0
C      1  0.4710100000000  0.6016060000000  0.4967590000000 1.0
C      1  0.4979330000000  0.5128910000000  0.4408710000000 1.0
C      1  0.5323030000000  0.4877380000000  0.5883290000000 1.0
C      1  0.4286430000000  0.5290030000000  0.5624670000000 1.0
C      1  0.4664600000000  0.5532900000000  0.4627890000000 1.0
C      1  0.5394850000000  0.5182200000000  0.4659320000000 1.0
C      1  0.4856400000000  0.4506960000000  0.4365660000000 1.0
C      1  0.4158010000000  0.5095950000000  0.4018220000000 1.0
C      1  0.5611750000000  0.4399330000000  0.5578680000000 1.0
C      1  0.5720050000000  0.4298670000000  0.5348460000000 1.0
C      1  0.4742220000000  0.4476910000000  0.5280540000000 1.0
C      1  0.5438350000000  0.5707360000000  0.4581520000000 1.0
C      1  0.5262100000000  0.5905270000000  0.4549080000000 1.0
C      1  0.5112470000000  0.4155050000000  0.4951940000000 1.0
C      1  0.5002560000000  0.4560140000000  0.5270810000000 1.0
C      1  0.5198380000000  0.4649990000000  0.5765930000000 1.0
C      1  0.5158580000000  0.5472900000000  0.5380450000000 1.0
C      1  0.5256310000000  0.5250430000000  0.5273330000000 1.0
C      1  0.4580800000000  0.4800600000000  0.4972450000000 1.0
C      1  0.4818270000000  0.5730720000000  0.4499700000000 1.0
C      1  0.4315410000000  0.4709280000000  0.5006520000000 1.0
C      1  0.6129750000000  0.4199090000000  0.4655360000000 1.0
C      1  0.5335150000000  0.4459390000000  0.5603290000000 1.0
C      1  0.5248570000000  0.5062410000000  0.4446990000000 1.0
C      1  0.4443630000000  0.6020700000000  0.5646560000000 1.0
C      1  0.4495870000000  0.5771930000000  0.5546270000000 1.0
C      1  0.4813460000000  0.4939870000000  0.5643270000000 1.0
C      1  0.6026940000000  0.4858280000000  0.4482940000000 1.0
C      1  0.4345260000000  0.5549210000000  0.5625150000000 1.0
C      1  0.4663790000000  0.5761140000000  0.5078670000000 1.0
C      1  0.4763090000000  0.4661700000000  0.4806530000000 1.0
C      1  0.4100970000000  0.5280530000000  0.4206350000000 1.0
C      1  0.5414400000000  0.4374180000000  0.4676020000000 1.0
C      1  0.5117940000000  0.4796070000000  0.5165610000000 1.0
C      1  0.4907230000000  0.4681850000000  0.5742610000000 1.0
C      1  0.4676310000000  0.5273260000000  0.5041020000000 1.0
C      1  0.5838290000000  0.4923600000000  0.5183720000000 1.0
C      1  0.4871190000000  0.6108810000000  0.4772450000000 1.0
C      1  0.6159990000000  0.4830740000000  0.4260470000000 1.0
C      1  0.5726900000000  0.4941200000000  0.4928050000000 1.0
C      1  0.4705160000000  0.5731460000000  0.5359220000000 1.0
C      1  0.5287660000000  0.4195990000000  0.5173280000000 1.0
C      1  0.4954280000000  0.5154520000000  0.5768540000000 1.0
C      1  0.5276010000000  0.5022240000000  0.5111470000000 1.0
C      1  0.4540980000000  0.5335670000000  0.4464420000000 1.0
C      1  0.4733560000000  0.4670230000000  0.4194110000000 1.0
C      1  0.5137000000000  0.4332520000000  0.4729890000000 1.0
C      1  0.4140360000000  0.4842250000000  0.5471170000000 1.0
C      1  0.4958710000000  0.5639660000000  0.5435600000000 1.0
C      1  0.5569690000000  0.4231390000000  0.5116180000000 1.0
C      1  0.4656360000000  0.5523810000000  0.4914530000000 1.0
C      1  0.5460490000000  0.5035790000000  0.4894590000000 1.0
C      1  0.5889180000000  0.4252810000000  0.4740010000000 1.0
C      1  0.4614130000000  0.4986370000000  0.5440750000000 1.0
C      1  0.4650500000000  0.5016900000000  0.5152670000000 1.0
C      1  0.3953360000000  0.4770450000000  0.5656570000000 1.0
C      1  0.4610770000000  0.4921540000000  0.4171150000000 1.0
C      1  0.5189430000000  0.4373620000000  0.5372400000000 1.0
C      1  0.4145210000000  0.4728230000000  0.5213360000000 1.0
C      1  0.5944720000000  0.4944160000000  0.5420740000000 1.0
C      1  0.4920620000000  0.4493760000000  0.4638800000000 1.0
C      1  0.4386760000000  0.4955140000000  0.4004960000000 1.0
C      1  0.4269160000000  0.5364400000000  0.4398410000000 1.0
C      1  0.4986500000000  0.5944000000000  0.4575190000000 1.0
C      1  0.5476890000000  0.5448910000000  0.4631600000000 1.0
C      1  0.5883610000000  0.4881610000000  0.4704540000000 1.0
END
