TITL C-3201375-1262-288 67865.4637464029 125000 -730.797548473016 0 0 118 (C1) n - 1
REM
REM in /home/nfs/bkarasulu/CARBON/AIRSS/Generating-Clusters/LCBOP/Higher-Symm/SD-CG/FIRE-CG
REM
REM
REM
REM
REM
REM ./C.cell (b20cbc046b6831c77cfcea5457e17084)
REM AIRSS Version 0.9.1 bugfix July 2018 build 013d7b7c2542+ Fri, 06 Jul 2018 19:26:36 +0100
REM compiler GCC version 9.2.1 20190827 (Red Hat 9.2.1-1)
REM options -cpp -mtune=generic -march=x86-64 -g -O0 -fpre-include=/usr/include/finclude/math-vector-fortran.h
REM seed -1537297292 1850069591 -600121738 -1734123550 1228695304 -1720151452 680533576 611454983 961094225 1843200665 -1891875509 378226428 1520997427 -324097286 1067311533 1378640585 1223385405 -185304346 1469976994 135836178 -2005032575 -1272627494 -1196200717 1321675639 -1668950243 -1933542789 -603651401 -465707442 476748424 168208589 825522671 -1527611720 1930599921
REM
CELL 1.54180   50.00000   50.00000   50.00000   90.00000   90.00000   90.00000
LATT -1
SFAC C  
C      1  0.5389510000000  0.5974650000000  0.4868480000000 1.0
C      1  0.4670870000000  0.5946140000000  0.4720490000000 1.0
C      1  0.4905040000000  0.5965160000000  0.5425400000000 1.0
C      1  0.4996160000000  0.4631420000000  0.4590690000000 1.0
C      1  0.4722460000000  0.4733490000000  0.5167970000000 1.0
C      1  0.5351200000000  0.4695790000000  0.5166810000000 1.0
C      1  0.5099020000000  0.5186680000000  0.5253900000000 1.0
C      1  0.5176100000000  0.5166270000000  0.4768720000000 1.0
C      1  0.4723740000000  0.5183310000000  0.4951320000000 1.0
C      1  0.4830820000000  0.5760040000000  0.5621040000000 1.0
C      1  0.5593340000000  0.5767860000000  0.4844510000000 1.0
C      1  0.4556170000000  0.5739000000000  0.4550700000000 1.0
C      1  0.4954370000000  0.4291850000000  0.4938610000000 1.0
C      1  0.4866680000000  0.4309090000000  0.5202850000000 1.0
C      1  0.5231280000000  0.4306660000000  0.4932760000000 1.0
C      1  0.4740540000000  0.4346820000000  0.5632700000000 1.0
C      1  0.5677380000000  0.4313670000000  0.4873130000000 1.0
C      1  0.4280170000000  0.4268230000000  0.4541650000000 1.0
C      1  0.4893980000000  0.5274600000000  0.6003310000000 1.0
C      1  0.5938350000000  0.5294270000000  0.4623270000000 1.0
C      1  0.4202240000000  0.5256790000000  0.4401260000000 1.0
C      1  0.5509090000000  0.4919330000000  0.5154830000000 1.0
C      1  0.4876580000000  0.4857990000000  0.4489060000000 1.0
C      1  0.4634190000000  0.4930150000000  0.5337730000000 1.0
C      1  0.5468050000000  0.5351670000000  0.5686830000000 1.0
C      1  0.5374820000000  0.5360850000000  0.4255770000000 1.0
C      1  0.4171280000000  0.5307510000000  0.5062990000000 1.0
C      1  0.5017480000000  0.4688300000000  0.4066760000000 1.0
C      1  0.4263900000000  0.4699030000000  0.5564540000000 1.0
C      1  0.5808410000000  0.4624830000000  0.5380890000000 1.0
C      1  0.5271530000000  0.4636780000000  0.4645220000000 1.0
C      1  0.4645490000000  0.4646160000000  0.4909620000000 1.0
C      1  0.5177110000000  0.4622560000000  0.5372290000000 1.0
C      1  0.4413060000000  0.4851450000000  0.5754890000000 1.0
C      1  0.5945930000000  0.4753640000000  0.5175090000000 1.0
C      1  0.4729780000000  0.4732610000000  0.4080300000000 1.0
C      1  0.4584620000000  0.5593920000000  0.4280050000000 1.0
C      1  0.4594680000000  0.5604560000000  0.5736530000000 1.0
C      1  0.5818780000000  0.5630250000000  0.4995020000000 1.0
C      1  0.5111590000000  0.5261190000000  0.4127770000000 1.0
C      1  0.4200470000000  0.5243810000000  0.5375600000000 1.0
C      1  0.5706270000000  0.5272830000000  0.5510070000000 1.0
C      1  0.4655360000000  0.4925740000000  0.5630070000000 1.0
C      1  0.5764230000000  0.4899200000000  0.5013710000000 1.0
C      1  0.4630860000000  0.4825640000000  0.4332710000000 1.0
C      1  0.4824370000000  0.5301100000000  0.4509740000000 1.0
C      1  0.4667170000000  0.5373160000000  0.5362860000000 1.0
C      1  0.5487910000000  0.5350040000000  0.5088290000000 1.0
C      1  0.5053200000000  0.5067330000000  0.5881060000000 1.0
C      1  0.5764150000000  0.5077860000000  0.4541330000000 1.0
C      1  0.4222520000000  0.5032660000000  0.4584410000000 1.0
C      1  0.4214280000000  0.4551650000000  0.5062540000000 1.0
C      1  0.5414280000000  0.4624030000000  0.5802340000000 1.0
C      1  0.5544400000000  0.4656140000000  0.4231640000000 1.0
C      1  0.4687540000000  0.5448730000000  0.5963200000000 1.0
C      1  0.5988220000000  0.5488010000000  0.4808140000000 1.0
C      1  0.4337350000000  0.5438320000000  0.4246490000000 1.0
C      1  0.4906400000000  0.4162460000000  0.5447260000000 1.0
C      1  0.5423940000000  0.4155560000000  0.4781380000000 1.0
C      1  0.4336160000000  0.4091640000000  0.4743450000000 1.0
C      1  0.5150680000000  0.4006320000000  0.5356800000000 1.0
C      1  0.5229510000000  0.4029280000000  0.4589140000000 1.0
C      1  0.4471930000000  0.4080090000000  0.4998100000000 1.0
C      1  0.4719370000000  0.3923480000000  0.4988370000000 1.0
C      1  0.5054770000000  0.3854210000000  0.5123470000000 1.0
C      1  0.5028150000000  0.3884950000000  0.4757050000000 1.0
C      1  0.5395310000000  0.5601210000000  0.4407950000000 1.0
C      1  0.4279540000000  0.5551650000000  0.4945310000000 1.0
C      1  0.5314190000000  0.5590470000000  0.5643990000000 1.0
C      1  0.4148470000000  0.4915820000000  0.5380710000000 1.0
C      1  0.5721670000000  0.4919260000000  0.5575170000000 1.0
C      1  0.5176040000000  0.4949800000000  0.4074460000000 1.0
C      1  0.5519470000000  0.4881510000000  0.5772400000000 1.0
C      1  0.5458180000000  0.4911730000000  0.4158280000000 1.0
C      1  0.4110410000000  0.4821560000000  0.5105900000000 1.0
C      1  0.5504790000000  0.4572510000000  0.4493750000000 1.0
C      1  0.4384800000000  0.4592250000000  0.4842330000000 1.0
C      1  0.5196660000000  0.4546660000000  0.5647160000000 1.0
C      1  0.5394900000000  0.5341300000000  0.4819010000000 1.0
C      1  0.4643030000000  0.5315900000000  0.4723160000000 1.0
C      1  0.4947570000000  0.5358410000000  0.5417980000000 1.0
C      1  0.5104400000000  0.4411790000000  0.4170030000000 1.0
C      1  0.4424410000000  0.4430270000000  0.5491550000000 1.0
C      1  0.5659590000000  0.4337140000000  0.5221720000000 1.0
C      1  0.4312880000000  0.4547600000000  0.4573650000000 1.0
C      1  0.4926200000000  0.4556830000000  0.5757150000000 1.0
C      1  0.5724260000000  0.4553300000000  0.4683840000000 1.0
C      1  0.4598080000000  0.5166970000000  0.5195040000000 1.0
C      1  0.5372970000000  0.5149150000000  0.5238270000000 1.0
C      1  0.5009640000000  0.5099060000000  0.4549240000000 1.0
C      1  0.5374810000000  0.5853720000000  0.5555330000000 1.0
C      1  0.5281150000000  0.5859810000000  0.4395400000000 1.0
C      1  0.4324260000000  0.5811110000000  0.5053580000000 1.0
C      1  0.4884390000000  0.4848370000000  0.5777760000000 1.0
C      1  0.5777550000000  0.4844230000000  0.4733050000000 1.0
C      1  0.4368890000000  0.4803590000000  0.4455250000000 1.0
C      1  0.5037230000000  0.5551210000000  0.5596770000000 1.0
C      1  0.5486960000000  0.5557410000000  0.4670610000000 1.0
C      1  0.4458030000000  0.5522970000000  0.4724470000000 1.0
C      1  0.5300340000000  0.6059790000000  0.5122680000000 1.0
C      1  0.4929780000000  0.6047120000000  0.4670920000000 1.0
C      1  0.4725350000000  0.6033700000000  0.5217380000000 1.0
C      1  0.5160070000000  0.4192820000000  0.4341320000000 1.0
C      1  0.4344820000000  0.4329500000000  0.5217870000000 1.0
C      1  0.5427920000000  0.4141290000000  0.5344480000000 1.0
C      1  0.5341580000000  0.5110440000000  0.5810830000000 1.0
C      1  0.5564150000000  0.5132890000000  0.4316760000000 1.0
C      1  0.4144440000000  0.5047890000000  0.4896080000000 1.0
C      1  0.4563950000000  0.5961430000000  0.4996050000000 1.0
C      1  0.5195900000000  0.5994820000000  0.5377430000000 1.0
C      1  0.5205910000000  0.5997350000000  0.4637780000000 1.0
C      1  0.4836030000000  0.4487770000000  0.4771300000000 1.0
C      1  0.4918340000000  0.4577750000000  0.5273260000000 1.0
C      1  0.5307420000000  0.4578130000000  0.4923160000000 1.0
C      1  0.5719480000000  0.5455670000000  0.5213870000000 1.0
C      1  0.4830600000000  0.5423950000000  0.4255630000000 1.0
C      1  0.4448460000000  0.5445850000000  0.5529500000000 1.0
C      1  0.4998870000000  0.5147660000000  0.4991300000000 1.0
END
