TITL C-3201378-2706-616 -5.26155461627766e-07 125000 -528.440992165244 0 0 88 (C1) n - 1
REM
REM in /home/nfs/bkarasulu/CARBON/AIRSS/Generating-Clusters/LCBOP/Higher-Symm/SD-CG/FIRE-CG
REM
REM
REM
REM
REM
REM ./C.cell (b20cbc046b6831c77cfcea5457e17084)
REM AIRSS Version 0.9.1 bugfix July 2018 build 013d7b7c2542+ Fri, 06 Jul 2018 19:26:36 +0100
REM compiler GCC version 9.2.1 20190827 (Red Hat 9.2.1-1)
REM options -cpp -mtune=generic -march=x86-64 -g -O0 -fpre-include=/usr/include/finclude/math-vector-fortran.h
REM seed 147446919 -1945908129 129489774 1970486785 -426351515 -1374286221 -439152071 -2147320128 849772429 119838286 -1904088711 -369106272 1413508482 1593572497 -1320803899 -522342142 -17386509 1252987457 -1732580869 -1698984738 1069959878 -1510553342 -1459930062 1934826982 499859154 1859681792 -1033739218 2047154650 1654093943 -1250685396 -2059420175 -1004365978 1039597395
REM
CELL 1.54180   50.00000   50.00000   50.00000   90.00000   90.00000   90.00000
LATT -1
SFAC C  
C      1  0.5223650000000  0.5041950000000  0.4195690000000 1.0
C      1  0.5213290000000  0.5656650000000  0.5415970000000 1.0
C      1  0.5334900000000  0.4118400000000  0.5339760000000 1.0
C      1  0.5057850000000  0.4129540000000  0.4942580000000 1.0
C      1  0.4435400000000  0.5537370000000  0.4255330000000 1.0
C      1  0.4672290000000  0.5569330000000  0.5996670000000 1.0
C      1  0.5307240000000  0.5702700000000  0.4959990000000 1.0
C      1  0.5195430000000  0.4536140000000  0.5607040000000 1.0
C      1  0.5378320000000  0.4682840000000  0.4468040000000 1.0
C      1  0.4707460000000  0.5789540000000  0.5162520000000 1.0
C      1  0.4390330000000  0.4679430000000  0.5660900000000 1.0
C      1  0.4778240000000  0.4699990000000  0.4274340000000 1.0
C      1  0.4419620000000  0.5058320000000  0.4814650000000 1.0
C      1  0.4220540000000  0.5264960000000  0.5346140000000 1.0
C      1  0.4239360000000  0.4493020000000  0.4980400000000 1.0
C      1  0.5817970000000  0.5136850000000  0.4550880000000 1.0
C      1  0.5782520000000  0.5200370000000  0.5257730000000 1.0
C      1  0.5763780000000  0.4527380000000  0.4979380000000 1.0
C      1  0.5909420000000  0.4935540000000  0.5216130000000 1.0
C      1  0.5901680000000  0.4706570000000  0.4781390000000 1.0
C      1  0.5964650000000  0.5198870000000  0.4803410000000 1.0
C      1  0.5329240000000  0.4414990000000  0.4412220000000 1.0
C      1  0.5197240000000  0.5881490000000  0.4776610000000 1.0
C      1  0.5019960000000  0.4641490000000  0.5804610000000 1.0
C      1  0.4505390000000  0.5570340000000  0.5549740000000 1.0
C      1  0.4689770000000  0.4421580000000  0.5086910000000 1.0
C      1  0.4510660000000  0.5075090000000  0.4298070000000 1.0
C      1  0.5235480000000  0.4711800000000  0.5383090000000 1.0
C      1  0.5284210000000  0.4841260000000  0.4695850000000 1.0
C      1  0.5200480000000  0.5433220000000  0.4961930000000 1.0
C      1  0.4915430000000  0.4111430000000  0.4691090000000 1.0
C      1  0.4624790000000  0.5594770000000  0.4454180000000 1.0
C      1  0.4712200000000  0.5294400000000  0.5939080000000 1.0
C      1  0.4440710000000  0.5681040000000  0.5264540000000 1.0
C      1  0.4168680000000  0.4686250000000  0.5472180000000 1.0
C      1  0.4517230000000  0.4801870000000  0.4393930000000 1.0
C      1  0.5359630000000  0.4627410000000  0.5151420000000 1.0
C      1  0.5431290000000  0.5074240000000  0.4775330000000 1.0
C      1  0.5387590000000  0.5228040000000  0.5010040000000 1.0
C      1  0.4309100000000  0.5442380000000  0.5135190000000 1.0
C      1  0.4138520000000  0.4591870000000  0.5215440000000 1.0
C      1  0.4481640000000  0.4789350000000  0.4686380000000 1.0
C      1  0.4351880000000  0.5308230000000  0.5600100000000 1.0
C      1  0.4525660000000  0.4500240000000  0.4834160000000 1.0
C      1  0.4409740000000  0.5351340000000  0.4878460000000 1.0
C      1  0.5536900000000  0.5217490000000  0.4539140000000 1.0
C      1  0.5497210000000  0.5243880000000  0.5284310000000 1.0
C      1  0.5492190000000  0.4419750000000  0.5002400000000 1.0
C      1  0.5137220000000  0.5511420000000  0.4353570000000 1.0
C      1  0.5177000000000  0.5245710000000  0.5713980000000 1.0
C      1  0.5124170000000  0.3784510000000  0.4365860000000 1.0
C      1  0.5897020000000  0.5362500000000  0.5032970000000 1.0
C      1  0.5841160000000  0.4656740000000  0.5241560000000 1.0
C      1  0.5858120000000  0.4839550000000  0.4525900000000 1.0
C      1  0.4542760000000  0.4876580000000  0.5800180000000 1.0
C      1  0.4847660000000  0.4444540000000  0.4370420000000 1.0
C      1  0.4725180000000  0.5767900000000  0.4875040000000 1.0
C      1  0.4845680000000  0.4192530000000  0.5119940000000 1.0
C      1  0.4355430000000  0.5284460000000  0.4201030000000 1.0
C      1  0.4543750000000  0.5717010000000  0.5803620000000 1.0
C      1  0.4910300000000  0.5665420000000  0.4443000000000 1.0
C      1  0.4951860000000  0.5139580000000  0.5862930000000 1.0
C      1  0.5053830000000  0.4030460000000  0.4451730000000 1.0
C      1  0.4784110000000  0.4838920000000  0.5290730000000 1.0
C      1  0.4869940000000  0.5104450000000  0.4629290000000 1.0
C      1  0.4808070000000  0.5285300000000  0.5256060000000 1.0
C      1  0.4842670000000  0.4860690000000  0.5842020000000 1.0
C      1  0.5092390000000  0.4288600000000  0.4330040000000 1.0
C      1  0.4938770000000  0.5830800000000  0.4684510000000 1.0
C      1  0.4477500000000  0.5157620000000  0.5810360000000 1.0
C      1  0.4716560000000  0.4337030000000  0.4618850000000 1.0
C      1  0.4547680000000  0.5566090000000  0.4735610000000 1.0
C      1  0.4924580000000  0.5703250000000  0.5370700000000 1.0
C      1  0.4566850000000  0.4489790000000  0.5544210000000 1.0
C      1  0.4947720000000  0.4950280000000  0.4209080000000 1.0
C      1  0.5314410000000  0.5380080000000  0.5491980000000 1.0
C      1  0.5324550000000  0.4180430000000  0.5056080000000 1.0
C      1  0.5317110000000  0.5284170000000  0.4341350000000 1.0
C      1  0.4783830000000  0.5464990000000  0.5474210000000 1.0
C      1  0.4678820000000  0.4583210000000  0.5306170000000 1.0
C      1  0.4786620000000  0.5146350000000  0.4359240000000 1.0
C      1  0.5409100000000  0.4832410000000  0.4227650000000 1.0
C      1  0.5373610000000  0.5787180000000  0.5220680000000 1.0
C      1  0.5274630000000  0.4267720000000  0.5559520000000 1.0
C      1  0.5037940000000  0.4903350000000  0.5342450000000 1.0
C      1  0.5008920000000  0.4894320000000  0.4731780000000 1.0
C      1  0.4942610000000  0.5346290000000  0.5030330000000 1.0
C      1  0.6016350000000  0.4936930000000  0.4937420000000 1.0
END
