TITL C-3201372-1405-55 614.80860937378 125000 -195.491963565098 0 0 36 (C1) n - 1
REM
REM in /home/nfs/bkarasulu/CARBON/AIRSS/Generating-Clusters/LCBOP/Higher-Symm/SD-CG/FIRE-CG
REM
REM
REM
REM
REM
REM ./C.cell (b20cbc046b6831c77cfcea5457e17084)
REM AIRSS Version 0.9.1 bugfix July 2018 build 013d7b7c2542+ Fri, 06 Jul 2018 19:26:36 +0100
REM compiler GCC version 9.2.1 20190827 (Red Hat 9.2.1-1)
REM options -cpp -mtune=generic -march=x86-64 -g -O0 -fpre-include=/usr/include/finclude/math-vector-fortran.h
REM seed 350463111 -1881637995 598181222 536614956 -149803922 -1491905883 -1938609820 -1242230606 -1576248372 973320685 -1265471371 -1784269812 219476694 1085495834 478308323 -1844854557 -1355683278 1617552065 1587438711 724406172 1219539267 -1045836685 -382629002 392634127 -223387500 2042355168 -2134683882 204438419 -2111618601 2114139060 -795757226 -745559524 751441625
REM
CELL 1.54180   50.00000   50.00000   50.00000   90.00000   90.00000   90.00000
LATT -1
SFAC C  
C      1  0.4819830000000  0.4763580000000  0.4684590000000 1.0
C      1  0.4818160000000  0.4748160000000  0.5313870000000 1.0
C      1  0.5366320000000  0.4763120000000  0.5003690000000 1.0
C      1  0.5275420000000  0.5878300000000  0.4940160000000 1.0
C      1  0.4994510000000  0.5874230000000  0.4920260000000 1.0
C      1  0.4843530000000  0.5886900000000  0.5157280000000 1.0
C      1  0.4694590000000  0.5431760000000  0.5313540000000 1.0
C      1  0.5442470000000  0.5426530000000  0.5080190000000 1.0
C      1  0.4889190000000  0.5464040000000  0.4632410000000 1.0
C      1  0.4551110000000  0.4759460000000  0.4630930000000 1.0
C      1  0.4913400000000  0.4742270000000  0.5570850000000 1.0
C      1  0.5542310000000  0.4765330000000  0.4793530000000 1.0
C      1  0.5310840000000  0.5213710000000  0.5206800000000 1.0
C      1  0.5015740000000  0.5214720000000  0.4618720000000 1.0
C      1  0.4643300000000  0.5192440000000  0.5177220000000 1.0
C      1  0.5220070000000  0.4991710000000  0.5066030000000 1.0
C      1  0.4941940000000  0.4996840000000  0.4775490000000 1.0
C      1  0.4823790000000  0.4982950000000  0.5167030000000 1.0
C      1  0.5334610000000  0.4297050000000  0.5281190000000 1.0
C      1  0.5087280000000  0.4300870000000  0.4585130000000 1.0
C      1  0.4606520000000  0.4282110000000  0.5130090000000 1.0
C      1  0.4699220000000  0.4517360000000  0.5209240000000 1.0
C      1  0.5347810000000  0.4533590000000  0.5162520000000 1.0
C      1  0.4971950000000  0.4535270000000  0.4629410000000 1.0
C      1  0.4149260000000  0.5158580000000  0.4961140000000 1.0
C      1  0.5270430000000  0.5263350000000  0.5742780000000 1.0
C      1  0.5414820000000  0.5165770000000  0.4256850000000 1.0
C      1  0.5284520000000  0.5224230000000  0.5485490000000 1.0
C      1  0.5224460000000  0.5184440000000  0.4433850000000 1.0
C      1  0.4391920000000  0.5164530000000  0.5056030000000 1.0
C      1  0.5205020000000  0.4069440000000  0.4562170000000 1.0
C      1  0.4529310000000  0.4050760000000  0.5038080000000 1.0
C      1  0.5301400000000  0.4063220000000  0.5391520000000 1.0
C      1  0.4740950000000  0.5694170000000  0.5312430000000 1.0
C      1  0.5446630000000  0.5680290000000  0.4998340000000 1.0
C      1  0.4887390000000  0.5718920000000  0.4711190000000 1.0
END
