TITL C-3201376-6384-1469 2.29466148094448e-06 125000 -279.40921502129 0 0 49 (C1) n - 1
REM
REM in /home/nfs/bkarasulu/CARBON/AIRSS/Generating-Clusters/LCBOP/Higher-Symm/SD-CG/FIRE-CG
REM
REM
REM
REM
REM
REM ./C.cell (b20cbc046b6831c77cfcea5457e17084)
REM AIRSS Version 0.9.1 bugfix July 2018 build 013d7b7c2542+ Fri, 06 Jul 2018 19:26:36 +0100
REM compiler GCC version 9.2.1 20190827 (Red Hat 9.2.1-1)
REM options -cpp -mtune=generic -march=x86-64 -g -O0 -fpre-include=/usr/include/finclude/math-vector-fortran.h
REM seed 193724242 -3606024 931714775 1792780541 1072756081 -1539162695 648977562 509480192 1197425095 -1427294768 -359102600 883743691 2090941906 -1306216964 -233920115 20542246 387985943 -1643079899 688675028 -83878105 258866551 -333619007 -1059978802 97860380 -1333285020 842604873 1582485911 -1938396361 256129562 1389572174 -1549137784 1886027279 713989783
REM
CELL 1.54180   50.00000   50.00000   50.00000   90.00000   90.00000   90.00000
LATT -1
SFAC C  
C      1  0.5101240000000  0.4695770000000  0.4341830000000 1.0
C      1  0.5676680000000  0.4706080000000  0.5103830000000 1.0
C      1  0.4897740000000  0.4700250000000  0.5678030000000 1.0
C      1  0.4332940000000  0.4707900000000  0.4904860000000 1.0
C      1  0.5441360000000  0.4878380000000  0.5563350000000 1.0
C      1  0.4433900000000  0.4879930000000  0.5454070000000 1.0
C      1  0.4552150000000  0.4878460000000  0.4429870000000 1.0
C      1  0.5570970000000  0.4887850000000  0.4558650000000 1.0
C      1  0.4998980000000  0.5177990000000  0.5839170000000 1.0
C      1  0.4170660000000  0.5186500000000  0.5001680000000 1.0
C      1  0.5014430000000  0.5172960000000  0.4171570000000 1.0
C      1  0.5834900000000  0.5187130000000  0.5014280000000 1.0
C      1  0.4858290000000  0.5543950000000  0.4497770000000 1.0
C      1  0.5498890000000  0.5552590000000  0.4864450000000 1.0
C      1  0.5150640000000  0.5545510000000  0.5503150000000 1.0
C      1  0.4506640000000  0.5548890000000  0.5160510000000 1.0
C      1  0.4777140000000  0.4497680000000  0.5028900000000 1.0
C      1  0.4969030000000  0.4495270000000  0.4786550000000 1.0
C      1  0.5236270000000  0.4493270000000  0.4983680000000 1.0
C      1  0.5012510000000  0.4495830000000  0.5229840000000 1.0
C      1  0.5307270000000  0.5111100000000  0.5486150000000 1.0
C      1  0.4510680000000  0.5114680000000  0.5324700000000 1.0
C      1  0.4680930000000  0.5114220000000  0.4504910000000 1.0
C      1  0.5494370000000  0.5121510000000  0.4690220000000 1.0
C      1  0.4821540000000  0.5305110000000  0.4331210000000 1.0
C      1  0.5668270000000  0.5315850000000  0.4824910000000 1.0
C      1  0.5186320000000  0.5304160000000  0.5668500000000 1.0
C      1  0.4335920000000  0.5312160000000  0.5194460000000 1.0
C      1  0.5816110000000  0.4937650000000  0.5119520000000 1.0
C      1  0.4888510000000  0.4930660000000  0.5820210000000 1.0
C      1  0.4192200000000  0.4938950000000  0.4892150000000 1.0
C      1  0.5119430000000  0.4924130000000  0.4197600000000 1.0
C      1  0.4446270000000  0.4628970000000  0.5354690000000 1.0
C      1  0.4648680000000  0.4626950000000  0.4450700000000 1.0
C      1  0.5557010000000  0.4635630000000  0.4654400000000 1.0
C      1  0.5344950000000  0.4626170000000  0.5552760000000 1.0
C      1  0.4800310000000  0.5471940000000  0.5130440000000 1.0
C      1  0.4873290000000  0.5473580000000  0.4793370000000 1.0
C      1  0.5203780000000  0.5476780000000  0.4892640000000 1.0
C      1  0.5116590000000  0.5475320000000  0.5206740000000 1.0
C      1  0.5240890000000  0.5160280000000  0.4808660000000 1.0
C      1  0.5194880000000  0.5152250000000  0.5240870000000 1.0
C      1  0.4762380000000  0.5156030000000  0.5201100000000 1.0
C      1  0.4794270000000  0.5158190000000  0.4761090000000 1.0
C      1  0.5495720000000  0.4576990000000  0.4925850000000 1.0
C      1  0.5072130000000  0.4571270000000  0.5493470000000 1.0
C      1  0.4511580000000  0.4575790000000  0.5082910000000 1.0
C      1  0.4918660000000  0.4570550000000  0.4520580000000 1.0
C      1  0.4989290000000  0.5036060000000  0.4984260000000 1.0
END
