TITL C-3201378-2706-90 0.000761395879737525 125000 -305.44672598449 0 0 50 (Cs) n - 1
REM
REM in /home/nfs/bkarasulu/CARBON/AIRSS/Generating-Clusters/LCBOP/Higher-Symm/SD-CG/FIRE-CG
REM
REM
REM
REM
REM
REM ./C.cell (b20cbc046b6831c77cfcea5457e17084)
REM AIRSS Version 0.9.1 bugfix July 2018 build 013d7b7c2542+ Fri, 06 Jul 2018 19:26:36 +0100
REM compiler GCC version 9.2.1 20190827 (Red Hat 9.2.1-1)
REM options -cpp -mtune=generic -march=x86-64 -g -O0 -fpre-include=/usr/include/finclude/math-vector-fortran.h
REM seed 1711097096 -887586559 -739052911 -686144533 -1003545923 764128418 1631093622 1418459830 -794603494 -1159165323 -1018954997 220712005 2097803547 -156814358 62049903 1916185058 -1364829659 -862758505 -198336120 -520062672 45200387 1827542752 1790841988 544386529 248573345 -2062841850 260195499 2125362679 1241617514 -1904042985 1828886105 -1691120048 -1542718449
REM
CELL 1.54180   50.00000   50.00000   50.00000   90.00000   90.00000   90.00000
LATT -1
SFAC C  
C      1  0.4752230000000  0.5738340000000  0.5089890000000 1.0
C      1  0.4588700000000  0.4686240000000  0.4934410000000 1.0
C      1  0.5256520000000  0.5738280000000  0.5089910000000 1.0
C      1  0.5419790000000  0.4686140000000  0.4934440000000 1.0
C      1  0.4609270000000  0.5641990000000  0.4868120000000 1.0
C      1  0.4746970000000  0.4665180000000  0.5169780000000 1.0
C      1  0.5399470000000  0.5641890000000  0.4868150000000 1.0
C      1  0.5261490000000  0.4665120000000  0.5169800000000 1.0
C      1  0.5259680000000  0.5612760000000  0.5349800000000 1.0
C      1  0.5276000000000  0.4736770000000  0.4693610000000 1.0
C      1  0.4749020000000  0.5612830000000  0.5349780000000 1.0
C      1  0.4732520000000  0.4736840000000  0.4693590000000 1.0
C      1  0.5316600000000  0.5507110000000  0.4634570000000 1.0
C      1  0.5289740000000  0.4831920000000  0.5401620000000 1.0
C      1  0.4692120000000  0.5507190000000  0.4634540000000 1.0
C      1  0.4718750000000  0.4832000000000  0.5401600000000 1.0
C      1  0.5699750000000  0.4661130000000  0.4938270000000 1.0
C      1  0.6455170000000  0.4594940000000  0.4949010000000 1.0
C      1  0.4308730000000  0.4661310000000  0.4938210000000 1.0
C      1  0.3553300000000  0.4595320000000  0.4948900000000 1.0
C      1  0.5826210000000  0.4409950000000  0.4919950000000 1.0
C      1  0.6367810000000  0.4848690000000  0.4968300000000 1.0
C      1  0.4182200000000  0.4410170000000  0.4919880000000 1.0
C      1  0.3640720000000  0.4849040000000  0.4968190000000 1.0
C      1  0.3884220000000  0.4962190000000  0.4972360000000 1.0
C      1  0.3942140000000  0.4291420000000  0.4915120000000 1.0
C      1  0.6124330000000  0.4961900000000  0.4972450000000 1.0
C      1  0.6066240000000  0.4291140000000  0.4915200000000 1.0
C      1  0.3682920000000  0.4360620000000  0.4926490000000 1.0
C      1  0.4140930000000  0.4886690000000  0.4960500000000 1.0
C      1  0.6325480000000  0.4360280000000  0.4926600000000 1.0
C      1  0.5867600000000  0.4886460000000  0.4960570000000 1.0
C      1  0.4706730000000  0.5226900000000  0.4633040000000 1.0
C      1  0.4702070000000  0.5110860000000  0.5365890000000 1.0
C      1  0.5301920000000  0.5226820000000  0.4633060000000 1.0
C      1  0.5306500000000  0.5110780000000  0.5365920000000 1.0
C      1  0.4857550000000  0.5342810000000  0.5351610000000 1.0
C      1  0.4858830000000  0.4993660000000  0.4657970000000 1.0
C      1  0.5151070000000  0.5342770000000  0.5351630000000 1.0
C      1  0.5149760000000  0.4993620000000  0.4657980000000 1.0
C      1  0.4869480000000  0.5641560000000  0.4459410000000 1.0
C      1  0.4867950000000  0.4746700000000  0.5629980000000 1.0
C      1  0.5139290000000  0.5641520000000  0.4459420000000 1.0
C      1  0.5140490000000  0.4746660000000  0.5629990000000 1.0
C      1  0.4866270000000  0.5772610000000  0.5560320000000 1.0
C      1  0.4867870000000  0.4524530000000  0.4560190000000 1.0
C      1  0.5142450000000  0.5772580000000  0.5560340000000 1.0
C      1  0.5140610000000  0.4524500000000  0.4560200000000 1.0
C      1  0.5004390000000  0.5863460000000  0.5033890000000 1.0
C      1  0.5004220000000  0.4545820000000  0.5145550000000 1.0
END
