TITL C-3201378-2706-637 -9.00989487522413e-08 125000 -218.138700124585 0 0 35 (D5h) n - 1
REM
REM in /home/nfs/bkarasulu/CARBON/AIRSS/Generating-Clusters/LCBOP/Higher-Symm/SD-CG/FIRE-CG
REM
REM
REM
REM
REM
REM ./C.cell (b20cbc046b6831c77cfcea5457e17084)
REM AIRSS Version 0.9.1 bugfix July 2018 build 013d7b7c2542+ Fri, 06 Jul 2018 19:26:36 +0100
REM compiler GCC version 9.2.1 20190827 (Red Hat 9.2.1-1)
REM options -cpp -mtune=generic -march=x86-64 -g -O0 -fpre-include=/usr/include/finclude/math-vector-fortran.h
REM seed 1337389321 1377962001 1132270305 1976752030 -1400986304 -383952702 -1126138526 876897377 -888291306 -1274979144 2035365631 1117962688 442129929 -754201373 -160349828 -1431640945 -2080625388 1405076747 282063285 59176509 -1524619398 -540730837 -593904540 -2017981304 1262668874 1680865379 -951355742 -1635270775 -853844618 -8842015 -346934669 -1529199887 -2060164433
REM
CELL 1.54180   50.00000   50.00000   50.00000   90.00000   90.00000   90.00000
LATT -1
SFAC C  
C      1  0.4512020000000  0.4574720000000  0.5158550000000 1.0
C      1  0.4698430000000  0.4574730000000  0.4584880000000 1.0
C      1  0.5301630000000  0.4574750000000  0.4584890000000 1.0
C      1  0.5488010000000  0.4574760000000  0.5158570000000 1.0
C      1  0.5000010000000  0.4574740000000  0.5513110000000 1.0
C      1  0.5487980000000  0.5478410000000  0.5158570000000 1.0
C      1  0.5301590000000  0.5478400000000  0.4584890000000 1.0
C      1  0.4698390000000  0.5478380000000  0.4584880000000 1.0
C      1  0.4511980000000  0.5478370000000  0.5158550000000 1.0
C      1  0.4999970000000  0.5478390000000  0.5513110000000 1.0
C      1  0.4765540000000  0.4496800000000  0.5076190000000 1.0
C      1  0.4855110000000  0.4496810000000  0.4800540000000 1.0
C      1  0.5144940000000  0.4496820000000  0.4800540000000 1.0
C      1  0.5234500000000  0.4496820000000  0.5076200000000 1.0
C      1  0.5000020000000  0.4496810000000  0.5246550000000 1.0
C      1  0.5234460000000  0.5556330000000  0.5076190000000 1.0
C      1  0.5144900000000  0.5556330000000  0.4800540000000 1.0
C      1  0.4855060000000  0.5556310000000  0.4800530000000 1.0
C      1  0.4765490000000  0.5556310000000  0.5076180000000 1.0
C      1  0.4999970000000  0.5556320000000  0.5246550000000 1.0
C      1  0.4999980000000  0.5284300000000  0.5694970000000 1.0
C      1  0.4339030000000  0.5284270000000  0.5214740000000 1.0
C      1  0.4591510000000  0.5284280000000  0.4437750000000 1.0
C      1  0.5408490000000  0.5284310000000  0.4437760000000 1.0
C      1  0.5660940000000  0.5284330000000  0.5214770000000 1.0
C      1  0.5000000000000  0.4768840000000  0.5694970000000 1.0
C      1  0.5660960000000  0.4768860000000  0.5214770000000 1.0
C      1  0.5408510000000  0.4768850000000  0.4437770000000 1.0
C      1  0.4591530000000  0.4768820000000  0.4437750000000 1.0
C      1  0.4339050000000  0.4768810000000  0.5214750000000 1.0
C      1  0.5723510000000  0.5026600000000  0.5235100000000 1.0
C      1  0.4999990000000  0.5026570000000  0.5760750000000 1.0
C      1  0.5447170000000  0.5026580000000  0.4384550000000 1.0
C      1  0.4552850000000  0.5026550000000  0.4384530000000 1.0
C      1  0.4276480000000  0.5026540000000  0.5235070000000 1.0
END
