TITL C-3201377-4638-1411 -3.64668418583789e-07 125000 -1199.13702276931 0 0 190 (C1) n - 1
REM
REM in /home/nfs/bkarasulu/CARBON/AIRSS/Generating-Clusters/LCBOP/Higher-Symm/SD-CG/FIRE-CG
REM
REM
REM
REM
REM
REM ./C.cell (b20cbc046b6831c77cfcea5457e17084)
REM AIRSS Version 0.9.1 bugfix July 2018 build 013d7b7c2542+ Fri, 06 Jul 2018 19:26:36 +0100
REM compiler GCC version 9.2.1 20190827 (Red Hat 9.2.1-1)
REM options -cpp -mtune=generic -march=x86-64 -g -O0 -fpre-include=/usr/include/finclude/math-vector-fortran.h
REM seed -1090377708 -841736167 -1883396035 82734212 1751849067 1307874641 325620955 1833259483 466180509 1597032675 592171993 1958745317 -499630448 -574645146 -844000717 -815377627 -1921090718 324090346 -1924789570 -887261542 -112310812 1475965302 1222907624 2131337541 878140624 -318558547 -1765441201 -1858608569 -507532701 -841404169 1460965855 -468767346 1805203430
REM
CELL 1.54180   50.00000   50.00000   50.00000   90.00000   90.00000   90.00000
LATT -1
SFAC C  
C      1  0.4315550000000  0.5411650000000  0.5146800000000 1.0
C      1  0.4928820000000  0.5414410000000  0.5701130000000 1.0
C      1  0.5644110000000  0.5411360000000  0.5288420000000 1.0
C      1  0.5472370000000  0.5412230000000  0.4472540000000 1.0
C      1  0.4651850000000  0.5408840000000  0.4383800000000 1.0
C      1  0.5398990000000  0.4318840000000  0.5908230000000 1.0
C      1  0.5980860000000  0.4323490000000  0.4900120000000 1.0
C      1  0.5212280000000  0.4321970000000  0.4041870000000 1.0
C      1  0.4143670000000  0.4311290000000  0.4517040000000 1.0
C      1  0.4266590000000  0.4324040000000  0.5665250000000 1.0
C      1  0.6105410000000  0.4715800000000  0.5582360000000 1.0
C      1  0.5861600000000  0.4715150000000  0.4129950000000 1.0
C      1  0.4406650000000  0.4658250000000  0.3762200000000 1.0
C      1  0.3772540000000  0.4720510000000  0.5186130000000 1.0
C      1  0.4788880000000  0.4723490000000  0.6241050000000 1.0
C      1  0.5665820000000  0.6346800000000  0.4983460000000 1.0
C      1  0.5183640000000  0.6359300000000  0.4377820000000 1.0
C      1  0.4457970000000  0.6352150000000  0.4640330000000 1.0
C      1  0.4486620000000  0.6352430000000  0.5411610000000 1.0
C      1  0.5235140000000  0.6349900000000  0.5624480000000 1.0
C      1  0.5780830000000  0.5357440000000  0.5559930000000 1.0
C      1  0.5772820000000  0.5357870000000  0.4428340000000 1.0
C      1  0.4700760000000  0.5375500000000  0.4079150000000 1.0
C      1  0.4044870000000  0.5359010000000  0.5009110000000 1.0
C      1  0.4713250000000  0.5361890000000  0.5915950000000 1.0
C      1  0.4284540000000  0.3957970000000  0.5097470000000 1.0
C      1  0.4859640000000  0.3960400000000  0.5710510000000 1.0
C      1  0.5628100000000  0.3961740000000  0.5354930000000 1.0
C      1  0.5526430000000  0.3966120000000  0.4513110000000 1.0
C      1  0.4698350000000  0.3973760000000  0.4346780000000 1.0
C      1  0.4233770000000  0.5911790000000  0.5117790000000 1.0
C      1  0.4873750000000  0.5912690000000  0.5772900000000 1.0
C      1  0.5696070000000  0.5909220000000  0.5362780000000 1.0
C      1  0.5558980000000  0.5911280000000  0.4463280000000 1.0
C      1  0.4660130000000  0.5911940000000  0.4317230000000 1.0
C      1  0.5099000000000  0.4979690000000  0.4228500000000 1.0
C      1  0.4355760000000  0.4979080000000  0.4664160000000 1.0
C      1  0.4482130000000  0.4981500000000  0.5524070000000 1.0
C      1  0.5334080000000  0.4980190000000  0.5663230000000 1.0
C      1  0.5722170000000  0.4979650000000  0.4889500000000 1.0
C      1  0.5647160000000  0.4008710000000  0.5616000000000 1.0
C      1  0.5780980000000  0.4012350000000  0.4574570000000 1.0
C      1  0.4827210000000  0.4025110000000  0.4119750000000 1.0
C      1  0.4112220000000  0.4003780000000  0.4900350000000 1.0
C      1  0.4618080000000  0.4009790000000  0.5810250000000 1.0
C      1  0.4634130000000  0.5951050000000  0.5634600000000 1.0
C      1  0.5491410000000  0.5948390000000  0.5548850000000 1.0
C      1  0.5673750000000  0.5946370000000  0.4714790000000 1.0
C      1  0.4933240000000  0.5957780000000  0.4283640000000 1.0
C      1  0.4291500000000  0.5949730000000  0.4847340000000 1.0
C      1  0.4950070000000  0.4941030000000  0.4799790000000 1.0
C      1  0.4744820000000  0.4920890000000  0.5004370000000 1.0
C      1  0.4905440000000  0.4910830000000  0.5256040000000 1.0
C      1  0.5195810000000  0.4909550000000  0.5185680000000 1.0
C      1  0.5223180000000  0.4920420000000  0.4890790000000 1.0
C      1  0.5135220000000  0.6100210000000  0.5223170000000 1.0
C      1  0.5251600000000  0.6100140000000  0.4950280000000 1.0
C      1  0.5027190000000  0.6103250000000  0.4756700000000 1.0
C      1  0.4772250000000  0.6101610000000  0.4908470000000 1.0
C      1  0.4839520000000  0.6101230000000  0.5197450000000 1.0
C      1  0.4151290000000  0.5766840000000  0.4678920000000 1.0
C      1  0.4430600000000  0.5767790000000  0.5713200000000 1.0
C      1  0.5503620000000  0.5765260000000  0.5766590000000 1.0
C      1  0.5885290000000  0.5761490000000  0.4764230000000 1.0
C      1  0.5052590000000  0.5782220000000  0.4094820000000 1.0
C      1  0.4510130000000  0.6128940000000  0.4792560000000 1.0
C      1  0.4648390000000  0.6130070000000  0.5410150000000 1.0
C      1  0.5281570000000  0.6127950000000  0.5468890000000 1.0
C      1  0.5531870000000  0.6125470000000  0.4889840000000 1.0
C      1  0.5054650000000  0.6136060000000  0.4472950000000 1.0
C      1  0.5486750000000  0.4037430000000  0.5126210000000 1.0
C      1  0.5265820000000  0.4042010000000  0.4578840000000 1.0
C      1  0.4679230000000  0.4043460000000  0.4616940000000 1.0
C      1  0.4534480000000  0.4037300000000  0.5192870000000 1.0
C      1  0.5033670000000  0.4036390000000  0.5505590000000 1.0
C      1  0.4064910000000  0.5475280000000  0.5675180000000 1.0
C      1  0.5353330000000  0.5474690000000  0.6103220000000 1.0
C      1  0.6155190000000  0.5464540000000  0.5007760000000 1.0
C      1  0.5374640000000  0.5504030000000  0.3895340000000 1.0
C      1  0.4076320000000  0.5474570000000  0.4318600000000 1.0
C      1  0.4653870000000  0.4545580000000  0.6386690000000 1.0
C      1  0.6203900000000  0.4539240000000  0.5756210000000 1.0
C      1  0.6060290000000  0.4543020000000  0.4085140000000 1.0
C      1  0.4510390000000  0.4511220000000  0.3565430000000 1.0
C      1  0.3586690000000  0.4545640000000  0.5108910000000 1.0
C      1  0.5182950000000  0.4315390000000  0.4534940000000 1.0
C      1  0.4609390000000  0.4315980000000  0.4684060000000 1.0
C      1  0.4573740000000  0.4311000000000  0.5276310000000 1.0
C      1  0.5125760000000  0.4310550000000  0.5494950000000 1.0
C      1  0.5503750000000  0.4310990000000  0.5034790000000 1.0
C      1  0.4249380000000  0.5685450000000  0.5276530000000 1.0
C      1  0.5031610000000  0.5687150000000  0.5804860000000 1.0
C      1  0.5776290000000  0.5682970000000  0.5224020000000 1.0
C      1  0.5452670000000  0.5688040000000  0.4338260000000 1.0
C      1  0.4511490000000  0.5685200000000  0.4373670000000 1.0
C      1  0.4463420000000  0.4889180000000  0.4946420000000 1.0
C      1  0.4780400000000  0.4891500000000  0.5514450000000 1.0
C      1  0.5410060000000  0.4888790000000  0.5376150000000 1.0
C      1  0.5463860000000  0.4896230000000  0.4735180000000 1.0
C      1  0.4820820000000  0.4864280000000  0.4296920000000 1.0
C      1  0.4950570000000  0.5395920000000  0.4497030000000 1.0
C      1  0.4514940000000  0.5409280000000  0.4891760000000 1.0
C      1  0.4751990000000  0.5412940000000  0.5431590000000 1.0
C      1  0.5334530000000  0.5410900000000  0.5372610000000 1.0
C      1  0.5457990000000  0.5408780000000  0.4797180000000 1.0
C      1  0.5808540000000  0.5089810000000  0.5661570000000 1.0
C      1  0.5868140000000  0.5086850000000  0.4436790000000 1.0
C      1  0.4746110000000  0.5128340000000  0.3936290000000 1.0
C      1  0.3967740000000  0.5090190000000  0.4943170000000 1.0
C      1  0.4625220000000  0.5094710000000  0.5976220000000 1.0
C      1  0.4465200000000  0.4360300000000  0.6348840000000 1.0
C      1  0.6111160000000  0.4356050000000  0.5927120000000 1.0
C      1  0.6204590000000  0.4365670000000  0.4223380000000 1.0
C      1  0.4710940000000  0.4337850000000  0.3532760000000 1.0
C      1  0.3557300000000  0.4359150000000  0.4919880000000 1.0
C      1  0.5879690000000  0.4864010000000  0.5516780000000 1.0
C      1  0.5738190000000  0.4867990000000  0.4326700000000 1.0
C      1  0.4434550000000  0.4738330000000  0.4014060000000 1.0
C      1  0.3994670000000  0.4864950000000  0.5102400000000 1.0
C      1  0.4784330000000  0.4869150000000  0.6004480000000 1.0
C      1  0.5245300000000  0.4458590000000  0.5711800000000 1.0
C      1  0.5745330000000  0.4459770000000  0.4987230000000 1.0
C      1  0.5208910000000  0.4462770000000  0.4290050000000 1.0
C      1  0.4381340000000  0.4457350000000  0.4582640000000 1.0
C      1  0.4406650000000  0.4460300000000  0.5456900000000 1.0
C      1  0.5243010000000  0.3901830000000  0.5060120000000 1.0
C      1  0.5128800000000  0.3904320000000  0.4789390000000 1.0
C      1  0.4835990000000  0.3905080000000  0.4813210000000 1.0
C      1  0.4769630000000  0.3902770000000  0.5099790000000 1.0
C      1  0.5020890000000  0.3901410000000  0.5252570000000 1.0
C      1  0.3990820000000  0.4173710000000  0.4714290000000 1.0
C      1  0.4404570000000  0.4180830000000  0.5869700000000 1.0
C      1  0.5636770000000  0.4177430000000  0.5839170000000 1.0
C      1  0.5988690000000  0.4183340000000  0.4651980000000 1.0
C      1  0.4983260000000  0.4181050000000  0.3947260000000 1.0
C      1  0.5041690000000  0.5088430000000  0.3940410000000 1.0
C      1  0.4059230000000  0.5068870000000  0.4664290000000 1.0
C      1  0.4387300000000  0.5070970000000  0.5803130000000 1.0
C      1  0.5572280000000  0.5068700000000  0.5836840000000 1.0
C      1  0.5960790000000  0.5063580000000  0.4714870000000 1.0
C      1  0.5678850000000  0.4795620000000  0.5330960000000 1.0
C      1  0.5495590000000  0.4812590000000  0.4461400000000 1.0
C      1  0.4557220000000  0.4777520000000  0.4261620000000 1.0
C      1  0.4265950000000  0.4796090000000  0.5136920000000 1.0
C      1  0.4900980000000  0.4797160000000  0.5758370000000 1.0
C      1  0.4793160000000  0.4430070000000  0.5142050000000 1.0
C      1  0.5066280000000  0.4428290000000  0.5244050000000 1.0
C      1  0.5247050000000  0.4429770000000  0.5015380000000 1.0
C      1  0.5085470000000  0.4434950000000  0.4772550000000 1.0
C      1  0.4804720000000  0.4435620000000  0.4850570000000 1.0
C      1  0.4919670000000  0.5548190000000  0.3974490000000 1.0
C      1  0.4001620000000  0.5528530000000  0.4772500000000 1.0
C      1  0.4474250000000  0.5530650000000  0.5884540000000 1.0
C      1  0.5678730000000  0.5527240000000  0.5777620000000 1.0
C      1  0.5947400000000  0.5524160000000  0.4597460000000 1.0
C      1  0.5273300000000  0.4743820000000  0.4303140000000 1.0
C      1  0.4409900000000  0.4732570000000  0.4498330000000 1.0
C      1  0.4355280000000  0.4738460000000  0.5397720000000 1.0
C      1  0.5175670000000  0.4737350000000  0.5748590000000 1.0
C      1  0.5753540000000  0.4737420000000  0.5065960000000 1.0
C      1  0.4064620000000  0.4295330000000  0.4254610000000 1.0
C      1  0.3992220000000  0.4324850000000  0.5664720000000 1.0
C      1  0.5311540000000  0.4314670000000  0.6168250000000 1.0
C      1  0.6202230000000  0.4321400000000  0.5062110000000 1.0
C      1  0.5443380000000  0.4315090000000  0.3894250000000 1.0
C      1  0.5977160000000  0.5688970000000  0.5029670000000 1.0
C      1  0.5333940000000  0.5712640000000  0.4087230000000 1.0
C      1  0.4234740000000  0.5695880000000  0.4410190000000 1.0
C      1  0.4200550000000  0.5695990000000  0.5551360000000 1.0
C      1  0.5278350000000  0.5695830000000  0.5935870000000 1.0
C      1  0.5223680000000  0.5522180000000  0.4899230000000 1.0
C      1  0.4978170000000  0.5516510000000  0.4751090000000 1.0
C      1  0.4765330000000  0.5523980000000  0.4944430000000 1.0
C      1  0.4879100000000  0.5527040000000  0.5208010000000 1.0
C      1  0.5164000000000  0.5525310000000  0.5179740000000 1.0
C      1  0.3982290000000  0.5323500000000  0.4542930000000 1.0
C      1  0.4249200000000  0.5326050000000  0.5835520000000 1.0
C      1  0.5562020000000  0.5324050000000  0.5977610000000 1.0
C      1  0.6096840000000  0.5316350000000  0.4769530000000 1.0
C      1  0.5133320000000  0.5354430000000  0.3864560000000 1.0
C      1  0.5879170000000  0.4230930000000  0.5969960000000 1.0
C      1  0.6183920000000  0.4241590000000  0.4459040000000 1.0
C      1  0.4895280000000  0.4217860000000  0.3683600000000 1.0
C      1  0.3718390000000  0.4229800000000  0.4750680000000 1.0
C      1  0.4355350000000  0.4234260000000  0.6140690000000 1.0
C      1  0.5195560000000  0.5263760000000  0.5596640000000 1.0
C      1  0.5625660000000  0.5263380000000  0.5000630000000 1.0
C      1  0.5168480000000  0.5255290000000  0.4395200000000 1.0
C      1  0.4499860000000  0.5259860000000  0.4630430000000 1.0
C      1  0.4498770000000  0.5262810000000  0.5368940000000 1.0
END
