TITL C-3201376-6384-281 0.000312993570074951 125000 -707.196702182812 0 0 115 (C1) n - 1
REM
REM in /home/nfs/bkarasulu/CARBON/AIRSS/Generating-Clusters/LCBOP/Higher-Symm/SD-CG/FIRE-CG
REM
REM
REM
REM
REM
REM ./C.cell (b20cbc046b6831c77cfcea5457e17084)
REM AIRSS Version 0.9.1 bugfix July 2018 build 013d7b7c2542+ Fri, 06 Jul 2018 19:26:36 +0100
REM compiler GCC version 9.2.1 20190827 (Red Hat 9.2.1-1)
REM options -cpp -mtune=generic -march=x86-64 -g -O0 -fpre-include=/usr/include/finclude/math-vector-fortran.h
REM seed -1119841580 -1658966139 -1777522213 -1659366311 -1926914009 -1197786768 575925354 943642729 -569074801 -761440529 -684461626 752594213 -470474265 1750607457 -1096082273 635154693 398536008 761623663 -452020677 -1603655598 -1503939119 1278258204 -453617760 813226000 -548698431 -2053083160 1811660882 1174324182 1749588418 -161489218 2038523721 1953318128 -1512223032
REM
CELL 1.54180   50.00000   50.00000   50.00000   90.00000   90.00000   90.00000
LATT -1
SFAC C  
C      1  0.5318000000000  0.5220220000000  0.5741280000000 1.0
C      1  0.4075050000000  0.5410500000000  0.5054610000000 1.0
C      1  0.4417820000000  0.5827350000000  0.4988770000000 1.0
C      1  0.5522940000000  0.5468760000000  0.4550370000000 1.0
C      1  0.4569470000000  0.4624380000000  0.4171140000000 1.0
C      1  0.4362220000000  0.4813290000000  0.4156330000000 1.0
C      1  0.4775930000000  0.4658210000000  0.4649290000000 1.0
C      1  0.4816150000000  0.4236280000000  0.4002020000000 1.0
C      1  0.6051440000000  0.5848020000000  0.5239840000000 1.0
C      1  0.4890620000000  0.6084560000000  0.5466880000000 1.0
C      1  0.5450270000000  0.5062970000000  0.5544010000000 1.0
C      1  0.5509940000000  0.5081190000000  0.4199280000000 1.0
C      1  0.5383240000000  0.4303100000000  0.5116260000000 1.0
C      1  0.5121670000000  0.4389640000000  0.5623390000000 1.0
C      1  0.4788520000000  0.6208690000000  0.4220080000000 1.0
C      1  0.5027200000000  0.5427000000000  0.4625340000000 1.0
C      1  0.4396980000000  0.5560430000000  0.5364480000000 1.0
C      1  0.4695450000000  0.4328900000000  0.5350620000000 1.0
C      1  0.4509910000000  0.4772260000000  0.6453710000000 1.0
C      1  0.4050150000000  0.5241100000000  0.4827330000000 1.0
C      1  0.5027640000000  0.5157050000000  0.4099820000000 1.0
C      1  0.4581140000000  0.5704260000000  0.5519180000000 1.0
C      1  0.5343750000000  0.5617850000000  0.5259150000000 1.0
C      1  0.4915000000000  0.5176060000000  0.4737840000000 1.0
C      1  0.5622970000000  0.5683180000000  0.4712850000000 1.0
C      1  0.5946250000000  0.4536400000000  0.5025770000000 1.0
C      1  0.5438360000000  0.5040600000000  0.5253270000000 1.0
C      1  0.4957340000000  0.4871910000000  0.5257600000000 1.0
C      1  0.4245460000000  0.5644450000000  0.5120580000000 1.0
C      1  0.5067520000000  0.5600280000000  0.4853380000000 1.0
C      1  0.5728350000000  0.5251310000000  0.4584760000000 1.0
C      1  0.5173410000000  0.5040070000000  0.4809900000000 1.0
C      1  0.4840850000000  0.5161570000000  0.5929690000000 1.0
C      1  0.5069380000000  0.4673830000000  0.5092290000000 1.0
C      1  0.4190880000000  0.4133760000000  0.4527960000000 1.0
C      1  0.5175680000000  0.5556640000000  0.5485270000000 1.0
C      1  0.4472750000000  0.4440290000000  0.4927630000000 1.0
C      1  0.5257920000000  0.4585160000000  0.4499830000000 1.0
C      1  0.4318230000000  0.5330610000000  0.4200820000000 1.0
C      1  0.4979900000000  0.4270410000000  0.5403700000000 1.0
C      1  0.4628050000000  0.5192090000000  0.5162260000000 1.0
C      1  0.4950160000000  0.5252250000000  0.3856560000000 1.0
C      1  0.5064490000000  0.4527490000000  0.4289830000000 1.0
C      1  0.4733370000000  0.5889280000000  0.5358570000000 1.0
C      1  0.4995440000000  0.4252590000000  0.4221610000000 1.0
C      1  0.4978570000000  0.5325450000000  0.5480670000000 1.0
C      1  0.5082120000000  0.4133040000000  0.4691390000000 1.0
C      1  0.4286440000000  0.5068580000000  0.4166850000000 1.0
C      1  0.4681290000000  0.4835720000000  0.6261890000000 1.0
C      1  0.5240020000000  0.4584610000000  0.5797080000000 1.0
C      1  0.5379120000000  0.5499060000000  0.5701140000000 1.0
C      1  0.5836890000000  0.5697510000000  0.5162550000000 1.0
C      1  0.3952240000000  0.4534360000000  0.4766000000000 1.0
C      1  0.4419010000000  0.4003910000000  0.4477320000000 1.0
C      1  0.5338180000000  0.4584760000000  0.5150460000000 1.0
C      1  0.4864940000000  0.5136400000000  0.5301560000000 1.0
C      1  0.6140660000000  0.5114840000000  0.5186680000000 1.0
C      1  0.5037450000000  0.5197830000000  0.5736790000000 1.0
C      1  0.4664770000000  0.5385150000000  0.5938970000000 1.0
C      1  0.4526400000000  0.4672230000000  0.4771130000000 1.0
C      1  0.5257840000000  0.5478930000000  0.5032640000000 1.0
C      1  0.6081820000000  0.5040980000000  0.5437590000000 1.0
C      1  0.5284900000000  0.4849020000000  0.4622290000000 1.0
C      1  0.4439790000000  0.4942280000000  0.4795390000000 1.0
C      1  0.3939440000000  0.5119520000000  0.5450940000000 1.0
C      1  0.4340900000000  0.4710380000000  0.6642310000000 1.0
C      1  0.6123200000000  0.5181570000000  0.4912980000000 1.0
C      1  0.4977600000000  0.4576140000000  0.4840170000000 1.0
C      1  0.4422820000000  0.5570690000000  0.4247070000000 1.0
C      1  0.5807600000000  0.4713980000000  0.5172340000000 1.0
C      1  0.5657750000000  0.4901880000000  0.5670830000000 1.0
C      1  0.4943360000000  0.4074250000000  0.4446080000000 1.0
C      1  0.5261230000000  0.5409290000000  0.4447970000000 1.0
C      1  0.4894730000000  0.5826830000000  0.4872710000000 1.0
C      1  0.4594910000000  0.4243110000000  0.5092250000000 1.0
C      1  0.4692730000000  0.5865320000000  0.5071770000000 1.0
C      1  0.4567020000000  0.5788110000000  0.4297670000000 1.0
C      1  0.5144390000000  0.4152840000000  0.5181210000000 1.0
C      1  0.5893420000000  0.5077120000000  0.5645050000000 1.0
C      1  0.4023200000000  0.4318980000000  0.4623450000000 1.0
C      1  0.6326870000000  0.5106810000000  0.4745280000000 1.0
C      1  0.5517840000000  0.4672680000000  0.5777450000000 1.0
C      1  0.4273150000000  0.4607940000000  0.5402870000000 1.0
C      1  0.5843330000000  0.5356910000000  0.5700860000000 1.0
C      1  0.4125590000000  0.5222910000000  0.5283750000000 1.0
C      1  0.5167540000000  0.4402970000000  0.4704820000000 1.0
C      1  0.5269320000000  0.5233030000000  0.4222020000000 1.0
C      1  0.4619540000000  0.5603680000000  0.5782930000000 1.0
C      1  0.4030920000000  0.4742970000000  0.4939680000000 1.0
C      1  0.4725610000000  0.4014130000000  0.4992070000000 1.0
C      1  0.5820650000000  0.5590910000000  0.4902320000000 1.0
C      1  0.5704960000000  0.5031450000000  0.4403260000000 1.0
C      1  0.5310380000000  0.5187100000000  0.5030870000000 1.0
C      1  0.5903420000000  0.5325720000000  0.4807410000000 1.0
C      1  0.5536640000000  0.4781410000000  0.5181040000000 1.0
C      1  0.5651110000000  0.5546740000000  0.5612700000000 1.0
C      1  0.5006040000000  0.4032860000000  0.4952330000000 1.0
C      1  0.4158160000000  0.4977290000000  0.4825160000000 1.0
C      1  0.4506110000000  0.4494350000000  0.5481640000000 1.0
C      1  0.5596080000000  0.4235640000000  0.4937080000000 1.0
C      1  0.5059170000000  0.4725510000000  0.5968270000000 1.0
C      1  0.4647610000000  0.5130310000000  0.4876790000000 1.0
C      1  0.4682890000000  0.3963680000000  0.4455620000000 1.0
C      1  0.4407270000000  0.5273400000000  0.5325240000000 1.0
C      1  0.4097960000000  0.4676800000000  0.5209690000000 1.0
C      1  0.4872900000000  0.4976920000000  0.4247220000000 1.0
C      1  0.4603390000000  0.4404590000000  0.3995550000000 1.0
C      1  0.5797540000000  0.4769450000000  0.4455150000000 1.0
C      1  0.4856770000000  0.4906840000000  0.6057830000000 1.0
C      1  0.5622670000000  0.5645700000000  0.5339590000000 1.0
C      1  0.5807250000000  0.4393120000000  0.4824560000000 1.0
C      1  0.4859780000000  0.5973460000000  0.4634050000000 1.0
C      1  0.4739170000000  0.5993700000000  0.4381400000000 1.0
C      1  0.5805550000000  0.4528180000000  0.4575350000000 1.0
C      1  0.4812820000000  0.4699940000000  0.4339840000000 1.0
END
