TITL C-3201372-1405-1413 -1.31338558120938e-06 125000 -674.961595998184 0 0 113 (C1) n - 1
REM
REM in /home/nfs/bkarasulu/CARBON/AIRSS/Generating-Clusters/LCBOP/Higher-Symm/SD-CG/FIRE-CG
REM
REM
REM
REM
REM
REM ./C.cell (b20cbc046b6831c77cfcea5457e17084)
REM AIRSS Version 0.9.1 bugfix July 2018 build 013d7b7c2542+ Fri, 06 Jul 2018 19:26:36 +0100
REM compiler GCC version 9.2.1 20190827 (Red Hat 9.2.1-1)
REM options -cpp -mtune=generic -march=x86-64 -g -O0 -fpre-include=/usr/include/finclude/math-vector-fortran.h
REM seed -2124676832 1705669494 1788548768 -802421528 1981176300 2092540632 1532024564 -1102173527 1280784563 -806916639 -1496683275 1981801602 46383790 1159680752 32081363 1127081678 1912958999 1327245734 354118314 94345761 397473904 -1953548497 -1632336707 800844386 372896215 -490135266 1017581939 1378219574 -637864305 -1415604031 -1666874479 843451714 -899762733
REM
CELL 1.54180   50.00000   50.00000   50.00000   90.00000   90.00000   90.00000
LATT -1
SFAC C  
C      1  0.4101060000000  0.4436430000000  0.5006650000000 1.0
C      1  0.5414050000000  0.4427760000000  0.4191870000000 1.0
C      1  0.5439160000000  0.4453980000000  0.5734930000000 1.0
C      1  0.5146460000000  0.5120500000000  0.4827320000000 1.0
C      1  0.5068920000000  0.5094010000000  0.5123570000000 1.0
C      1  0.4754360000000  0.5100890000000  0.5097240000000 1.0
C      1  0.5526020000000  0.4258790000000  0.5322910000000 1.0
C      1  0.4442310000000  0.4227920000000  0.5253160000000 1.0
C      1  0.5038540000000  0.4289430000000  0.4436570000000 1.0
C      1  0.4955030000000  0.5410720000000  0.4272340000000 1.0
C      1  0.5684070000000  0.5446880000000  0.5324560000000 1.0
C      1  0.4379900000000  0.5398750000000  0.5435560000000 1.0
C      1  0.4909230000000  0.4916450000000  0.4051350000000 1.0
C      1  0.5856030000000  0.4931730000000  0.5349690000000 1.0
C      1  0.4221540000000  0.4890840000000  0.5557420000000 1.0
C      1  0.4462780000000  0.3941270000000  0.5292520000000 1.0
C      1  0.5059920000000  0.4014960000000  0.4530710000000 1.0
C      1  0.5611180000000  0.3985090000000  0.5340250000000 1.0
C      1  0.4439920000000  0.4413840000000  0.4309680000000 1.0
C      1  0.5851940000000  0.4369290000000  0.4826900000000 1.0
C      1  0.4672260000000  0.4348550000000  0.5778820000000 1.0
C      1  0.4677560000000  0.4923390000000  0.3873900000000 1.0
C      1  0.6111060000000  0.4920820000000  0.5212760000000 1.0
C      1  0.4194730000000  0.4875510000000  0.5848010000000 1.0
C      1  0.5306140000000  0.6069750000000  0.5056850000000 1.0
C      1  0.4809830000000  0.6029470000000  0.5235260000000 1.0
C      1  0.4902320000000  0.6050390000000  0.4716130000000 1.0
C      1  0.5605610000000  0.5696950000000  0.5259220000000 1.0
C      1  0.4496930000000  0.5638020000000  0.5385660000000 1.0
C      1  0.4931970000000  0.5659430000000  0.4375350000000 1.0
C      1  0.5829790000000  0.6170230000000  0.5536310000000 1.0
C      1  0.4120810000000  0.6075700000000  0.5442930000000 1.0
C      1  0.5057600000000  0.6104070000000  0.4012680000000 1.0
C      1  0.5125360000000  0.5309290000000  0.5328270000000 1.0
C      1  0.4628250000000  0.5329970000000  0.4976990000000 1.0
C      1  0.5316470000000  0.5334730000000  0.4744660000000 1.0
C      1  0.4895020000000  0.6215630000000  0.5429620000000 1.0
C      1  0.4691420000000  0.6236680000000  0.4707690000000 1.0
C      1  0.5412400000000  0.6259330000000  0.4877200000000 1.0
C      1  0.4279560000000  0.4601840000000  0.5484860000000 1.0
C      1  0.4918670000000  0.4624270000000  0.4131200000000 1.0
C      1  0.5751040000000  0.4661700000000  0.5355060000000 1.0
C      1  0.5718870000000  0.5061650000000  0.4726910000000 1.0
C      1  0.4901680000000  0.5093350000000  0.5716070000000 1.0
C      1  0.4324890000000  0.5157410000000  0.4628610000000 1.0
C      1  0.5746230000000  0.3863220000000  0.5540320000000 1.0
C      1  0.4262120000000  0.3762080000000  0.5322190000000 1.0
C      1  0.5282430000000  0.3968640000000  0.4690380000000 1.0
C      1  0.4423250000000  0.4482740000000  0.5734160000000 1.0
C      1  0.4622140000000  0.4529880000000  0.4122060000000 1.0
C      1  0.5925800000000  0.4520210000000  0.5057240000000 1.0
C      1  0.5713320000000  0.4659780000000  0.4468760000000 1.0
C      1  0.5036220000000  0.4658720000000  0.5860410000000 1.0
C      1  0.4183230000000  0.4699310000000  0.4621720000000 1.0
C      1  0.4319910000000  0.6071180000000  0.5255700000000 1.0
C      1  0.5120510000000  0.6098930000000  0.4278450000000 1.0
C      1  0.5567610000000  0.6135370000000  0.5468250000000 1.0
C      1  0.5376080000000  0.4324630000000  0.5078140000000 1.0
C      1  0.4707870000000  0.4350000000000  0.5225580000000 1.0
C      1  0.4863410000000  0.4431870000000  0.4618510000000 1.0
C      1  0.5521910000000  0.3872040000000  0.5095150000000 1.0
C      1  0.4747680000000  0.3891110000000  0.5292400000000 1.0
C      1  0.4801760000000  0.3971320000000  0.4657360000000 1.0
C      1  0.4390620000000  0.5321190000000  0.4829370000000 1.0
C      1  0.5590650000000  0.5294640000000  0.4715540000000 1.0
C      1  0.5044380000000  0.5282070000000  0.5594230000000 1.0
C      1  0.5144680000000  0.5570100000000  0.5235800000000 1.0
C      1  0.4776560000000  0.5559750000000  0.4940130000000 1.0
C      1  0.5224070000000  0.5594630000000  0.4772320000000 1.0
C      1  0.5736210000000  0.5186650000000  0.5374200000000 1.0
C      1  0.4284730000000  0.5145550000000  0.5450670000000 1.0
C      1  0.4981160000000  0.5159340000000  0.4176940000000 1.0
C      1  0.4646680000000  0.4836420000000  0.5050430000000 1.0
C      1  0.5116060000000  0.4862360000000  0.4692940000000 1.0
C      1  0.5166440000000  0.4804510000000  0.5217250000000 1.0
C      1  0.4236370000000  0.4421700000000  0.5259030000000 1.0
C      1  0.5128800000000  0.4442330000000  0.4218780000000 1.0
C      1  0.5592130000000  0.4471610000000  0.5493310000000 1.0
C      1  0.4391890000000  0.4886540000000  0.4627880000000 1.0
C      1  0.5605980000000  0.4812810000000  0.4676580000000 1.0
C      1  0.4926220000000  0.4822310000000  0.5661100000000 1.0
C      1  0.4701020000000  0.4219000000000  0.4729520000000 1.0
C      1  0.5382620000000  0.4063910000000  0.4931230000000 1.0
C      1  0.4887850000000  0.4126110000000  0.5252920000000 1.0
C      1  0.5097310000000  0.6306770000000  0.5576770000000 1.0
C      1  0.4459050000000  0.6304850000000  0.4818480000000 1.0
C      1  0.5428140000000  0.6330010000000  0.4620780000000 1.0
C      1  0.4310760000000  0.4646390000000  0.5948460000000 1.0
C      1  0.4513350000000  0.4705570000000  0.3915030000000 1.0
C      1  0.6145510000000  0.4697600000000  0.5056910000000 1.0
C      1  0.4550690000000  0.5901380000000  0.5286650000000 1.0
C      1  0.4981660000000  0.5927180000000  0.4462700000000 1.0
C      1  0.5489360000000  0.5958010000000  0.5255920000000 1.0
C      1  0.5355170000000  0.4722830000000  0.4781700000000 1.0
C      1  0.4951380000000  0.4723580000000  0.5394510000000 1.0
C      1  0.4627140000000  0.4804650000000  0.4767420000000 1.0
C      1  0.5578840000000  0.4240340000000  0.4363720000000 1.0
C      1  0.5212180000000  0.4254120000000  0.5757820000000 1.0
C      1  0.4188910000000  0.4269140000000  0.4771170000000 1.0
C      1  0.5319460000000  0.6264910000000  0.4386060000000 1.0
C      1  0.5361270000000  0.6274510000000  0.5597560000000 1.0
C      1  0.4311170000000  0.6236200000000  0.5029350000000 1.0
C      1  0.4737870000000  0.4629400000000  0.5231300000000 1.0
C      1  0.4870600000000  0.4709470000000  0.4659010000000 1.0
C      1  0.5308290000000  0.4606880000000  0.5040400000000 1.0
C      1  0.5755180000000  0.4381950000000  0.4556750000000 1.0
C      1  0.4951990000000  0.4378240000000  0.5827110000000 1.0
C      1  0.4260030000000  0.4429720000000  0.4530810000000 1.0
C      1  0.5323830000000  0.4674380000000  0.5880680000000 1.0
C      1  0.4031330000000  0.4679890000000  0.4867970000000 1.0
C      1  0.5575170000000  0.4666990000000  0.4216720000000 1.0
C      1  0.5039000000000  0.5678100000000  0.4984380000000 1.0
C      1  0.5012400000000  0.5976790000000  0.5000320000000 1.0
END
