TITL C-3201373-1215-772 0.126549042500582 125000 -494.591897652333 0 0 83 (C1) n - 1
REM
REM in /home/nfs/bkarasulu/CARBON/AIRSS/Generating-Clusters/LCBOP/Higher-Symm/SD-CG/FIRE-CG
REM
REM
REM
REM
REM
REM ./C.cell (b20cbc046b6831c77cfcea5457e17084)
REM AIRSS Version 0.9.1 bugfix July 2018 build 013d7b7c2542+ Fri, 06 Jul 2018 19:26:36 +0100
REM compiler GCC version 9.2.1 20190827 (Red Hat 9.2.1-1)
REM options -cpp -mtune=generic -march=x86-64 -g -O0 -fpre-include=/usr/include/finclude/math-vector-fortran.h
REM seed -1364645535 599231998 163772179 -1109972032 -2100155280 561425917 -48904811 594118133 -2027845972 -534515577 -1326756573 -1649743530 -1265547304 -50489427 -473912291 83961775 -1257620105 -718420597 2099625387 -1269411175 -936100016 2086702808 -1495770097 -170371248 537574001 -350084040 -1729305710 213394141 809263149 1129761531 1913496982 270152335 133566683
REM
CELL 1.54180   50.00000   50.00000   50.00000   90.00000   90.00000   90.00000
LATT -1
SFAC C  
C      1  0.4904250000000  0.5474570000000  0.4962370000000 1.0
C      1  0.4413840000000  0.5019040000000  0.4683060000000 1.0
C      1  0.4061740000000  0.5142960000000  0.5278980000000 1.0
C      1  0.5205500000000  0.5486990000000  0.4589660000000 1.0
C      1  0.5651070000000  0.4955720000000  0.4367950000000 1.0
C      1  0.5737900000000  0.4751880000000  0.4537180000000 1.0
C      1  0.4513430000000  0.5126170000000  0.5451850000000 1.0
C      1  0.5454630000000  0.5812240000000  0.5199960000000 1.0
C      1  0.4156090000000  0.4553170000000  0.5119150000000 1.0
C      1  0.5787890000000  0.4901000000000  0.5722890000000 1.0
C      1  0.5525940000000  0.3739800000000  0.5210800000000 1.0
C      1  0.5164070000000  0.4368360000000  0.4523150000000 1.0
C      1  0.5443960000000  0.6118500000000  0.5641120000000 1.0
C      1  0.4968510000000  0.5754610000000  0.5024280000000 1.0
C      1  0.4273140000000  0.4988160000000  0.4436820000000 1.0
C      1  0.4162640000000  0.4735810000000  0.4362950000000 1.0
C      1  0.6462970000000  0.5218460000000  0.5532520000000 1.0
C      1  0.5338610000000  0.5319370000000  0.4407900000000 1.0
C      1  0.3942300000000  0.5337320000000  0.4380830000000 1.0
C      1  0.5676700000000  0.4686770000000  0.4789680000000 1.0
C      1  0.4775630000000  0.5646210000000  0.4048090000000 1.0
C      1  0.4451310000000  0.4155660000000  0.5075310000000 1.0
C      1  0.4636670000000  0.5557180000000  0.4266620000000 1.0
C      1  0.5365240000000  0.5644390000000  0.4771450000000 1.0
C      1  0.5615940000000  0.4697550000000  0.5636200000000 1.0
C      1  0.4999840000000  0.4576760000000  0.4520780000000 1.0
C      1  0.4616430000000  0.4844570000000  0.4777310000000 1.0
C      1  0.5062470000000  0.5540760000000  0.5867410000000 1.0
C      1  0.5631790000000  0.5556340000000  0.4849290000000 1.0
C      1  0.5507140000000  0.5298100000000  0.5727610000000 1.0
C      1  0.5260990000000  0.5142640000000  0.4193580000000 1.0
C      1  0.3642730000000  0.5015280000000  0.5479040000000 1.0
C      1  0.4679520000000  0.4080420000000  0.5188560000000 1.0
C      1  0.3860180000000  0.4661650000000  0.4750890000000 1.0
C      1  0.5208350000000  0.4103600000000  0.5292630000000 1.0
C      1  0.5447330000000  0.5972560000000  0.5425250000000 1.0
C      1  0.5443710000000  0.4935940000000  0.4166320000000 1.0
C      1  0.5298040000000  0.4169860000000  0.4637680000000 1.0
C      1  0.3851090000000  0.5192040000000  0.5461300000000 1.0
C      1  0.4197050000000  0.5235790000000  0.4314400000000 1.0
C      1  0.5373090000000  0.3952640000000  0.5115890000000 1.0
C      1  0.5811900000000  0.3342570000000  0.5402430000000 1.0
C      1  0.5280970000000  0.5416370000000  0.5798540000000 1.0
C      1  0.5325230000000  0.4290720000000  0.5464480000000 1.0
C      1  0.5609310000000  0.5221290000000  0.4483590000000 1.0
C      1  0.4730280000000  0.5617920000000  0.4526970000000 1.0
C      1  0.4930350000000  0.4076050000000  0.5275490000000 1.0
C      1  0.5519230000000  0.4758340000000  0.4992570000000 1.0
C      1  0.4930000000000  0.5464080000000  0.4668840000000 1.0
C      1  0.4402300000000  0.5407110000000  0.4231340000000 1.0
C      1  0.4067320000000  0.5251740000000  0.5016080000000 1.0
C      1  0.3806440000000  0.5387470000000  0.4607270000000 1.0
C      1  0.5465170000000  0.4488500000000  0.5572870000000 1.0
C      1  0.4300780000000  0.5202480000000  0.4864650000000 1.0
C      1  0.4290680000000  0.4986200000000  0.5350920000000 1.0
C      1  0.4214480000000  0.4356930000000  0.4684700000000 1.0
C      1  0.4156900000000  0.4655360000000  0.4101760000000 1.0
C      1  0.4662380000000  0.5858800000000  0.4666280000000 1.0
C      1  0.4347220000000  0.4745990000000  0.5206210000000 1.0
C      1  0.4735990000000  0.5240050000000  0.5358250000000 1.0
C      1  0.5331540000000  0.4909960000000  0.5104370000000 1.0
C      1  0.5674080000000  0.5637620000000  0.5121950000000 1.0
C      1  0.6203240000000  0.5265090000000  0.5509560000000 1.0
C      1  0.4580880000000  0.4755230000000  0.5042960000000 1.0
C      1  0.5994330000000  0.4841800000000  0.5892870000000 1.0
C      1  0.4779460000000  0.5930070000000  0.4903220000000 1.0
C      1  0.6976130000000  0.5117020000000  0.5585340000000 1.0
C      1  0.5248610000000  0.5793120000000  0.4999060000000 1.0
C      1  0.5741060000000  0.5170360000000  0.5642730000000 1.0
C      1  0.5746640000000  0.5364750000000  0.4681480000000 1.0
C      1  0.5143200000000  0.5092290000000  0.5146000000000 1.0
C      1  0.3858400000000  0.5416400000000  0.5618270000000 1.0
C      1  0.4060710000000  0.4569160000000  0.4569540000000 1.0
C      1  0.5929330000000  0.5312760000000  0.5482940000000 1.0
C      1  0.3851030000000  0.5357730000000  0.4870960000000 1.0
C      1  0.4926510000000  0.5270120000000  0.5154760000000 1.0
C      1  0.5375110000000  0.4023790000000  0.4845440000000 1.0
C      1  0.5840200000000  0.5505150000000  0.5300040000000 1.0
C      1  0.5670150000000  0.3539510000000  0.5307100000000 1.0
C      1  0.3903410000000  0.4641830000000  0.5019920000000 1.0
C      1  0.4820620000000  0.4747450000000  0.4615820000000 1.0
C      1  0.4266930000000  0.4332470000000  0.4964740000000 1.0
C      1  0.6721730000000  0.5167510000000  0.5558990000000 1.0
END
