TITL C-3201373-1215-2088 -9.3881560696133e-08 125000 -680.367194027823 0 0 108 (D2h) n - 1
REM
REM in /home/nfs/bkarasulu/CARBON/AIRSS/Generating-Clusters/LCBOP/Higher-Symm/SD-CG/FIRE-CG
REM
REM
REM
REM
REM
REM ./C.cell (b20cbc046b6831c77cfcea5457e17084)
REM AIRSS Version 0.9.1 bugfix July 2018 build 013d7b7c2542+ Fri, 06 Jul 2018 19:26:36 +0100
REM compiler GCC version 9.2.1 20190827 (Red Hat 9.2.1-1)
REM options -cpp -mtune=generic -march=x86-64 -g -O0 -fpre-include=/usr/include/finclude/math-vector-fortran.h
REM seed -1729942951 968106551 -944170063 1180827706 1872957763 1186241966 245547549 -933250701 1236272544 -1056956353 2020556481 -1240658881 1014174917 937716689 1201643438 190536376 -979890816 533091428 289500613 1565879822 1775633026 -2091403547 -2131751041 629990624 772685017 87582864 -1976995740 1327583881 -2031658218 339615399 571876506 1818205067 2066239937
REM
CELL 1.54180   50.00000   50.00000   50.00000   90.00000   90.00000   90.00000
LATT -1
SFAC C  
C      1  0.4384260000000  0.4716800000000  0.3849610000000 1.0
C      1  0.5615830000000  0.5283230000000  0.3849660000000 1.0
C      1  0.4384170000000  0.4716770000000  0.6150340000000 1.0
C      1  0.5615740000000  0.5283200000000  0.6150390000000 1.0
C      1  0.4384260000000  0.5283240000000  0.3849610000000 1.0
C      1  0.5615830000000  0.4716790000000  0.3849660000000 1.0
C      1  0.4384170000000  0.5283210000000  0.6150340000000 1.0
C      1  0.5615740000000  0.4716760000000  0.6150390000000 1.0
C      1  0.5978880000000  0.4610950000000  0.4745370000000 1.0
C      1  0.4021150000000  0.5389060000000  0.4745300000000 1.0
C      1  0.5978850000000  0.4610940000000  0.5254700000000 1.0
C      1  0.4021120000000  0.5389050000000  0.5254630000000 1.0
C      1  0.5978880000000  0.5389050000000  0.4745380000000 1.0
C      1  0.4021140000000  0.4610950000000  0.4745290000000 1.0
C      1  0.5978860000000  0.5389050000000  0.5254710000000 1.0
C      1  0.4021120000000  0.4610950000000  0.5254620000000 1.0
C      1  0.5143290000000  0.5280580000000  0.4468870000000 1.0
C      1  0.4856760000000  0.4719430000000  0.4468850000000 1.0
C      1  0.5143240000000  0.5280570000000  0.5531150000000 1.0
C      1  0.4856710000000  0.4719420000000  0.5531130000000 1.0
C      1  0.5143280000000  0.4719430000000  0.4468860000000 1.0
C      1  0.4856760000000  0.5280580000000  0.4468860000000 1.0
C      1  0.5143240000000  0.4719420000000  0.5531140000000 1.0
C      1  0.4856720000000  0.5280570000000  0.5531140000000 1.0
C      1  0.5328730000000  0.4689090000000  0.5313290000000 1.0
C      1  0.4671240000000  0.5310900000000  0.5313270000000 1.0
C      1  0.5328760000000  0.4689100000000  0.4686730000000 1.0
C      1  0.4671270000000  0.5310910000000  0.4686710000000 1.0
C      1  0.5328730000000  0.5310900000000  0.5313300000000 1.0
C      1  0.4671240000000  0.4689090000000  0.5313260000000 1.0
C      1  0.5328760000000  0.5310910000000  0.4686740000000 1.0
C      1  0.4671270000000  0.4689100000000  0.4686700000000 1.0
C      1  0.4607890000000  0.4638310000000  0.6272420000000 1.0
C      1  0.5392010000000  0.5361660000000  0.6272460000000 1.0
C      1  0.4607990000000  0.4638340000000  0.3727540000000 1.0
C      1  0.5392110000000  0.5361690000000  0.3727580000000 1.0
C      1  0.4607890000000  0.5361660000000  0.6272430000000 1.0
C      1  0.5392010000000  0.4638310000000  0.6272450000000 1.0
C      1  0.4607990000000  0.5361690000000  0.3727550000000 1.0
C      1  0.5392110000000  0.4638340000000  0.3727570000000 1.0
C      1  0.4707160000000  0.5535100000000  0.5143100000000 1.0
C      1  0.5292830000000  0.4464890000000  0.5143100000000 1.0
C      1  0.4707170000000  0.5535110000000  0.4856900000000 1.0
C      1  0.5292840000000  0.4464900000000  0.4856900000000 1.0
C      1  0.4707160000000  0.4464890000000  0.5143080000000 1.0
C      1  0.5292830000000  0.5535100000000  0.5143120000000 1.0
C      1  0.4707170000000  0.4464900000000  0.4856880000000 1.0
C      1  0.5292840000000  0.5535110000000  0.4856920000000 1.0
C      1  0.4164980000000  0.4728740000000  0.5712860000000 1.0
C      1  0.5834960000000  0.5271250000000  0.5712930000000 1.0
C      1  0.4165040000000  0.4728750000000  0.4287070000000 1.0
C      1  0.5835020000000  0.5271260000000  0.4287140000000 1.0
C      1  0.4164980000000  0.5271250000000  0.5712860000000 1.0
C      1  0.5834960000000  0.4728730000000  0.5712920000000 1.0
C      1  0.4165040000000  0.5271270000000  0.4287080000000 1.0
C      1  0.5835020000000  0.4728750000000  0.4287140000000 1.0
C      1  0.5251230000000  0.4864540000000  0.4248260000000 1.0
C      1  0.4748830000000  0.5135480000000  0.4248250000000 1.0
C      1  0.5251170000000  0.4864520000000  0.5751750000000 1.0
C      1  0.4748770000000  0.5135460000000  0.5751740000000 1.0
C      1  0.5251230000000  0.5135480000000  0.4248270000000 1.0
C      1  0.4748830000000  0.4864540000000  0.4248240000000 1.0
C      1  0.5251170000000  0.5135460000000  0.5751760000000 1.0
C      1  0.4748770000000  0.4864520000000  0.5751730000000 1.0
C      1  0.5798410000000  0.4725180000000  0.4566010000000 1.0
C      1  0.4201630000000  0.5274830000000  0.4565950000000 1.0
C      1  0.5798370000000  0.4725170000000  0.5434050000000 1.0
C      1  0.4201590000000  0.5274820000000  0.5433990000000 1.0
C      1  0.5798410000000  0.5274830000000  0.4566020000000 1.0
C      1  0.4201630000000  0.4725180000000  0.4565940000000 1.0
C      1  0.5798370000000  0.5274820000000  0.5434060000000 1.0
C      1  0.4201590000000  0.4725170000000  0.5433980000000 1.0
C      1  0.5133120000000  0.5393190000000  0.6326980000000 1.0
C      1  0.4866770000000  0.4606770000000  0.6326960000000 1.0
C      1  0.5133230000000  0.5393230000000  0.3673040000000 1.0
C      1  0.4866880000000  0.4606810000000  0.3673020000000 1.0
C      1  0.5133120000000  0.4606770000000  0.6326970000000 1.0
C      1  0.4866780000000  0.5393190000000  0.6326970000000 1.0
C      1  0.5133220000000  0.4606810000000  0.3673030000000 1.0
C      1  0.4866880000000  0.5393230000000  0.3673030000000 1.0
C      1  0.5562810000000  0.5145040000000  0.5328480000000 1.0
C      1  0.4437170000000  0.4854950000000  0.5328430000000 1.0
C      1  0.5562830000000  0.5145050000000  0.4671570000000 1.0
C      1  0.4437190000000  0.4854960000000  0.4671520000000 1.0
C      1  0.5562810000000  0.4854950000000  0.5328480000000 1.0
C      1  0.4437170000000  0.5145040000000  0.5328440000000 1.0
C      1  0.5562830000000  0.4854960000000  0.4671560000000 1.0
C      1  0.4437190000000  0.5145050000000  0.4671520000000 1.0
C      1  0.4864110000000  0.5745090000000  0.4740460000000 1.0
C      1  0.5135910000000  0.4254910000000  0.4740450000000 1.0
C      1  0.4864090000000  0.5745090000000  0.5259550000000 1.0
C      1  0.5135890000000  0.4254910000000  0.5259540000000 1.0
C      1  0.4864100000000  0.4254920000000  0.4740440000000 1.0
C      1  0.5135920000000  0.5745090000000  0.4740470000000 1.0
C      1  0.4864080000000  0.4254910000000  0.5259530000000 1.0
C      1  0.5135900000000  0.5745080000000  0.5259560000000 1.0
C      1  0.5758400000000  0.4856280000000  0.4047460000000 1.0
C      1  0.4241680000000  0.5143750000000  0.4047400000000 1.0
C      1  0.5758320000000  0.4856250000000  0.5952600000000 1.0
C      1  0.4241600000000  0.5143720000000  0.5952540000000 1.0
C      1  0.5758400000000  0.5143740000000  0.4047460000000 1.0
C      1  0.4241680000000  0.4856280000000  0.4047400000000 1.0
C      1  0.5758320000000  0.5143720000000  0.5952600000000 1.0
C      1  0.4241600000000  0.4856260000000  0.5952540000000 1.0
C      1  0.6043930000000  0.4570220000000  0.5000040000000 1.0
C      1  0.3956070000000  0.5429780000000  0.4999960000000 1.0
C      1  0.6043940000000  0.5429770000000  0.5000050000000 1.0
C      1  0.3956060000000  0.4570230000000  0.4999950000000 1.0
END
