TITL C-3201373-1215-2194 6.12317813981219 125000 -902.753049054234 0 0 151 (C1) n - 1
REM
REM in /home/nfs/bkarasulu/CARBON/AIRSS/Generating-Clusters/LCBOP/Higher-Symm/SD-CG/FIRE-CG
REM
REM
REM
REM
REM
REM ./C.cell (b20cbc046b6831c77cfcea5457e17084)
REM AIRSS Version 0.9.1 bugfix July 2018 build 013d7b7c2542+ Fri, 06 Jul 2018 19:26:36 +0100
REM compiler GCC version 9.2.1 20190827 (Red Hat 9.2.1-1)
REM options -cpp -mtune=generic -march=x86-64 -g -O0 -fpre-include=/usr/include/finclude/math-vector-fortran.h
REM seed 396389485 91887800 477025015 1955455377 -1133135697 170533382 -1463604477 -1205154265 805927312 722993625 -608928901 -1307439683 1929601056 -1038891248 -1753600924 281856956 -1206997755 1132186688 -489600913 871796436 -937575046 228285896 -1872678154 1240943289 1764694864 1230952258 -1067898829 1107348129 1836014139 1361158179 1681183580 -891815836 -915104631
REM
CELL 1.54180   50.00000   50.00000   50.00000   90.00000   90.00000   90.00000
LATT -1
SFAC C  
C      1  0.5555940000000  0.5561200000000  0.4378070000000 1.0
C      1  0.5023530000000  0.5255430000000  0.3970000000000 1.0
C      1  0.5320870000000  0.4210190000000  0.4187670000000 1.0
C      1  0.5229700000000  0.5939390000000  0.5539910000000 1.0
C      1  0.5187200000000  0.5546980000000  0.4689070000000 1.0
C      1  0.4801680000000  0.4688920000000  0.5021300000000 1.0
C      1  0.4250420000000  0.5627800000000  0.4958100000000 1.0
C      1  0.5197980000000  0.5892640000000  0.4316630000000 1.0
C      1  0.4389180000000  0.5828110000000  0.5132750000000 1.0
C      1  0.4887800000000  0.5656150000000  0.5051000000000 1.0
C      1  0.4445440000000  0.5414380000000  0.4950630000000 1.0
C      1  0.4502840000000  0.5078320000000  0.5440190000000 1.0
C      1  0.4258280000000  0.4928610000000  0.5952710000000 1.0
C      1  0.4455420000000  0.3979060000000  0.4573040000000 1.0
C      1  0.4534120000000  0.4086760000000  0.5039860000000 1.0
C      1  0.5188650000000  0.5475600000000  0.4047000000000 1.0
C      1  0.4898650000000  0.5663080000000  0.5760530000000 1.0
C      1  0.4960100000000  0.4413570000000  0.4655990000000 1.0
C      1  0.4560680000000  0.4253500000000  0.5821620000000 1.0
C      1  0.5060540000000  0.5268540000000  0.6045990000000 1.0
C      1  0.4893250000000  0.5382870000000  0.5828330000000 1.0
C      1  0.4459700000000  0.5817010000000  0.4243870000000 1.0
C      1  0.5850700000000  0.5689690000000  0.4784150000000 1.0
C      1  0.4853690000000  0.4347400000000  0.4404600000000 1.0
C      1  0.4439000000000  0.5330570000000  0.4231790000000 1.0
C      1  0.4087120000000  0.4839040000000  0.4852040000000 1.0
C      1  0.5321610000000  0.5483380000000  0.5268160000000 1.0
C      1  0.5760520000000  0.4898310000000  0.5406480000000 1.0
C      1  0.5199800000000  0.4977990000000  0.5050660000000 1.0
C      1  0.5095270000000  0.5279830000000  0.4672540000000 1.0
C      1  0.4101050000000  0.4819360000000  0.5328620000000 1.0
C      1  0.4512530000000  0.4745440000000  0.5075950000000 1.0
C      1  0.4591230000000  0.3904360000000  0.4813130000000 1.0
C      1  0.4589190000000  0.5162700000000  0.4064270000000 1.0
C      1  0.5617160000000  0.5897180000000  0.5184640000000 1.0
C      1  0.4965870000000  0.5209440000000  0.5586470000000 1.0
C      1  0.5569130000000  0.4862790000000  0.6076430000000 1.0
C      1  0.4072330000000  0.4397980000000  0.5108500000000 1.0
C      1  0.5164840000000  0.5382010000000  0.5452440000000 1.0
C      1  0.5102410000000  0.4672590000000  0.4663620000000 1.0
C      1  0.4849760000000  0.4404340000000  0.4924060000000 1.0
C      1  0.4729750000000  0.4687990000000  0.4026930000000 1.0
C      1  0.5707200000000  0.4264050000000  0.4837180000000 1.0
C      1  0.4776800000000  0.6149490000000  0.4951900000000 1.0
C      1  0.5693530000000  0.4348500000000  0.4561370000000 1.0
C      1  0.5259280000000  0.4220490000000  0.5739320000000 1.0
C      1  0.5561530000000  0.4652420000000  0.5030400000000 1.0
C      1  0.4984350000000  0.5109980000000  0.4888320000000 1.0
C      1  0.3983500000000  0.4933230000000  0.5557590000000 1.0
C      1  0.4464440000000  0.5280400000000  0.4706350000000 1.0
C      1  0.5968130000000  0.3676740000000  0.5567730000000 1.0
C      1  0.4335470000000  0.4095600000000  0.5841510000000 1.0
C      1  0.4360460000000  0.4231410000000  0.4525960000000 1.0
C      1  0.5046010000000  0.4092190000000  0.5250690000000 1.0
C      1  0.5839320000000  0.3798480000000  0.5376560000000 1.0
C      1  0.5956810000000  0.4983810000000  0.4993880000000 1.0
C      1  0.5175330000000  0.5761470000000  0.5775750000000 1.0
C      1  0.4159480000000  0.5331650000000  0.4185000000000 1.0
C      1  0.5350040000000  0.5343050000000  0.6006980000000 1.0
C      1  0.4490860000000  0.4784630000000  0.6026510000000 1.0
C      1  0.4368120000000  0.4718410000000  0.4788730000000 1.0
C      1  0.5032780000000  0.5732020000000  0.4127070000000 1.0
C      1  0.4699230000000  0.5454860000000  0.5060000000000 1.0
C      1  0.4982080000000  0.4536520000000  0.5544160000000 1.0
C      1  0.5682510000000  0.4931350000000  0.5111570000000 1.0
C      1  0.5464250000000  0.5370720000000  0.5075540000000 1.0
C      1  0.5341850000000  0.4409560000000  0.5925570000000 1.0
C      1  0.6213590000000  0.4973320000000  0.5683350000000 1.0
C      1  0.5454260000000  0.6044550000000  0.5003310000000 1.0
C      1  0.4241960000000  0.5778190000000  0.4435640000000 1.0
C      1  0.5325890000000  0.3537220000000  0.3923390000000 1.0
C      1  0.5917200000000  0.5488230000000  0.5226970000000 1.0
C      1  0.5453500000000  0.5098060000000  0.5048600000000 1.0
C      1  0.5457380000000  0.5378370000000  0.4173750000000 1.0
C      1  0.5540560000000  0.4603230000000  0.4455280000000 1.0
C      1  0.3927350000000  0.5329680000000  0.4343520000000 1.0
C      1  0.4990310000000  0.6101760000000  0.4706930000000 1.0
C      1  0.4752960000000  0.5815310000000  0.5540150000000 1.0
C      1  0.5297480000000  0.3944260000000  0.4276690000000 1.0
C      1  0.6024150000000  0.5252510000000  0.5086510000000 1.0
C      1  0.4307250000000  0.4272430000000  0.4996580000000 1.0
C      1  0.4769420000000  0.4450810000000  0.4170880000000 1.0
C      1  0.5159300000000  0.6152760000000  0.4452370000000 1.0
C      1  0.5112750000000  0.5138950000000  0.4432630000000 1.0
C      1  0.4549780000000  0.5966570000000  0.4938240000000 1.0
C      1  0.5312910000000  0.3733950000000  0.4093830000000 1.0
C      1  0.4350330000000  0.5528780000000  0.5542850000000 1.0
C      1  0.4592390000000  0.4840570000000  0.4623230000000 1.0
C      1  0.4692760000000  0.4939230000000  0.6152130000000 1.0
C      1  0.4889500000000  0.6176300000000  0.5214320000000 1.0
C      1  0.4148880000000  0.5079660000000  0.5739600000000 1.0
C      1  0.5947630000000  0.4867160000000  0.4340250000000 1.0
C      1  0.6029140000000  0.4706200000000  0.4927580000000 1.0
C      1  0.4926230000000  0.4738170000000  0.5709380000000 1.0
C      1  0.5611680000000  0.5647250000000  0.5627770000000 1.0
C      1  0.4117630000000  0.5623620000000  0.4687180000000 1.0
C      1  0.5504820000000  0.5868570000000  0.5453270000000 1.0
C      1  0.4742800000000  0.4934240000000  0.4173250000000 1.0
C      1  0.5816110000000  0.5711730000000  0.5066380000000 1.0
C      1  0.4785650000000  0.4136780000000  0.5686120000000 1.0
C      1  0.3984570000000  0.5358160000000  0.4623990000000 1.0
C      1  0.4865000000000  0.4855990000000  0.4756900000000 1.0
C      1  0.5253130000000  0.4022090000000  0.5033670000000 1.0
C      1  0.4765110000000  0.5221360000000  0.3829200000000 1.0
C      1  0.4966400000000  0.5012810000000  0.6163610000000 1.0
C      1  0.5704840000000  0.3925390000000  0.5186870000000 1.0
C      1  0.5375980000000  0.4670030000000  0.4713920000000 1.0
C      1  0.4007390000000  0.4683070000000  0.5097200000000 1.0
C      1  0.5003540000000  0.5059090000000  0.4192000000000 1.0
C      1  0.4384960000000  0.4865210000000  0.5298210000000 1.0
C      1  0.5543680000000  0.5097510000000  0.4212730000000 1.0
C      1  0.4614770000000  0.5749590000000  0.4655810000000 1.0
C      1  0.5406250000000  0.5580310000000  0.5838610000000 1.0
C      1  0.5361070000000  0.4907950000000  0.5654360000000 1.0
C      1  0.4961820000000  0.6003010000000  0.5428050000000 1.0
C      1  0.5136830000000  0.4785480000000  0.6198670000000 1.0
C      1  0.4333760000000  0.5250540000000  0.5596260000000 1.0
C      1  0.5157210000000  0.4567080000000  0.5327700000000 1.0
C      1  0.4725750000000  0.5780130000000  0.4136010000000 1.0
C      1  0.5048820000000  0.4109630000000  0.5559130000000 1.0
C      1  0.4797980000000  0.4195870000000  0.5114780000000 1.0
C      1  0.3675010000000  0.5305560000000  0.4244520000000 1.0
C      1  0.4857490000000  0.3803950000000  0.4806740000000 1.0
C      1  0.5540230000000  0.5135420000000  0.6064400000000 1.0
C      1  0.4541710000000  0.4516400000000  0.5936360000000 1.0
C      1  0.5546460000000  0.4078890000000  0.5008440000000 1.0
C      1  0.5090050000000  0.4962770000000  0.5684660000000 1.0
C      1  0.5364630000000  0.4656860000000  0.6080110000000 1.0
C      1  0.4750660000000  0.4999000000000  0.3646390000000 1.0
C      1  0.5326080000000  0.5689300000000  0.4482520000000 1.0
C      1  0.5436830000000  0.4573910000000  0.5309700000000 1.0
C      1  0.5130410000000  0.3888110000000  0.4801330000000 1.0
C      1  0.4001390000000  0.5103600000000  0.4769780000000 1.0
C      1  0.5544670000000  0.4752350000000  0.5512960000000 1.0
C      1  0.4766470000000  0.5140760000000  0.5382750000000 1.0
C      1  0.5825710000000  0.5502030000000  0.5501700000000 1.0
C      1  0.4822230000000  0.5883470000000  0.4567680000000 1.0
C      1  0.5817940000000  0.4503090000000  0.4962780000000 1.0
C      1  0.4489330000000  0.5748710000000  0.5412520000000 1.0
C      1  0.4729560000000  0.4741480000000  0.3744750000000 1.0
C      1  0.4338550000000  0.4417000000000  0.4738780000000 1.0
C      1  0.4533610000000  0.5436230000000  0.4486970000000 1.0
C      1  0.5996800000000  0.4949520000000  0.5540650000000 1.0
C      1  0.5052990000000  0.4758830000000  0.5161150000000 1.0
C      1  0.5257580000000  0.3890350000000  0.4550030000000 1.0
C      1  0.5118980000000  0.5708900000000  0.4907730000000 1.0
C      1  0.5783980000000  0.5600110000000  0.4538270000000 1.0
C      1  0.4818220000000  0.5212600000000  0.5115180000000 1.0
C      1  0.5211510000000  0.5979340000000  0.4882760000000 1.0
C      1  0.5671460000000  0.4863750000000  0.4335440000000 1.0
C      1  0.5378720000000  0.4467380000000  0.4237940000000 1.0
END
