TITL C-3201379-3821-964 0.175416372414394 125000 -1127.74888651715 0 0 187 (C1) n - 1
REM
REM in /home/nfs/bkarasulu/CARBON/AIRSS/Generating-Clusters/LCBOP/Higher-Symm/SD-CG/FIRE-CG
REM
REM
REM
REM
REM
REM ./C.cell (b20cbc046b6831c77cfcea5457e17084)
REM AIRSS Version 0.9.1 bugfix July 2018 build 013d7b7c2542+ Fri, 06 Jul 2018 19:26:36 +0100
REM compiler GCC version 9.2.1 20190827 (Red Hat 9.2.1-1)
REM options -cpp -mtune=generic -march=x86-64 -g -O0 -fpre-include=/usr/include/finclude/math-vector-fortran.h
REM seed 2083460568 -1170192986 532767207 661822936 2043828394 606866772 555898117 -1049120901 -599830568 1651543363 -1093602188 -1478565870 -1388105651 -1001138854 620920374 220636540 1146479964 641924832 -2090577759 1789274920 1335515800 -338262288 1257487058 793320333 -440022810 2114496462 -422192930 -1443968495 -2041222162 1060452886 -407549134 -826071039 -1337411546
REM
CELL 1.54180   50.00000   50.00000   50.00000   90.00000   90.00000   90.00000
LATT -1
SFAC C  
C      1  0.5383640000000  0.5322470000000  0.5234630000000 1.0
C      1  0.4505390000000  0.4845050000000  0.3910880000000 1.0
C      1  0.4940520000000  0.4866870000000  0.4856790000000 1.0
C      1  0.5194260000000  0.5483030000000  0.4635720000000 1.0
C      1  0.4417360000000  0.4569010000000  0.5559220000000 1.0
C      1  0.4543720000000  0.5348920000000  0.5061090000000 1.0
C      1  0.6009350000000  0.5558240000000  0.4504470000000 1.0
C      1  0.5520280000000  0.4671960000000  0.4935590000000 1.0
C      1  0.5062600000000  0.4709570000000  0.5837810000000 1.0
C      1  0.4464260000000  0.4903750000000  0.4552910000000 1.0
C      1  0.6297090000000  0.5169600000000  0.4822010000000 1.0
C      1  0.4368910000000  0.5950390000000  0.5535650000000 1.0
C      1  0.4198900000000  0.5738140000000  0.5498580000000 1.0
C      1  0.5108170000000  0.4300220000000  0.4064870000000 1.0
C      1  0.4928940000000  0.4448330000000  0.3908850000000 1.0
C      1  0.5865020000000  0.5263870000000  0.5978740000000 1.0
C      1  0.4732890000000  0.5324810000000  0.4443850000000 1.0
C      1  0.3763280000000  0.4926800000000  0.5107340000000 1.0
C      1  0.4724620000000  0.5162290000000  0.6283410000000 1.0
C      1  0.3900130000000  0.4562120000000  0.4667980000000 1.0
C      1  0.4933490000000  0.5348750000000  0.6230840000000 1.0
C      1  0.5241880000000  0.5029730000000  0.5874060000000 1.0
C      1  0.5173300000000  0.4276430000000  0.5009240000000 1.0
C      1  0.5431750000000  0.4577420000000  0.4684550000000 1.0
C      1  0.3996180000000  0.4292140000000  0.4779180000000 1.0
C      1  0.4109450000000  0.4797300000000  0.5829610000000 1.0
C      1  0.4116100000000  0.4319120000000  0.5299110000000 1.0
C      1  0.5846220000000  0.5112590000000  0.4673240000000 1.0
C      1  0.5503950000000  0.4954290000000  0.4953320000000 1.0
C      1  0.4723550000000  0.5665560000000  0.5331980000000 1.0
C      1  0.6009460000000  0.4990750000000  0.5205130000000 1.0
C      1  0.4337090000000  0.5028440000000  0.4783140000000 1.0
C      1  0.5403920000000  0.4684580000000  0.3994950000000 1.0
C      1  0.5631720000000  0.5485080000000  0.4154940000000 1.0
C      1  0.4486260000000  0.4134230000000  0.5698090000000 1.0
C      1  0.5856570000000  0.5089060000000  0.4388280000000 1.0
C      1  0.5910900000000  0.4403990000000  0.5992910000000 1.0
C      1  0.5383630000000  0.5160760000000  0.6107500000000 1.0
C      1  0.6056830000000  0.4706420000000  0.5129430000000 1.0
C      1  0.4292680000000  0.4270960000000  0.4169390000000 1.0
C      1  0.4934300000000  0.5347030000000  0.4643550000000 1.0
C      1  0.5788850000000  0.4961770000000  0.5623270000000 1.0
C      1  0.4348820000000  0.4059720000000  0.4027530000000 1.0
C      1  0.4306640000000  0.4285360000000  0.5503520000000 1.0
C      1  0.3847020000000  0.5215670000000  0.5075170000000 1.0
C      1  0.4756020000000  0.4674100000000  0.3850860000000 1.0
C      1  0.4190820000000  0.4109500000000  0.4883460000000 1.0
C      1  0.4479720000000  0.4334660000000  0.5945630000000 1.0
C      1  0.3798050000000  0.4810000000000  0.4811790000000 1.0
C      1  0.4788670000000  0.5927710000000  0.4711190000000 1.0
C      1  0.4491670000000  0.4070890000000  0.4967500000000 1.0
C      1  0.4819180000000  0.6239550000000  0.5011920000000 1.0
C      1  0.4842960000000  0.5864820000000  0.4431810000000 1.0
C      1  0.4793860000000  0.5232240000000  0.5089240000000 1.0
C      1  0.4994910000000  0.3979380000000  0.5537100000000 1.0
C      1  0.4570100000000  0.5773870000000  0.4340890000000 1.0
C      1  0.5041080000000  0.3972110000000  0.4469490000000 1.0
C      1  0.4583120000000  0.6105210000000  0.5131210000000 1.0
C      1  0.4635730000000  0.4198020000000  0.4736500000000 1.0
C      1  0.5199090000000  0.5748890000000  0.4782510000000 1.0
C      1  0.3753750000000  0.4831450000000  0.5393020000000 1.0
C      1  0.4372600000000  0.4525600000000  0.4949300000000 1.0
C      1  0.6101750000000  0.4990100000000  0.4736500000000 1.0
C      1  0.5194560000000  0.5253750000000  0.6302320000000 1.0
C      1  0.4095240000000  0.5294380000000  0.5186100000000 1.0
C      1  0.4885640000000  0.4939870000000  0.4265490000000 1.0
C      1  0.5533750000000  0.6057100000000  0.4979890000000 1.0
C      1  0.5759270000000  0.5008280000000  0.5343930000000 1.0
C      1  0.5195050000000  0.5743350000000  0.4063090000000 1.0
C      1  0.5340330000000  0.5085660000000  0.4307120000000 1.0
C      1  0.5306250000000  0.4002960000000  0.4624210000000 1.0
C      1  0.5216920000000  0.4162530000000  0.5630770000000 1.0
C      1  0.5343060000000  0.4458650000000  0.4186600000000 1.0
C      1  0.3812240000000  0.5060130000000  0.4637540000000 1.0
C      1  0.5156240000000  0.5516420000000  0.5841300000000 1.0
C      1  0.5833520000000  0.4478080000000  0.5744080000000 1.0
C      1  0.4442830000000  0.4614800000000  0.4502410000000 1.0
C      1  0.5213110000000  0.3813070000000  0.5091810000000 1.0
C      1  0.5389540000000  0.5272090000000  0.4556260000000 1.0
C      1  0.4961540000000  0.5767480000000  0.5210640000000 1.0
C      1  0.4713780000000  0.5636390000000  0.5856490000000 1.0
C      1  0.4859690000000  0.4683420000000  0.4668790000000 1.0
C      1  0.5946140000000  0.4734340000000  0.4390170000000 1.0
C      1  0.4702640000000  0.4540840000000  0.5486880000000 1.0
C      1  0.4059370000000  0.5371440000000  0.4401960000000 1.0
C      1  0.4925440000000  0.5094210000000  0.3994330000000 1.0
C      1  0.5207930000000  0.4715270000000  0.3798500000000 1.0
C      1  0.5903120000000  0.5769530000000  0.4956730000000 1.0
C      1  0.4867950000000  0.4668680000000  0.6072280000000 1.0
C      1  0.4533020000000  0.6068280000000  0.4679640000000 1.0
C      1  0.5483200000000  0.4093710000000  0.5514080000000 1.0
C      1  0.4636490000000  0.4112960000000  0.5233160000000 1.0
C      1  0.5985360000000  0.5395830000000  0.5488090000000 1.0
C      1  0.6091820000000  0.4716050000000  0.4649030000000 1.0
C      1  0.4662480000000  0.5050420000000  0.4410630000000 1.0
C      1  0.5848330000000  0.4104530000000  0.5106760000000 1.0
C      1  0.3950730000000  0.5099440000000  0.4380710000000 1.0
C      1  0.4033530000000  0.5504650000000  0.4668410000000 1.0
C      1  0.5236750000000  0.4585730000000  0.4449540000000 1.0
C      1  0.5379690000000  0.5828690000000  0.5530560000000 1.0
C      1  0.5897700000000  0.4349020000000  0.5498770000000 1.0
C      1  0.5296560000000  0.6027510000000  0.4835280000000 1.0
C      1  0.5076840000000  0.6216510000000  0.4907380000000 1.0
C      1  0.5095390000000  0.3796560000000  0.5335460000000 1.0
C      1  0.5353420000000  0.5506790000000  0.4076880000000 1.0
C      1  0.5194890000000  0.5269070000000  0.5702190000000 1.0
C      1  0.4763680000000  0.4374750000000  0.5258340000000 1.0
C      1  0.6081780000000  0.4544470000000  0.4877770000000 1.0
C      1  0.5190040000000  0.4412090000000  0.5786020000000 1.0
C      1  0.5819410000000  0.4498710000000  0.4297350000000 1.0
C      1  0.3860730000000  0.4787000000000  0.5651000000000 1.0
C      1  0.5014300000000  0.4880280000000  0.5360230000000 1.0
C      1  0.4507090000000  0.5142410000000  0.5731850000000 1.0
C      1  0.5111710000000  0.5920130000000  0.5414470000000 1.0
C      1  0.6034370000000  0.5570250000000  0.4805790000000 1.0
C      1  0.4369240000000  0.5870580000000  0.4529420000000 1.0
C      1  0.4605460000000  0.5538240000000  0.4174960000000 1.0
C      1  0.4162740000000  0.4541430000000  0.5125710000000 1.0
C      1  0.5646540000000  0.5791570000000  0.5387960000000 1.0
C      1  0.4994220000000  0.4739780000000  0.5099040000000 1.0
C      1  0.4282170000000  0.4989980000000  0.5683780000000 1.0
C      1  0.5308330000000  0.4867880000000  0.5396650000000 1.0
C      1  0.4486080000000  0.5238810000000  0.6391400000000 1.0
C      1  0.5139910000000  0.4871580000000  0.4378530000000 1.0
C      1  0.4704560000000  0.5258260000000  0.5569660000000 1.0
C      1  0.4232380000000  0.4841100000000  0.4018430000000 1.0
C      1  0.5610240000000  0.5348520000000  0.6063670000000 1.0
C      1  0.4390790000000  0.5817030000000  0.5003630000000 1.0
C      1  0.6166970000000  0.5746210000000  0.4371050000000 1.0
C      1  0.4998330000000  0.5739490000000  0.3859830000000 1.0
C      1  0.5921330000000  0.5201540000000  0.5711260000000 1.0
C      1  0.4323540000000  0.4831250000000  0.5450600000000 1.0
C      1  0.4699930000000  0.5546100000000  0.5586540000000 1.0
C      1  0.5702360000000  0.5883890000000  0.5118450000000 1.0
C      1  0.4160270000000  0.4796240000000  0.5234560000000 1.0
C      1  0.5578550000000  0.5192610000000  0.4781730000000 1.0
C      1  0.3999440000000  0.4616120000000  0.4390210000000 1.0
C      1  0.4781030000000  0.4892690000000  0.6220200000000 1.0
C      1  0.4251540000000  0.4487720000000  0.4336010000000 1.0
C      1  0.4914210000000  0.5146530000000  0.4853190000000 1.0
C      1  0.5882930000000  0.4535110000000  0.5279230000000 1.0
C      1  0.6185480000000  0.5382730000000  0.4973370000000 1.0
C      1  0.4617500000000  0.5121110000000  0.3926730000000 1.0
C      1  0.5165900000000  0.5309650000000  0.5418670000000 1.0
C      1  0.4986360000000  0.4457240000000  0.5111350000000 1.0
C      1  0.4894750000000  0.4725790000000  0.5579410000000 1.0
C      1  0.4942350000000  0.5779940000000  0.4918200000000 1.0
C      1  0.5848310000000  0.5378380000000  0.4316510000000 1.0
C      1  0.4028430000000  0.4866500000000  0.4234130000000 1.0
C      1  0.5518050000000  0.4917720000000  0.4120240000000 1.0
C      1  0.4115630000000  0.5505930000000  0.5380930000000 1.0
C      1  0.4599110000000  0.6086910000000  0.5423480000000 1.0
C      1  0.5066850000000  0.4045640000000  0.4179860000000 1.0
C      1  0.4460700000000  0.5329910000000  0.4030760000000 1.0
C      1  0.5744440000000  0.4122030000000  0.5388350000000 1.0
C      1  0.6096790000000  0.5277800000000  0.5231180000000 1.0
C      1  0.4314040000000  0.5203860000000  0.5011820000000 1.0
C      1  0.5592590000000  0.4321820000000  0.4293120000000 1.0
C      1  0.3839880000000  0.5308460000000  0.4801700000000 1.0
C      1  0.5601640000000  0.4562000000000  0.5197860000000 1.0
C      1  0.4225800000000  0.5726400000000  0.4747190000000 1.0
C      1  0.4919590000000  0.3701490000000  0.4507600000000 1.0
C      1  0.5985910000000  0.4267770000000  0.4923750000000 1.0
C      1  0.5191310000000  0.5258650000000  0.4084410000000 1.0
C      1  0.5513060000000  0.5415640000000  0.4993510000000 1.0
C      1  0.5487510000000  0.5042800000000  0.5239540000000 1.0
C      1  0.5881740000000  0.5667950000000  0.5517100000000 1.0
C      1  0.4985980000000  0.4876890000000  0.3793610000000 1.0
C      1  0.4696140000000  0.4013550000000  0.5518530000000 1.0
C      1  0.4874320000000  0.4198740000000  0.4586130000000 1.0
C      1  0.5474750000000  0.4646920000000  0.5456580000000 1.0
C      1  0.4883900000000  0.6088400000000  0.5525200000000 1.0
C      1  0.5365110000000  0.5705850000000  0.5798210000000 1.0
C      1  0.4752470000000  0.5659890000000  0.3933310000000 1.0
C      1  0.4503490000000  0.4452720000000  0.4720900000000 1.0
C      1  0.5670030000000  0.4704120000000  0.5677070000000 1.0
C      1  0.4311980000000  0.4570480000000  0.5856930000000 1.0
C      1  0.4905600000000  0.5163110000000  0.5353600000000 1.0
C      1  0.6033120000000  0.5837480000000  0.5675660000000 1.0
C      1  0.4715720000000  0.4424270000000  0.6079990000000 1.0
C      1  0.4928600000000  0.5535590000000  0.6011460000000 1.0
C      1  0.4981290000000  0.4461550000000  0.4544950000000 1.0
C      1  0.5529390000000  0.4105040000000  0.4472630000000 1.0
C      1  0.5559180000000  0.5625140000000  0.5992830000000 1.0
C      1  0.4524720000000  0.5612090000000  0.5139600000000 1.0
C      1  0.5260620000000  0.4025240000000  0.4909870000000 1.0
C      1  0.5089330000000  0.5869300000000  0.4295140000000 1.0
END
