TITL C-3201378-2706-707 -7.09441993074458e-08 125000 -25.0790098697788 0 0 5 (D(inf)h) n - 1
REM
REM in /home/nfs/bkarasulu/CARBON/AIRSS/Generating-Clusters/LCBOP/Higher-Symm/SD-CG/FIRE-CG
REM
REM
REM
REM
REM
REM ./C.cell (b20cbc046b6831c77cfcea5457e17084)
REM AIRSS Version 0.9.1 bugfix July 2018 build 013d7b7c2542+ Fri, 06 Jul 2018 19:26:36 +0100
REM compiler GCC version 9.2.1 20190827 (Red Hat 9.2.1-1)
REM options -cpp -mtune=generic -march=x86-64 -g -O0 -fpre-include=/usr/include/finclude/math-vector-fortran.h
REM seed -2136241001 572168700 1756288903 1621474332 -1433311572 494817568 236849877 -66479668 1330795683 -1081676622 -544725490 1704339133 -1174809827 1915903775 1714488533 602609340 1335894951 -484490446 843737567 568399651 150139815 1766427788 1992503879 -1070484586 -1706101894 66398379 -925437591 634935298 408889326 -1506125239 -1198816802 -415470293 -1472068228
REM
CELL 1.54180   50.00000   50.00000   50.00000   90.00000   90.00000   90.00000
LATT -1
SFAC C  
C      1  0.4734930000000  0.4996440000000  0.4972570000000 1.0
C      1  0.5265070000000  0.4996440000000  0.4972570000000 1.0
C      1  0.4474230000000  0.4996440000000  0.4972570000000 1.0
C      1  0.5000000000000  0.4996440000000  0.4972570000000 1.0
C      1  0.5525770000000  0.4996440000000  0.4972570000000 1.0
END
