TITL C-3201375-1262-335 4333.96377510608 125000 -849.396471732226 0 0 135 (C2) n - 1
REM
REM in /home/nfs/bkarasulu/CARBON/AIRSS/Generating-Clusters/LCBOP/Higher-Symm/SD-CG/FIRE-CG
REM
REM
REM
REM
REM
REM ./C.cell (b20cbc046b6831c77cfcea5457e17084)
REM AIRSS Version 0.9.1 bugfix July 2018 build 013d7b7c2542+ Fri, 06 Jul 2018 19:26:36 +0100
REM compiler GCC version 9.2.1 20190827 (Red Hat 9.2.1-1)
REM options -cpp -mtune=generic -march=x86-64 -g -O0 -fpre-include=/usr/include/finclude/math-vector-fortran.h
REM seed 846946681 1527930041 1117188842 -1770633250 2001312441 1797352056 1860025220 641348657 1850825714 -196928676 -1921425889 -36804299 2131122131 58423385 -1162539953 -1943438491 531269116 -1076211233 1462058041 -258807812 934645058 268026620 -712370267 -956530096 -496101171 1574303272 399712823 1511729665 1902991337 611619041 2041050094 923497651 -1852765274
REM
CELL 1.54180   50.00000   50.00000   50.00000   90.00000   90.00000   90.00000
LATT -1
SFAC C  
C      1  0.4473280000000  0.4156890000000  0.5142810000000 1.0
C      1  0.5378980000000  0.4154070000000  0.5389560000000 1.0
C      1  0.5142020000000  0.4149620000000  0.4477220000000 1.0
C      1  0.4473140000000  0.5839430000000  0.4866590000000 1.0
C      1  0.5381720000000  0.5843860000000  0.4615590000000 1.0
C      1  0.5139720000000  0.5836610000000  0.5527540000000 1.0
C      1  0.4889110000000  0.4843440000000  0.5275640000000 1.0
C      1  0.5283460000000  0.4850050000000  0.4942820000000 1.0
C      1  0.4820280000000  0.4836730000000  0.4759050000000 1.0
C      1  0.4907780000000  0.5143440000000  0.4725930000000 1.0
C      1  0.5298530000000  0.5156770000000  0.5035150000000 1.0
C      1  0.4816750000000  0.5150060000000  0.5233870000000 1.0
C      1  0.4453050000000  0.5242070000000  0.4794090000000 1.0
C      1  0.5205070000000  0.5210760000000  0.5532750000000 1.0
C      1  0.5397080000000  0.5236250000000  0.4560520000000 1.0
C      1  0.4436100000000  0.4782730000000  0.5088810000000 1.0
C      1  0.5182030000000  0.4757240000000  0.4436370000000 1.0
C      1  0.5451820000000  0.4751420000000  0.5370690000000 1.0
C      1  0.5194380000000  0.5284350000000  0.4773840000000 1.0
C      1  0.4722040000000  0.5277040000000  0.4941030000000 1.0
C      1  0.5102090000000  0.5270740000000  0.5261720000000 1.0
C      1  0.5190060000000  0.4716460000000  0.5211230000000 1.0
C      1  0.4722290000000  0.4722750000000  0.5042470000000 1.0
C      1  0.5098650000000  0.4709140000000  0.4718580000000 1.0
C      1  0.5909510000000  0.5763120000000  0.5150220000000 1.0
C      1  0.4655390000000  0.5705960000000  0.4161070000000 1.0
C      1  0.4415820000000  0.5759550000000  0.5714630000000 1.0
C      1  0.5898830000000  0.4287530000000  0.4878940000000 1.0
C      1  0.4673240000000  0.4233960000000  0.5863250000000 1.0
C      1  0.4415110000000  0.4230370000000  0.4287500000000 1.0
C      1  0.5359680000000  0.5716640000000  0.5680130000000 1.0
C      1  0.5399290000000  0.5720010000000  0.4347490000000 1.0
C      1  0.4228890000000  0.5722690000000  0.4973400000000 1.0
C      1  0.5365410000000  0.4273470000000  0.4327940000000 1.0
C      1  0.5408620000000  0.4270810000000  0.5654490000000 1.0
C      1  0.4231140000000  0.4276860000000  0.5028620000000 1.0
C      1  0.4853390000000  0.4195650000000  0.4441350000000 1.0
C      1  0.4584550000000  0.4195440000000  0.5409660000000 1.0
C      1  0.5552190000000  0.4185670000000  0.5163380000000 1.0
C      1  0.4852980000000  0.5798070000000  0.5564620000000 1.0
C      1  0.4582400000000  0.5807820000000  0.4603490000000 1.0
C      1  0.5557110000000  0.5797840000000  0.4847610000000 1.0
C      1  0.4659270000000  0.5877380000000  0.5342300000000 1.0
C      1  0.5463020000000  0.5874590000000  0.5129040000000 1.0
C      1  0.4868990000000  0.5881150000000  0.4532280000000 1.0
C      1  0.4656710000000  0.4118910000000  0.4663570000000 1.0
C      1  0.5470550000000  0.4112340000000  0.4879580000000 1.0
C      1  0.4873940000000  0.4116120000000  0.5466250000000 1.0
C      1  0.5048240000000  0.5343400000000  0.4250870000000 1.0
C      1  0.4331990000000  0.5364690000000  0.5306150000000 1.0
C      1  0.5630380000000  0.5348910000000  0.5436010000000 1.0
C      1  0.5068900000000  0.4628810000000  0.5731590000000 1.0
C      1  0.4307190000000  0.4644590000000  0.4672120000000 1.0
C      1  0.5624620000000  0.4650080000000  0.4583630000000 1.0
C      1  0.4787130000000  0.4442060000000  0.5006690000000 1.0
C      1  0.5109030000000  0.4439110000000  0.5173420000000 1.0
C      1  0.5110990000000  0.4436090000000  0.4814740000000 1.0
C      1  0.4795300000000  0.5554390000000  0.4992290000000 1.0
C      1  0.5104940000000  0.5557400000000  0.4811230000000 1.0
C      1  0.5100650000000  0.5551440000000  0.5187680000000 1.0
C      1  0.4142590000000  0.5068400000000  0.4288420000000 1.0
C      1  0.4828100000000  0.5049240000000  0.6040410000000 1.0
C      1  0.6018190000000  0.5063970000000  0.4653770000000 1.0
C      1  0.4184960000000  0.4944260000000  0.5669120000000 1.0
C      1  0.4790700000000  0.4929520000000  0.3945120000000 1.0
C      1  0.6044970000000  0.4925090000000  0.5386700000000 1.0
C      1  0.4216820000000  0.4695370000000  0.5263340000000 1.0
C      1  0.5740390000000  0.4652800000000  0.5623980000000 1.0
C      1  0.5137980000000  0.4662570000000  0.4160720000000 1.0
C      1  0.4089400000000  0.5340700000000  0.4670840000000 1.0
C      1  0.5657820000000  0.5330910000000  0.4460830000000 1.0
C      1  0.5163570000000  0.5298130000000  0.5809920000000 1.0
C      1  0.4914130000000  0.5802710000000  0.4248220000000 1.0
C      1  0.4380720000000  0.5826410000000  0.5436400000000 1.0
C      1  0.5684740000000  0.5820900000000  0.5321140000000 1.0
C      1  0.4931740000000  0.4167090000000  0.5754530000000 1.0
C      1  0.4379490000000  0.4172590000000  0.4567610000000 1.0
C      1  0.5693980000000  0.4190780000000  0.4698450000000 1.0
C      1  0.4635100000000  0.4655930000000  0.4306780000000 1.0
C      1  0.4578460000000  0.4656320000000  0.5653870000000 1.0
C      1  0.5704870000000  0.4685600000000  0.5118970000000 1.0
C      1  0.4644540000000  0.5337190000000  0.5692010000000 1.0
C      1  0.4544500000000  0.5307890000000  0.4449060000000 1.0
C      1  0.5782790000000  0.5337550000000  0.4969360000000 1.0
C      1  0.4589910000000  0.4887920000000  0.4139560000000 1.0
C      1  0.4445250000000  0.4887930000000  0.5767030000000 1.0
C      1  0.5935560000000  0.4892020000000  0.5124690000000 1.0
C      1  0.4613150000000  0.5105580000000  0.5863960000000 1.0
C      1  0.4424200000000  0.5101470000000  0.4252150000000 1.0
C      1  0.5950210000000  0.5105560000000  0.4924880000000 1.0
C      1  0.5635680000000  0.5567350000000  0.4312440000000 1.0
C      1  0.4061390000000  0.5576450000000  0.4800440000000 1.0
C      1  0.5274310000000  0.5542560000000  0.5884180000000 1.0
C      1  0.5642160000000  0.4417040000000  0.5713060000000 1.0
C      1  0.4097130000000  0.4450940000000  0.5204590000000 1.0
C      1  0.5277550000000  0.4426130000000  0.4105700000000 1.0
C      1  0.4585320000000  0.4715600000000  0.4582090000000 1.0
C      1  0.4844210000000  0.4712950000000  0.5557500000000 1.0
C      1  0.5555420000000  0.4732320000000  0.4859720000000 1.0
C      1  0.4595100000000  0.5280550000000  0.5413680000000 1.0
C      1  0.4843750000000  0.5261170000000  0.4448860000000 1.0
C      1  0.5569270000000  0.5277890000000  0.5150130000000 1.0
C      1  0.5773560000000  0.4386180000000  0.5124470000000 1.0
C      1  0.4673220000000  0.4370680000000  0.4260570000000 1.0
C      1  0.4519940000000  0.4371600000000  0.5652910000000 1.0
C      1  0.5803750000000  0.5622810000000  0.4913230000000 1.0
C      1  0.4674640000000  0.5621910000000  0.5742210000000 1.0
C      1  0.4505400000000  0.5607310000000  0.4392330000000 1.0
C      1  0.5660070000000  0.5111930000000  0.5603720000000 1.0
C      1  0.5197090000000  0.5120320000000  0.4147450000000 1.0
C      1  0.4178040000000  0.5147030000000  0.5207170000000 1.0
C      1  0.5639760000000  0.4873160000000  0.4403010000000 1.0
C      1  0.5231610000000  0.4846470000000  0.5815410000000 1.0
C      1  0.4147110000000  0.4881570000000  0.4730270000000 1.0
C      1  0.5862710000000  0.4902510000000  0.5604000000000 1.0
C      1  0.5063770000000  0.4900080000000  0.4009060000000 1.0
C      1  0.4117380000000  0.4930490000000  0.5396070000000 1.0
C      1  0.5826260000000  0.5093400000000  0.4449260000000 1.0
C      1  0.5098350000000  0.5063010000000  0.5962400000000 1.0
C      1  0.4045550000000  0.5090990000000  0.4554920000000 1.0
C      1  0.5151150000000  0.4353430000000  0.5770360000000 1.0
C      1  0.5594750000000  0.4370570000000  0.4495700000000 1.0
C      1  0.4251810000000  0.4362360000000  0.4744730000000 1.0
C      1  0.5139330000000  0.5622910000000  0.4232770000000 1.0
C      1  0.5595200000000  0.5631130000000  0.5520280000000 1.0
C      1  0.4257290000000  0.5640080000000  0.5254310000000 1.0
C      1  0.4680900000000  0.5808440000000  0.5065790000000 1.0
C      1  0.5212710000000  0.5806940000000  0.5248380000000 1.0
C      1  0.5101700000000  0.5817140000000  0.4687920000000 1.0
C      1  0.4678530000000  0.4186550000000  0.4940000000000 1.0
C      1  0.5219400000000  0.4176350000000  0.4755880000000 1.0
C      1  0.5102580000000  0.4185060000000  0.5309250000000 1.0
C      1  0.4305510000000  0.5027600000000  0.4953530000000 1.0
C      1  0.5358450000000  0.4996740000000  0.4379110000000 1.0
C      1  0.5387520000000  0.4965900000000  0.5578200000000 1.0
END
