TITL C-3201372-1405-1534 -1.58040162540792e-07 125000 -600.439065547677 0 0 99 (C2) n - 1
REM
REM in /home/nfs/bkarasulu/CARBON/AIRSS/Generating-Clusters/LCBOP/Higher-Symm/SD-CG/FIRE-CG
REM
REM
REM
REM
REM
REM ./C.cell (b20cbc046b6831c77cfcea5457e17084)
REM AIRSS Version 0.9.1 bugfix July 2018 build 013d7b7c2542+ Fri, 06 Jul 2018 19:26:36 +0100
REM compiler GCC version 9.2.1 20190827 (Red Hat 9.2.1-1)
REM options -cpp -mtune=generic -march=x86-64 -g -O0 -fpre-include=/usr/include/finclude/math-vector-fortran.h
REM seed 1476946134 -1089854743 -1646143815 -1607959154 1100941294 -1885694284 940544313 -1769894395 -1850735094 924168369 -652494005 811474126 760186413 26933855 1854414650 -2125624755 1602821175 2112686957 1325858753 2127042893 -1655879359 1074463290 -535067578 2101740853 -978756701 -770422830 454803849 -1625688115 -668785142 336713366 414066937 1284347888 739910770
REM
CELL 1.54180   50.00000   50.00000   50.00000   90.00000   90.00000   90.00000
LATT -1
SFAC C  
C      1  0.4977870000000  0.4454270000000  0.4121760000000 1.0
C      1  0.4443050000000  0.4993340000000  0.5889440000000 1.0
C      1  0.5020180000000  0.5545230000000  0.4121770000000 1.0
C      1  0.5554850000000  0.5006130000000  0.5889490000000 1.0
C      1  0.4635330000000  0.5189800000000  0.5823940000000 1.0
C      1  0.5216320000000  0.5345580000000  0.4174110000000 1.0
C      1  0.5362570000000  0.4809670000000  0.5823960000000 1.0
C      1  0.4781730000000  0.4653920000000  0.4174090000000 1.0
C      1  0.5303020000000  0.5687190000000  0.4650630000000 1.0
C      1  0.5684130000000  0.4705970000000  0.5289630000000 1.0
C      1  0.4694990000000  0.4312300000000  0.4650590000000 1.0
C      1  0.4313820000000  0.5293510000000  0.5289580000000 1.0
C      1  0.4769480000000  0.5608650000000  0.4197330000000 1.0
C      1  0.5594110000000  0.5265800000000  0.5833620000000 1.0
C      1  0.5228570000000  0.4390850000000  0.4197340000000 1.0
C      1  0.4403790000000  0.4733670000000  0.5833570000000 1.0
C      1  0.4937790000000  0.4597000000000  0.5928910000000 1.0
C      1  0.4601610000000  0.5098740000000  0.4075700000000 1.0
C      1  0.5060100000000  0.5402470000000  0.5928920000000 1.0
C      1  0.5396450000000  0.4900760000000  0.4075730000000 1.0
C      1  0.4970890000000  0.5387740000000  0.4710250000000 1.0
C      1  0.5382750000000  0.5039830000000  0.5274690000000 1.0
C      1  0.5027110000000  0.4611750000000  0.4710240000000 1.0
C      1  0.4615200000000  0.4959650000000  0.5274660000000 1.0
C      1  0.5194590000000  0.4826650000000  0.5388890000000 1.0
C      1  0.4822410000000  0.4811710000000  0.4611040000000 1.0
C      1  0.4803350000000  0.5172830000000  0.5388870000000 1.0
C      1  0.5175590000000  0.5187780000000  0.4611060000000 1.0
C      1  0.4359160000000  0.4675760000000  0.4546740000000 1.0
C      1  0.4618180000000  0.5624830000000  0.5518590000000 1.0
C      1  0.5638850000000  0.5323730000000  0.4546810000000 1.0
C      1  0.5379750000000  0.4374650000000  0.5518610000000 1.0
C      1  0.4427590000000  0.5263490000000  0.4232400000000 1.0
C      1  0.5216680000000  0.5579110000000  0.5768880000000 1.0
C      1  0.5570450000000  0.4736000000000  0.4232440000000 1.0
C      1  0.4781230000000  0.4420360000000  0.5768850000000 1.0
C      1  0.4308160000000  0.4430330000000  0.5243370000000 1.0
C      1  0.4561820000000  0.5727930000000  0.4804510000000 1.0
C      1  0.5689800000000  0.5569150000000  0.5243440000000 1.0
C      1  0.5436180000000  0.4271560000000  0.4804530000000 1.0
C      1  0.5003470000000  0.5259850000000  0.5180260000000 1.0
C      1  0.5252320000000  0.4990190000000  0.4822510000000 1.0
C      1  0.4994490000000  0.4739630000000  0.5180260000000 1.0
C      1  0.4745670000000  0.5009290000000  0.4822490000000 1.0
C      1  0.5087140000000  0.4841180000000  0.5937780000000 1.0
C      1  0.4832980000000  0.4928580000000  0.4060990000000 1.0
C      1  0.4910750000000  0.5158290000000  0.5937770000000 1.0
C      1  0.5165080000000  0.5070920000000  0.4061000000000 1.0
C      1  0.5202350000000  0.5894110000000  0.5345070000000 1.0
C      1  0.5920460000000  0.4714060000000  0.4611900000000 1.0
C      1  0.4795590000000  0.4105370000000  0.5345030000000 1.0
C      1  0.4077540000000  0.5285430000000  0.4611820000000 1.0
C      1  0.5279580000000  0.5305750000000  0.5269070000000 1.0
C      1  0.5294580000000  0.4718280000000  0.4739200000000 1.0
C      1  0.4718370000000  0.4693730000000  0.5269040000000 1.0
C      1  0.4703420000000  0.5281210000000  0.4739180000000 1.0
C      1  0.5764320000000  0.5113910000000  0.4989660000000 1.0
C      1  0.5174350000000  0.4159880000000  0.4773620000000 1.0
C      1  0.4233660000000  0.4885570000000  0.4989590000000 1.0
C      1  0.4823640000000  0.5839610000000  0.4773620000000 1.0
C      1  0.4543410000000  0.4241980000000  0.4878000000000 1.0
C      1  0.4245910000000  0.5482590000000  0.5086670000000 1.0
C      1  0.5454580000000  0.5757500000000  0.4878060000000 1.0
C      1  0.5752060000000  0.4516890000000  0.5086730000000 1.0
C      1  0.4431370000000  0.5703200000000  0.5058560000000 1.0
C      1  0.5668610000000  0.5585280000000  0.4960810000000 1.0
C      1  0.5566600000000  0.4296280000000  0.5058600000000 1.0
C      1  0.4329370000000  0.4414210000000  0.4960740000000 1.0
C      1  0.4516840000000  0.4533840000000  0.5400270000000 1.0
C      1  0.4545940000000  0.5495940000000  0.4630770000000 1.0
C      1  0.5481100000000  0.5465640000000  0.5400320000000 1.0
C      1  0.5452060000000  0.4503550000000  0.4630800000000 1.0
C      1  0.5641220000000  0.4964420000000  0.5198060000000 1.0
C      1  0.4964390000000  0.4335850000000  0.4699040000000 1.0
C      1  0.4356740000000  0.5035060000000  0.5198000000000 1.0
C      1  0.5033610000000  0.5663640000000  0.4699050000000 1.0
C      1  0.5464710000000  0.5463550000000  0.5682660000000 1.0
C      1  0.5443080000000  0.4502530000000  0.4343040000000 1.0
C      1  0.4533200000000  0.4535920000000  0.5682610000000 1.0
C      1  0.4554950000000  0.5496960000000  0.4343010000000 1.0
C      1  0.5445780000000  0.4220530000000  0.5304390000000 1.0
C      1  0.4270150000000  0.4658660000000  0.4818920000000 1.0
C      1  0.4552160000000  0.5778950000000  0.5304360000000 1.0
C      1  0.5727840000000  0.5340830000000  0.4818990000000 1.0
C      1  0.4854730000000  0.4204020000000  0.5593240000000 1.0
C      1  0.4186450000000  0.5207340000000  0.4374720000000 1.0
C      1  0.5143190000000  0.5795460000000  0.5593270000000 1.0
C      1  0.5811580000000  0.4792160000000  0.4374790000000 1.0
C      1  0.5361780000000  0.5366210000000  0.4455270000000 1.0
C      1  0.5394340000000  0.4664140000000  0.5543480000000 1.0
C      1  0.4636240000000  0.4633290000000  0.4455230000000 1.0
C      1  0.4603590000000  0.5335340000000  0.5543450000000 1.0
C      1  0.5318580000000  0.5892570000000  0.5098440000000 1.0
C      1  0.5903680000000  0.4601290000000  0.4858030000000 1.0
C      1  0.4679380000000  0.4106910000000  0.5098400000000 1.0
C      1  0.4094300000000  0.5398200000000  0.4857950000000 1.0
C      1  0.4999010000000  0.4999750000000  0.4451420000000 1.0
C      1  0.4998960000000  0.4999740000000  0.5547650000000 1.0
C      1  0.4998990000000  0.4999740000000  0.5000680000000 1.0
END
