TITL C-3201374-830-447 3.11040098679144e-06 125000 -1092.07526843116 0 0 176 (C1) n - 1
REM
REM in /home/nfs/bkarasulu/CARBON/AIRSS/Generating-Clusters/LCBOP/Higher-Symm/SD-CG/FIRE-CG
REM
REM
REM
REM
REM
REM ./C.cell (b20cbc046b6831c77cfcea5457e17084)
REM AIRSS Version 0.9.1 bugfix July 2018 build 013d7b7c2542+ Fri, 06 Jul 2018 19:26:36 +0100
REM compiler GCC version 9.2.1 20190827 (Red Hat 9.2.1-1)
REM options -cpp -mtune=generic -march=x86-64 -g -O0 -fpre-include=/usr/include/finclude/math-vector-fortran.h
REM seed 40058715 1499235151 1126031334 981886353 -442279082 -1247128870 -184618288 2053632143 -1193917173 -855664093 -233557868 1714183768 1159004168 -1890347122 -1914690358 2133255937 -457850224 514045339 -2002791114 238219335 296771878 827652831 -84476802 700431240 -645236170 -647276820 -1049700147 -1491903785 -272379776 1608932769 400846897 -1293285294 -1618961937
REM
CELL 1.54180   50.00000   50.00000   50.00000   90.00000   90.00000   90.00000
LATT -1
SFAC C  
C      1  0.4493250000000  0.6059430000000  0.5172790000000 1.0
C      1  0.4509450000000  0.5180820000000  0.5972770000000 1.0
C      1  0.4522040000000  0.4106800000000  0.5449390000000 1.0
C      1  0.4511910000000  0.4262390000000  0.4284600000000 1.0
C      1  0.4513000000000  0.5473840000000  0.4114540000000 1.0
C      1  0.5109940000000  0.4427320000000  0.5821920000000 1.0
C      1  0.5095200000000  0.3989210000000  0.4713970000000 1.0
C      1  0.5092380000000  0.4979140000000  0.3990470000000 1.0
C      1  0.5082230000000  0.5998430000000  0.4663490000000 1.0
C      1  0.5095160000000  0.5637780000000  0.5785540000000 1.0
C      1  0.5156690000000  0.5857500000000  0.4448600000000 1.0
C      1  0.5152550000000  0.5839920000000  0.5620270000000 1.0
C      1  0.5159020000000  0.4664120000000  0.5935650000000 1.0
C      1  0.5162590000000  0.3944430000000  0.4969930000000 1.0
C      1  0.5160720000000  0.4722880000000  0.4037250000000 1.0
C      1  0.3788430000000  0.5206340000000  0.5299880000000 1.0
C      1  0.3809930000000  0.4768300000000  0.5264580000000 1.0
C      1  0.3803080000000  0.4649710000000  0.4845340000000 1.0
C      1  0.3790080000000  0.5041100000000  0.4600650000000 1.0
C      1  0.3796930000000  0.5392450000000  0.4898330000000 1.0
C      1  0.4659930000000  0.4499840000000  0.4673020000000 1.0
C      1  0.4505820000000  0.5162830000000  0.4517240000000 1.0
C      1  0.4661720000000  0.5638060000000  0.5016020000000 1.0
C      1  0.4602530000000  0.5206810000000  0.5405300000000 1.0
C      1  0.4554930000000  0.4647170000000  0.5261690000000 1.0
C      1  0.5670100000000  0.5064050000000  0.4749080000000 1.0
C      1  0.5634500000000  0.5235560000000  0.4968800000000 1.0
C      1  0.5703000000000  0.5068580000000  0.5196110000000 1.0
C      1  0.5639180000000  0.4800930000000  0.5118010000000 1.0
C      1  0.5668880000000  0.4806660000000  0.4834760000000 1.0
C      1  0.4947960000000  0.4889800000000  0.5270120000000 1.0
C      1  0.4977320000000  0.4613010000000  0.5133650000000 1.0
C      1  0.4948430000000  0.4907760000000  0.4642400000000 1.0
C      1  0.4892570000000  0.5127600000000  0.4824150000000 1.0
C      1  0.5020520000000  0.5118490000000  0.5094720000000 1.0
C      1  0.4052520000000  0.4661200000000  0.5361450000000 1.0
C      1  0.4037230000000  0.4501260000000  0.4772320000000 1.0
C      1  0.4041110000000  0.5050260000000  0.4480920000000 1.0
C      1  0.4036560000000  0.5545500000000  0.4911720000000 1.0
C      1  0.4018490000000  0.5271890000000  0.5451740000000 1.0
C      1  0.5935150000000  0.4887000000000  0.4401510000000 1.0
C      1  0.5937620000000  0.5548050000000  0.4706100000000 1.0
C      1  0.5891250000000  0.5437270000000  0.5397820000000 1.0
C      1  0.5940980000000  0.4729210000000  0.5558710000000 1.0
C      1  0.5934300000000  0.4395660000000  0.4927600000000 1.0
C      1  0.6044030000000  0.6375050000000  0.5179470000000 1.0
C      1  0.5850560000000  0.5385940000000  0.6283480000000 1.0
C      1  0.6118160000000  0.3792230000000  0.5673180000000 1.0
C      1  0.5916920000000  0.3930150000000  0.4166610000000 1.0
C      1  0.5956040000000  0.5500670000000  0.3728810000000 1.0
C      1  0.5180230000000  0.4129970000000  0.5441770000000 1.0
C      1  0.5144800000000  0.4343710000000  0.4384610000000 1.0
C      1  0.5148750000000  0.5420120000000  0.4195840000000 1.0
C      1  0.5154100000000  0.5975470000000  0.5138790000000 1.0
C      1  0.5129290000000  0.5157010000000  0.5850980000000 1.0
C      1  0.5093660000000  0.4461700000000  0.4125310000000 1.0
C      1  0.5089170000000  0.5698460000000  0.4225930000000 1.0
C      1  0.5084190000000  0.6018830000000  0.5413040000000 1.0
C      1  0.5083920000000  0.4924840000000  0.6012630000000 1.0
C      1  0.5096620000000  0.3938240000000  0.5245100000000 1.0
C      1  0.5398870000000  0.4404500000000  0.4828960000000 1.0
C      1  0.5415670000000  0.5040220000000  0.4377280000000 1.0
C      1  0.5448440000000  0.5648230000000  0.4869330000000 1.0
C      1  0.5373230000000  0.5325680000000  0.5444800000000 1.0
C      1  0.5484510000000  0.4526990000000  0.5471370000000 1.0
C      1  0.6092870000000  0.4624320000000  0.5336610000000 1.0
C      1  0.6086950000000  0.4569560000000  0.4753740000000 1.0
C      1  0.6087290000000  0.5107970000000  0.4511660000000 1.0
C      1  0.6082270000000  0.5505260000000  0.4950580000000 1.0
C      1  0.6034240000000  0.5194000000000  0.5431150000000 1.0
C      1  0.4993090000000  0.4247270000000  0.5633950000000 1.0
C      1  0.4975390000000  0.4137280000000  0.4500290000000 1.0
C      1  0.4973170000000  0.5229900000000  0.4063580000000 1.0
C      1  0.4968360000000  0.6034720000000  0.4923070000000 1.0
C      1  0.4967020000000  0.5396180000000  0.5864130000000 1.0
C      1  0.4597400000000  0.6073670000000  0.5449080000000 1.0
C      1  0.4607720000000  0.4923800000000  0.6069410000000 1.0
C      1  0.4609220000000  0.3920080000000  0.5243890000000 1.0
C      1  0.4614450000000  0.4428860000000  0.4068610000000 1.0
C      1  0.4610640000000  0.5736980000000  0.4188110000000 1.0
C      1  0.5881420000000  0.4171970000000  0.4256990000000 1.0
C      1  0.5907750000000  0.5485800000000  0.3984450000000 1.0
C      1  0.5958580000000  0.6130480000000  0.5207620000000 1.0
C      1  0.5833720000000  0.5233860000000  0.6072540000000 1.0
C      1  0.6018720000000  0.3963240000000  0.5503540000000 1.0
C      1  0.4236840000000  0.4397860000000  0.4964010000000 1.0
C      1  0.4211060000000  0.4810890000000  0.4442230000000 1.0
C      1  0.4248080000000  0.5503740000000  0.4718760000000 1.0
C      1  0.4192000000000  0.5495120000000  0.5381000000000 1.0
C      1  0.4226380000000  0.4823460000000  0.5536480000000 1.0
C      1  0.4132640000000  0.5078490000000  0.5633410000000 1.0
C      1  0.4154820000000  0.4412420000000  0.5247080000000 1.0
C      1  0.4133470000000  0.4542290000000  0.4504670000000 1.0
C      1  0.4222450000000  0.5302300000000  0.4484370000000 1.0
C      1  0.4117730000000  0.5675730000000  0.5160770000000 1.0
C      1  0.5400550000000  0.5837490000000  0.5084260000000 1.0
C      1  0.5348340000000  0.5140230000000  0.5667140000000 1.0
C      1  0.5442580000000  0.4244650000000  0.5416450000000 1.0
C      1  0.5370140000000  0.4438810000000  0.4538070000000 1.0
C      1  0.5389720000000  0.5322520000000  0.4317270000000 1.0
C      1  0.4535840000000  0.5513170000000  0.4803660000000 1.0
C      1  0.4482930000000  0.5465470000000  0.5429790000000 1.0
C      1  0.4516820000000  0.4774470000000  0.5508970000000 1.0
C      1  0.4542760000000  0.4393660000000  0.4906610000000 1.0
C      1  0.4491600000000  0.4887650000000  0.4468810000000 1.0
C      1  0.4532550000000  0.3911270000000  0.4964550000000 1.0
C      1  0.4540150000000  0.4701860000000  0.3999930000000 1.0
C      1  0.4531970000000  0.5896330000000  0.4417530000000 1.0
C      1  0.4528620000000  0.5899080000000  0.5674580000000 1.0
C      1  0.4539040000000  0.4657440000000  0.5977010000000 1.0
C      1  0.4245490000000  0.5173470000000  0.5872880000000 1.0
C      1  0.4262100000000  0.4213200000000  0.5415180000000 1.0
C      1  0.4247900000000  0.4327620000000  0.4364170000000 1.0
C      1  0.4251480000000  0.5422070000000  0.4213540000000 1.0
C      1  0.4235700000000  0.5934390000000  0.5150240000000 1.0
C      1  0.4681140000000  0.5239000000000  0.4038650000000 1.0
C      1  0.4671530000000  0.6068920000000  0.4926040000000 1.0
C      1  0.4678150000000  0.5417100000000  0.5911080000000 1.0
C      1  0.4699220000000  0.4240390000000  0.5644250000000 1.0
C      1  0.4683160000000  0.4101310000000  0.4469940000000 1.0
C      1  0.5240550000000  0.4547450000000  0.5039100000000 1.0
C      1  0.5190990000000  0.4927010000000  0.4508180000000 1.0
C      1  0.5403210000000  0.5389600000000  0.4978290000000 1.0
C      1  0.5228910000000  0.5297280000000  0.5185490000000 1.0
C      1  0.5433340000000  0.4653410000000  0.5223430000000 1.0
C      1  0.4679890000000  0.5286950000000  0.4707130000000 1.0
C      1  0.4654610000000  0.5635100000000  0.5282680000000 1.0
C      1  0.4742710000000  0.4967850000000  0.5490140000000 1.0
C      1  0.4723500000000  0.4467070000000  0.5126340000000 1.0
C      1  0.4720050000000  0.4747910000000  0.4563450000000 1.0
C      1  0.6222460000000  0.4818700000000  0.5168790000000 1.0
C      1  0.6226650000000  0.4786410000000  0.4878130000000 1.0
C      1  0.6226100000000  0.5053650000000  0.4756440000000 1.0
C      1  0.6219020000000  0.5252880000000  0.4971700000000 1.0
C      1  0.6205930000000  0.5105100000000  0.5222730000000 1.0
C      1  0.4857930000000  0.3799680000000  0.5300840000000 1.0
C      1  0.4873440000000  0.4353970000000  0.3986130000000 1.0
C      1  0.4865860000000  0.5793930000000  0.4084290000000 1.0
C      1  0.4859160000000  0.6180540000000  0.5464410000000 1.0
C      1  0.4863810000000  0.4938600000000  0.6186660000000 1.0
C      1  0.6019290000000  0.5383630000000  0.4470200000000 1.0
C      1  0.6004270000000  0.5624990000000  0.5198500000000 1.0
C      1  0.5992680000000  0.5009310000000  0.5643000000000 1.0
C      1  0.6035530000000  0.4375240000000  0.5207340000000 1.0
C      1  0.6017280000000  0.4609640000000  0.4479270000000 1.0
C      1  0.3551340000000  0.4565570000000  0.4819510000000 1.0
C      1  0.3544070000000  0.5041330000000  0.4499800000000 1.0
C      1  0.3549870000000  0.5475890000000  0.4846870000000 1.0
C      1  0.3535610000000  0.5262970000000  0.5364320000000 1.0
C      1  0.3564120000000  0.4711960000000  0.5351810000000 1.0
C      1  0.4564650000000  0.4974730000000  0.3981760000000 1.0
C      1  0.4553460000000  0.6021420000000  0.4660190000000 1.0
C      1  0.4565240000000  0.5679870000000  0.5837850000000 1.0
C      1  0.4582580000000  0.4423370000000  0.5841870000000 1.0
C      1  0.4563030000000  0.3958690000000  0.4696510000000 1.0
C      1  0.4100120000000  0.5023470000000  0.4960170000000 1.0
C      1  0.4262100000000  0.5223030000000  0.5065280000000 1.0
C      1  0.4507440000000  0.5122610000000  0.5149530000000 1.0
C      1  0.4507420000000  0.4849990000000  0.5064160000000 1.0
C      1  0.4284480000000  0.4822580000000  0.4900900000000 1.0
C      1  0.5910430000000  0.4147090000000  0.5328980000000 1.0
C      1  0.5832690000000  0.4421530000000  0.4362880000000 1.0
C      1  0.5848310000000  0.5461010000000  0.4252320000000 1.0
C      1  0.5862710000000  0.5873030000000  0.5231110000000 1.0
C      1  0.5801370000000  0.5084140000000  0.5843720000000 1.0
C      1  0.5580290000000  0.4563330000000  0.4383560000000 1.0
C      1  0.5594290000000  0.5508590000000  0.4386330000000 1.0
C      1  0.5590550000000  0.5789090000000  0.5296690000000 1.0
C      1  0.5558860000000  0.4957110000000  0.5741480000000 1.0
C      1  0.5638340000000  0.4154410000000  0.5222550000000 1.0
C      1  0.5646540000000  0.5629110000000  0.4655920000000 1.0
C      1  0.5601400000000  0.5517230000000  0.5432690000000 1.0
C      1  0.5650020000000  0.4693260000000  0.5631160000000 1.0
C      1  0.5647830000000  0.4284580000000  0.4945530000000 1.0
C      1  0.5637020000000  0.4857060000000  0.4345250000000 1.0
C      1  0.3830450000000  0.5013740000000  0.4973030000000 1.0
END
