TITL C-3201377-4638-1151 4892.6239529197 125000 -690.307051100807 0 0 114 (C1) n - 1
REM
REM in /home/nfs/bkarasulu/CARBON/AIRSS/Generating-Clusters/LCBOP/Higher-Symm/SD-CG/FIRE-CG
REM
REM
REM
REM
REM
REM ./C.cell (b20cbc046b6831c77cfcea5457e17084)
REM AIRSS Version 0.9.1 bugfix July 2018 build 013d7b7c2542+ Fri, 06 Jul 2018 19:26:36 +0100
REM compiler GCC version 9.2.1 20190827 (Red Hat 9.2.1-1)
REM options -cpp -mtune=generic -march=x86-64 -g -O0 -fpre-include=/usr/include/finclude/math-vector-fortran.h
REM seed -1082964966 -386515991 -1674382784 -32053994 1542331776 1383697156 1401950371 1018410777 -846738411 306610723 -1477486407 1446891622 1873929198 1401195924 946063455 -736528699 -83474503 799859570 -1458244760 1650684490 1433292749 -1663067862 1464614735 52249325 1548213780 267553354 331797033 1473136699 -1848237215 -2017166797 -1109673429 759190117 -408362571
REM
CELL 1.54180   50.00000   50.00000   50.00000   90.00000   90.00000   90.00000
LATT -1
SFAC C  
C      1  0.4856730000000  0.4119580000000  0.4521690000000 1.0
C      1  0.4166810000000  0.4682830000000  0.5479080000000 1.0
C      1  0.4303780000000  0.5564370000000  0.4521850000000 1.0
C      1  0.5140610000000  0.5885460000000  0.5476890000000 1.0
C      1  0.5837210000000  0.5320080000000  0.4523360000000 1.0
C      1  0.5695000000000  0.4433830000000  0.5477180000000 1.0
C      1  0.4654800000000  0.4586170000000  0.5496800000000 1.0
C      1  0.4467630000000  0.5094480000000  0.4505180000000 1.0
C      1  0.4815810000000  0.5508790000000  0.5494420000000 1.0
C      1  0.5347540000000  0.5409490000000  0.4503430000000 1.0
C      1  0.5528640000000  0.4903120000000  0.5496240000000 1.0
C      1  0.5185180000000  0.4492990000000  0.4503920000000 1.0
C      1  0.5166720000000  0.3716600000000  0.5000180000000 1.0
C      1  0.3973850000000  0.4214630000000  0.4998510000000 1.0
C      1  0.3805520000000  0.5494110000000  0.5005480000000 1.0
C      1  0.4829370000000  0.6281300000000  0.4993480000000 1.0
C      1  0.6021480000000  0.5790830000000  0.5004430000000 1.0
C      1  0.6196710000000  0.4508440000000  0.4997990000000 1.0
C      1  0.5326100000000  0.4542540000000  0.5736990000000 1.0
C      1  0.4770230000000  0.4499050000000  0.4266660000000 1.0
C      1  0.4451260000000  0.4946910000000  0.5735610000000 1.0
C      1  0.4671310000000  0.5451990000000  0.4260930000000 1.0
C      1  0.5227510000000  0.5511240000000  0.5738140000000 1.0
C      1  0.5560110000000  0.5055560000000  0.4261390000000 1.0
C      1  0.4544180000000  0.5656640000000  0.4405200000000 1.0
C      1  0.5340810000000  0.5723770000000  0.5593750000000 1.0
C      1  0.5799730000000  0.5065280000000  0.4407190000000 1.0
C      1  0.5454590000000  0.4339470000000  0.5591920000000 1.0
C      1  0.4656820000000  0.4284520000000  0.4408360000000 1.0
C      1  0.4209050000000  0.4938050000000  0.5593490000000 1.0
C      1  0.5935160000000  0.4584060000000  0.4596060000000 1.0
C      1  0.5104920000000  0.3982550000000  0.5401830000000 1.0
C      1  0.4171370000000  0.4404970000000  0.4597370000000 1.0
C      1  0.4070710000000  0.5419030000000  0.5405480000000 1.0
C      1  0.4894460000000  0.6013940000000  0.4593350000000 1.0
C      1  0.5825670000000  0.5600430000000  0.5405920000000 1.0
C      1  0.4638140000000  0.4685640000000  0.4806290000000 1.0
C      1  0.4545810000000  0.5156860000000  0.5195570000000 1.0
C      1  0.4907050000000  0.5470380000000  0.4802950000000 1.0
C      1  0.5360120000000  0.5314140000000  0.5195480000000 1.0
C      1  0.5455750000000  0.4844150000000  0.4804880000000 1.0
C      1  0.5093930000000  0.4527160000000  0.5194790000000 1.0
C      1  0.5471530000000  0.5057250000000  0.5254330000000 1.0
C      1  0.5288770000000  0.4619490000000  0.4746220000000 1.0
C      1  0.4816070000000  0.4560600000000  0.5254130000000 1.0
C      1  0.4526320000000  0.4942080000000  0.4747600000000 1.0
C      1  0.4712920000000  0.5381530000000  0.5252410000000 1.0
C      1  0.5185170000000  0.5436280000000  0.4745260000000 1.0
C      1  0.5304820000000  0.4111980000000  0.5524490000000 1.0
C      1  0.4384360000000  0.4299660000000  0.4473730000000 1.0
C      1  0.4085880000000  0.5181720000000  0.5528780000000 1.0
C      1  0.4694960000000  0.5884020000000  0.4470620000000 1.0
C      1  0.5613120000000  0.5707580000000  0.5528580000000 1.0
C      1  0.5922390000000  0.4821960000000  0.4473740000000 1.0
C      1  0.5348000000000  0.4823940000000  0.5704310000000 1.0
C      1  0.5029910000000  0.4610660000000  0.4293930000000 1.0
C      1  0.4678430000000  0.4778870000000  0.5707530000000 1.0
C      1  0.4647720000000  0.5171120000000  0.4296080000000 1.0
C      1  0.4972530000000  0.5391080000000  0.5703250000000 1.0
C      1  0.5326550000000  0.5213860000000  0.4294790000000 1.0
C      1  0.4386920000000  0.4478750000000  0.5495940000000 1.0
C      1  0.4239320000000  0.5271160000000  0.4505190000000 1.0
C      1  0.4854490000000  0.5794800000000  0.5494330000000 1.0
C      1  0.5614100000000  0.5520720000000  0.4504440000000 1.0
C      1  0.5757770000000  0.4727290000000  0.5495990000000 1.0
C      1  0.5143690000000  0.4207470000000  0.4504190000000 1.0
C      1  0.5739440000000  0.5770580000000  0.4575420000000 1.0
C      1  0.6037110000000  0.4743140000000  0.5426080000000 1.0
C      1  0.5293940000000  0.3971470000000  0.4573320000000 1.0
C      1  0.4258230000000  0.4230610000000  0.5425680000000 1.0
C      1  0.3960410000000  0.5257080000000  0.4577010000000 1.0
C      1  0.4702750000000  0.6029260000000  0.5422590000000 1.0
C      1  0.5608640000000  0.4965250000000  0.5014730000000 1.0
C      1  0.5275840000000  0.4454780000000  0.4985560000000 1.0
C      1  0.4666150000000  0.4491390000000  0.5014790000000 1.0
C      1  0.4391190000000  0.5036290000000  0.4987010000000 1.0
C      1  0.4726110000000  0.5544790000000  0.5012260000000 1.0
C      1  0.5333030000000  0.5507350000000  0.4985620000000 1.0
C      1  0.4797460000000  0.5025820000000  0.4124500000000 1.0
C      1  0.4921820000000  0.5188630000000  0.5874780000000 1.0
C      1  0.5127800000000  0.5152440000000  0.4122060000000 1.0
C      1  0.5196710000000  0.4965920000000  0.5877670000000 1.0
C      1  0.5092050000000  0.4797940000000  0.4109700000000 1.0
C      1  0.4871850000000  0.4819620000000  0.5891410000000 1.0
C      1  0.4021740000000  0.4447340000000  0.4829780000000 1.0
C      1  0.4031700000000  0.5569530000000  0.5173060000000 1.0
C      1  0.5006610000000  0.6122340000000  0.4825420000000 1.0
C      1  0.5975050000000  0.5558050000000  0.5173470000000 1.0
C      1  0.5972210000000  0.4432830000000  0.4828270000000 1.0
C      1  0.4991000000000  0.3875290000000  0.5170050000000 1.0
C      1  0.3875580000000  0.5487900000000  0.4728430000000 1.0
C      1  0.4859960000000  0.6217820000000  0.5270460000000 1.0
C      1  0.5981620000000  0.5731170000000  0.4727780000000 1.0
C      1  0.6124270000000  0.4513340000000  0.5274410000000 1.0
C      1  0.5135680000000  0.3782600000000  0.4723810000000 1.0
C      1  0.4015550000000  0.4273270000000  0.5275170000000 1.0
C      1  0.4129640000000  0.4929700000000  0.4999900000000 1.0
C      1  0.4502490000000  0.5717510000000  0.4999760000000 1.0
C      1  0.5369730000000  0.5787560000000  0.4997880000000 1.0
C      1  0.5869140000000  0.5074930000000  0.5003260000000 1.0
C      1  0.5500230000000  0.4282840000000  0.4997360000000 1.0
C      1  0.4627300000000  0.4211550000000  0.5001850000000 1.0
C      1  0.5780430000000  0.4303040000000  0.5011620000000 1.0
C      1  0.4783650000000  0.3978370000000  0.4986630000000 1.0
C      1  0.4006730000000  0.4677310000000  0.5014450000000 1.0
C      1  0.4222220000000  0.5698010000000  0.4987440000000 1.0
C      1  0.5213500000000  0.6021060000000  0.5010350000000 1.0
C      1  0.5991810000000  0.5327630000000  0.4989540000000 1.0
C      1  0.4860430000000  0.3906910000000  0.4714490000000 1.0
C      1  0.3984520000000  0.4573630000000  0.5286070000000 1.0
C      1  0.4119200000000  0.5666180000000  0.4716470000000 1.0
C      1  0.5136000000000  0.6095500000000  0.5281520000000 1.0
C      1  0.6016100000000  0.5431210000000  0.4717990000000 1.0
C      1  0.5881430000000  0.4333890000000  0.5283500000000 1.0
END
