TITL C-3623283-6828-986 0.129169436323216 125000 -795.841863774364 0 0 134 (C1) n - 1
REM
REM in /home/nfs/bkarasulu/CARBON/AIRSS/Generating-Clusters/LCBOP/Higher-Symm/SD-CG/FIRE-CG
REM
REM
REM
REM
REM
REM ./C.cell (b20cbc046b6831c77cfcea5457e17084)
REM AIRSS Version 0.9.1 bugfix July 2018 build 013d7b7c2542+ Fri, 06 Jul 2018 19:26:36 +0100
REM compiler GCC version 9.2.1 20190827 (Red Hat 9.2.1-1)
REM options -cpp -mtune=generic -march=x86-64 -g -O0 -fpre-include=/usr/include/finclude/math-vector-fortran.h
REM seed -1646281599 1690547775 -492975682 -2132464540 -1050006453 924147157 -599707103 1423277612 1116029422 1127329863 333774346 -660323595 1978126331 -1295047500 1457095872 -1318802081 -1571348518 -126502071 -1314570284 -1124287316 -1966608368 -298751998 -1621257014 -983559262 1985061920 -194464541 -973918121 -1377972534 -216262500 532422621 1808715737 1624865483 408221111
REM
CELL 1.54180   50.00000   50.00000   50.00000   90.00000   90.00000   90.00000
LATT -1
SFAC C  
C      1  0.5356220000000  0.4487550000000  0.5441580000000 1.0
C      1  0.4722040000000  0.4464280000000  0.4608290000000 1.0
C      1  0.5263660000000  0.5517960000000  0.4590300000000 1.0
C      1  0.4694450000000  0.5538480000000  0.5450820000000 1.0
C      1  0.5589030000000  0.4502480000000  0.5209340000000 1.0
C      1  0.4493180000000  0.4514810000000  0.4843460000000 1.0
C      1  0.4433650000000  0.5563220000000  0.5240600000000 1.0
C      1  0.5528900000000  0.5498360000000  0.4792570000000 1.0
C      1  0.4766620000000  0.4672340000000  0.4388810000000 1.0
C      1  0.5380400000000  0.4690770000000  0.5667660000000 1.0
C      1  0.4741760000000  0.5323620000000  0.5661560000000 1.0
C      1  0.5243910000000  0.5297910000000  0.4374130000000 1.0
C      1  0.4317580000000  0.4758350000000  0.4796370000000 1.0
C      1  0.5861060000000  0.4635180000000  0.5294460000000 1.0
C      1  0.5792340000000  0.5370320000000  0.4677740000000 1.0
C      1  0.4214160000000  0.5353390000000  0.5219830000000 1.0
C      1  0.4974880000000  0.5513350000000  0.4710080000000 1.0
C      1  0.4929920000000  0.5532440000000  0.5242380000000 1.0
C      1  0.5061960000000  0.4548520000000  0.5345180000000 1.0
C      1  0.4975340000000  0.4430980000000  0.4791680000000 1.0
C      1  0.4554670000000  0.5559770000000  0.4958460000000 1.0
C      1  0.5512380000000  0.5346590000000  0.5058110000000 1.0
C      1  0.5540340000000  0.4658420000000  0.4951220000000 1.0
C      1  0.4633010000000  0.4578670000000  0.5121850000000 1.0
C      1  0.5836570000000  0.5135570000000  0.4504980000000 1.0
C      1  0.4250970000000  0.5089110000000  0.5322410000000 1.0
C      1  0.5910130000000  0.4884220000000  0.5447850000000 1.0
C      1  0.4469630000000  0.5002830000000  0.4789860000000 1.0
C      1  0.4589310000000  0.5084930000000  0.5652230000000 1.0
C      1  0.5350190000000  0.5050010000000  0.4467780000000 1.0
C      1  0.5430070000000  0.4950040000000  0.5558490000000 1.0
C      1  0.4787810000000  0.4938280000000  0.4487990000000 1.0
C      1  0.5092560000000  0.5269870000000  0.4135800000000 1.0
C      1  0.4959530000000  0.5313220000000  0.5842350000000 1.0
C      1  0.5293800000000  0.4701280000000  0.5934160000000 1.0
C      1  0.4784960000000  0.4676620000000  0.4107390000000 1.0
C      1  0.4010830000000  0.5372430000000  0.5021800000000 1.0
C      1  0.6025880000000  0.5353940000000  0.4858140000000 1.0
C      1  0.6071220000000  0.4655150000000  0.5086600000000 1.0
C      1  0.4050740000000  0.4790870000000  0.4716560000000 1.0
C      1  0.5222210000000  0.4943160000000  0.4697490000000 1.0
C      1  0.5007190000000  0.4856830000000  0.5326470000000 1.0
C      1  0.5247200000000  0.5021410000000  0.5350700000000 1.0
C      1  0.4943770000000  0.4969160000000  0.4729930000000 1.0
C      1  0.4717910000000  0.4878180000000  0.5204620000000 1.0
C      1  0.5385060000000  0.4893130000000  0.4919990000000 1.0
C      1  0.5375890000000  0.5102260000000  0.5110020000000 1.0
C      1  0.4730100000000  0.5002630000000  0.4931730000000 1.0
C      1  0.5027230000000  0.3881020000000  0.4733570000000 1.0
C      1  0.4938400000000  0.3950670000000  0.5323260000000 1.0
C      1  0.5061510000000  0.6106620000000  0.5339240000000 1.0
C      1  0.4897360000000  0.6082860000000  0.4753950000000 1.0
C      1  0.4706360000000  0.3954570000000  0.5186630000000 1.0
C      1  0.5260130000000  0.3913120000000  0.4866550000000 1.0
C      1  0.5271200000000  0.6076280000000  0.5173550000000 1.0
C      1  0.4687380000000  0.6103690000000  0.4922180000000 1.0
C      1  0.3615220000000  0.5107890000000  0.4261770000000 1.0
C      1  0.6290650000000  0.5210130000000  0.5468420000000 1.0
C      1  0.3829840000000  0.4841540000000  0.5248470000000 1.0
C      1  0.6222570000000  0.4825990000000  0.4426160000000 1.0
C      1  0.4493170000000  0.5026030000000  0.3571130000000 1.0
C      1  0.5080330000000  0.4748460000000  0.6538530000000 1.0
C      1  0.5104370000000  0.5268100000000  0.3489370000000 1.0
C      1  0.4626410000000  0.4896860000000  0.6106100000000 1.0
C      1  0.5404120000000  0.4322530000000  0.4475560000000 1.0
C      1  0.4681030000000  0.4366690000000  0.5706940000000 1.0
C      1  0.5375530000000  0.5651090000000  0.5529900000000 1.0
C      1  0.4588110000000  0.5631750000000  0.4346710000000 1.0
C      1  0.4446470000000  0.4373740000000  0.5574650000000 1.0
C      1  0.5650520000000  0.4421600000000  0.4516880000000 1.0
C      1  0.5632410000000  0.5588860000000  0.5479320000000 1.0
C      1  0.4364200000000  0.5676300000000  0.4490090000000 1.0
C      1  0.4811070000000  0.5550700000000  0.4471780000000 1.0
C      1  0.5169810000000  0.5595580000000  0.5367450000000 1.0
C      1  0.4908980000000  0.4445670000000  0.5590980000000 1.0
C      1  0.5195570000000  0.4352310000000  0.4640110000000 1.0
C      1  0.4374310000000  0.5636020000000  0.4755280000000 1.0
C      1  0.5690120000000  0.5446620000000  0.5258050000000 1.0
C      1  0.5701530000000  0.4573460000000  0.4732520000000 1.0
C      1  0.4438350000000  0.4466430000000  0.5322710000000 1.0
C      1  0.5583420000000  0.5809030000000  0.4842980000000 1.0
C      1  0.4359660000000  0.5870020000000  0.5265240000000 1.0
C      1  0.5623910000000  0.4188850000000  0.5148910000000 1.0
C      1  0.4378440000000  0.4221940000000  0.4870960000000 1.0
C      1  0.4710160000000  0.5823060000000  0.5586710000000 1.0
C      1  0.5267290000000  0.5819310000000  0.4484910000000 1.0
C      1  0.5346920000000  0.4190460000000  0.5538010000000 1.0
C      1  0.4676050000000  0.4175000000000  0.4496460000000 1.0
C      1  0.4297030000000  0.5023700000000  0.4009710000000 1.0
C      1  0.5476770000000  0.5017330000000  0.6501590000000 1.0
C      1  0.4205460000000  0.4901580000000  0.5878920000000 1.0
C      1  0.5350680000000  0.4892920000000  0.3662920000000 1.0
C      1  0.4083390000000  0.5046270000000  0.4167040000000 1.0
C      1  0.5684540000000  0.5136830000000  0.6603910000000 1.0
C      1  0.5535310000000  0.4708980000000  0.3663060000000 1.0
C      1  0.4018360000000  0.4887260000000  0.5688730000000 1.0
C      1  0.4773880000000  0.4916570000000  0.3950880000000 1.0
C      1  0.5216690000000  0.4914400000000  0.6104840000000 1.0
C      1  0.5112230000000  0.5153430000000  0.5994470000000 1.0
C      1  0.4999350000000  0.5095860000000  0.3930510000000 1.0
C      1  0.3920900000000  0.5027880000000  0.4628350000000 1.0
C      1  0.6182890000000  0.4924640000000  0.5069390000000 1.0
C      1  0.6156970000000  0.5093050000000  0.4845550000000 1.0
C      1  0.3906120000000  0.5243530000000  0.4810610000000 1.0
C      1  0.4402480000000  0.4129480000000  0.4415480000000 1.0
C      1  0.5608290000000  0.4084000000000  0.5602010000000 1.0
C      1  0.4463130000000  0.5897530000000  0.5716820000000 1.0
C      1  0.5524790000000  0.5910480000000  0.4393400000000 1.0
C      1  0.4231980000000  0.4147750000000  0.4631790000000 1.0
C      1  0.5766720000000  0.4072340000000  0.5375560000000 1.0
C      1  0.5705530000000  0.5918750000000  0.4602040000000 1.0
C      1  0.4262970000000  0.5932840000000  0.5530470000000 1.0
C      1  0.4593100000000  0.6036770000000  0.5180290000000 1.0
C      1  0.5350050000000  0.5966810000000  0.4927560000000 1.0
C      1  0.4593370000000  0.4026010000000  0.4938320000000 1.0
C      1  0.5374010000000  0.4037160000000  0.5092540000000 1.0
C      1  0.5157430000000  0.5985400000000  0.4705990000000 1.0
C      1  0.4798650000000  0.6022160000000  0.5390120000000 1.0
C      1  0.4766690000000  0.3984780000000  0.4702860000000 1.0
C      1  0.5207220000000  0.4031840000000  0.5335100000000 1.0
C      1  0.6138680000000  0.5025390000000  0.5339870000000 1.0
C      1  0.3870110000000  0.5062020000000  0.4350200000000 1.0
C      1  0.6081220000000  0.4999870000000  0.4579740000000 1.0
C      1  0.4024810000000  0.4938340000000  0.5412470000000 1.0
C      1  0.5255640000000  0.4891870000000  0.6385120000000 1.0
C      1  0.4520350000000  0.4991390000000  0.3841470000000 1.0
C      1  0.4479780000000  0.4962180000000  0.5885700000000 1.0
C      1  0.5151490000000  0.5087340000000  0.3689170000000 1.0
C      1  0.4514340000000  0.5003090000000  0.5390770000000 1.0
C      1  0.5615980000000  0.5004910000000  0.4396550000000 1.0
C      1  0.5699810000000  0.5019530000000  0.5571580000000 1.0
C      1  0.4540220000000  0.5078750000000  0.4519970000000 1.0
C      1  0.4922620000000  0.4462690000000  0.5077640000000 1.0
C      1  0.4842860000000  0.5526680000000  0.4965110000000 1.0
END
