TITL C-3623282-6910-583 45.5156788295664 125000 -1060.09492030907 0 0 176 (C1) n - 1
REM
REM in /home/nfs/bkarasulu/CARBON/AIRSS/Generating-Clusters/LCBOP/Higher-Symm/SD-CG/FIRE-CG
REM
REM
REM
REM
REM
REM ./C.cell (b20cbc046b6831c77cfcea5457e17084)
REM AIRSS Version 0.9.1 bugfix July 2018 build 013d7b7c2542+ Fri, 06 Jul 2018 19:26:36 +0100
REM compiler GCC version 9.2.1 20190827 (Red Hat 9.2.1-1)
REM options -cpp -mtune=generic -march=x86-64 -g -O0 -fpre-include=/usr/include/finclude/math-vector-fortran.h
REM seed 243279269 -1467055886 -1275178749 590506593 -187187020 -577595161 1021726727 -1472789907 306888868 726268802 2033384927 -425559504 -1934401317 -375848967 1808106559 1114222527 430501788 -744415408 -353479563 -1742095949 359857347 584316033 1776754548 266276466 513540447 1879269087 -1719267560 -1545675430 -1316299581 498611790 -370791239 938673184 -2034268503
REM
CELL 1.54180   50.00000   50.00000   50.00000   90.00000   90.00000   90.00000
LATT -1
SFAC C  
C      1  0.6083070000000  0.4531560000000  0.4675670000000 1.0
C      1  0.4077940000000  0.4285740000000  0.4674930000000 1.0
C      1  0.4864810000000  0.6192750000000  0.4714960000000 1.0
C      1  0.6088660000000  0.5457240000000  0.5318330000000 1.0
C      1  0.4031890000000  0.5713700000000  0.5323290000000 1.0
C      1  0.4882630000000  0.3822610000000  0.5323350000000 1.0
C      1  0.3895820000000  0.5478840000000  0.5303800000000 1.0
C      1  0.5959670000000  0.5696030000000  0.5319330000000 1.0
C      1  0.5153060000000  0.3839710000000  0.5345020000000 1.0
C      1  0.3924450000000  0.4508770000000  0.4679220000000 1.0
C      1  0.5949490000000  0.4294380000000  0.4678970000000 1.0
C      1  0.5137100000000  0.6188440000000  0.4713060000000 1.0
C      1  0.5705810000000  0.4761530000000  0.4102490000000 1.0
C      1  0.4449110000000  0.4524970000000  0.4251000000000 1.0
C      1  0.4867940000000  0.5738670000000  0.4102010000000 1.0
C      1  0.5685350000000  0.5245380000000  0.5788930000000 1.0
C      1  0.4451220000000  0.5482260000000  0.5750920000000 1.0
C      1  0.4849360000000  0.4290410000000  0.5788790000000 1.0
C      1  0.4305070000000  0.5263050000000  0.5864990000000 1.0
C      1  0.5542430000000  0.5491200000000  0.5759300000000 1.0
C      1  0.5136450000000  0.4287630000000  0.5784290000000 1.0
C      1  0.4314250000000  0.4778750000000  0.4271410000000 1.0
C      1  0.5575390000000  0.4520410000000  0.4099220000000 1.0
C      1  0.5142220000000  0.5733740000000  0.4102520000000 1.0
C      1  0.5124380000000  0.4758630000000  0.5219200000000 1.0
C      1  0.4721770000000  0.5004660000000  0.5269950000000 1.0
C      1  0.5141070000000  0.5239140000000  0.5260440000000 1.0
C      1  0.5118740000000  0.5237410000000  0.4696760000000 1.0
C      1  0.4696510000000  0.5013650000000  0.4754390000000 1.0
C      1  0.5119200000000  0.4767160000000  0.4792220000000 1.0
C      1  0.4845160000000  0.5242390000000  0.4713370000000 1.0
C      1  0.5253410000000  0.5000890000000  0.4720370000000 1.0
C      1  0.4828040000000  0.4773460000000  0.4800830000000 1.0
C      1  0.4849650000000  0.4764620000000  0.5227070000000 1.0
C      1  0.5281610000000  0.5004230000000  0.5203370000000 1.0
C      1  0.4864390000000  0.5238130000000  0.5287500000000 1.0
C      1  0.5395390000000  0.3843800000000  0.4773250000000 1.0
C      1  0.3800510000000  0.5266020000000  0.4732160000000 1.0
C      1  0.5794460000000  0.5898880000000  0.4753620000000 1.0
C      1  0.5381780000000  0.6146120000000  0.5277000000000 1.0
C      1  0.3805420000000  0.4769870000000  0.5243480000000 1.0
C      1  0.5834420000000  0.4065520000000  0.5288640000000 1.0
C      1  0.4618450000000  0.6154020000000  0.5280340000000 1.0
C      1  0.6210660000000  0.4749530000000  0.5253550000000 1.0
C      1  0.4194090000000  0.4105110000000  0.5242940000000 1.0
C      1  0.4618540000000  0.3825620000000  0.4739570000000 1.0
C      1  0.6173950000000  0.5238580000000  0.4740340000000 1.0
C      1  0.4197150000000  0.5923770000000  0.4755100000000 1.0
C      1  0.4414590000000  0.5544080000000  0.4289990000000 1.0
C      1  0.5737550000000  0.5252310000000  0.4292150000000 1.0
C      1  0.4857320000000  0.4190760000000  0.4271480000000 1.0
C      1  0.4400030000000  0.4496460000000  0.5703850000000 1.0
C      1  0.5793420000000  0.4737370000000  0.5741900000000 1.0
C      1  0.4846460000000  0.5783820000000  0.5729460000000 1.0
C      1  0.5636510000000  0.4454690000000  0.5745490000000 1.0
C      1  0.4249840000000  0.4765040000000  0.5701180000000 1.0
C      1  0.5147150000000  0.5783990000000  0.5731250000000 1.0
C      1  0.5584550000000  0.5520050000000  0.4294810000000 1.0
C      1  0.4251410000000  0.5281760000000  0.4278290000000 1.0
C      1  0.5179740000000  0.4219000000000  0.4292990000000 1.0
C      1  0.4255910000000  0.4837770000000  0.4543070000000 1.0
C      1  0.5133380000000  0.5713980000000  0.4615080000000 1.0
C      1  0.5522530000000  0.4529040000000  0.4626980000000 1.0
C      1  0.4304570000000  0.5228870000000  0.5381840000000 1.0
C      1  0.5165130000000  0.4309010000000  0.5480820000000 1.0
C      1  0.5534460000000  0.5491330000000  0.5454190000000 1.0
C      1  0.5691270000000  0.5184100000000  0.5432280000000 1.0
C      1  0.4820120000000  0.4294770000000  0.5428270000000 1.0
C      1  0.4446470000000  0.5480110000000  0.5453950000000 1.0
C      1  0.5664430000000  0.4769070000000  0.4609460000000 1.0
C      1  0.4852520000000  0.5718400000000  0.4616570000000 1.0
C      1  0.4507970000000  0.4454980000000  0.4527220000000 1.0
C      1  0.5919790000000  0.5226000000000  0.4548180000000 1.0
C      1  0.4751150000000  0.4049720000000  0.4565210000000 1.0
C      1  0.4334610000000  0.5716770000000  0.4555400000000 1.0
C      1  0.5970170000000  0.4773230000000  0.5459050000000 1.0
C      1  0.4730720000000  0.5927700000000  0.5473900000000 1.0
C      1  0.4326420000000  0.4317540000000  0.5438800000000 1.0
C      1  0.4060390000000  0.4782640000000  0.5440080000000 1.0
C      1  0.5264630000000  0.5924900000000  0.5472360000000 1.0
C      1  0.5702020000000  0.4290910000000  0.5464260000000 1.0
C      1  0.4055300000000  0.5262020000000  0.4537520000000 1.0
C      1  0.5294820000000  0.4075360000000  0.4575350000000 1.0
C      1  0.5656300000000  0.5691390000000  0.4556020000000 1.0
C      1  0.5858780000000  0.4859080000000  0.4998890000000 1.0
C      1  0.4471370000000  0.4344680000000  0.4977660000000 1.0
C      1  0.4689760000000  0.5815670000000  0.5017770000000 1.0
C      1  0.5843630000000  0.5142410000000  0.5005770000000 1.0
C      1  0.4440570000000  0.5673500000000  0.5022240000000 1.0
C      1  0.4708560000000  0.4187250000000  0.5008240000000 1.0
C      1  0.4130260000000  0.5147510000000  0.4988300000000 1.0
C      1  0.5546880000000  0.5657790000000  0.5018410000000 1.0
C      1  0.5317100000000  0.4202070000000  0.5045030000000 1.0
C      1  0.4137440000000  0.4859410000000  0.4978790000000 1.0
C      1  0.5571700000000  0.4325610000000  0.5017840000000 1.0
C      1  0.5302160000000  0.5808040000000  0.5015490000000 1.0
C      1  0.3927050000000  0.4232930000000  0.5192440000000 1.0
C      1  0.4863480000000  0.6320310000000  0.5234290000000 1.0
C      1  0.6226470000000  0.4449570000000  0.5210400000000 1.0
C      1  0.3927350000000  0.5797590000000  0.4796390000000 1.0
C      1  0.4864260000000  0.3661190000000  0.4803810000000 1.0
C      1  0.6199320000000  0.5532540000000  0.4789740000000 1.0
C      1  0.6062110000000  0.5772590000000  0.4795450000000 1.0
C      1  0.5143640000000  0.3677480000000  0.4811290000000 1.0
C      1  0.3781770000000  0.5561180000000  0.4790020000000 1.0
C      1  0.6098220000000  0.4200930000000  0.5221900000000 1.0
C      1  0.5140620000000  0.6317930000000  0.5232070000000 1.0
C      1  0.3786590000000  0.4472450000000  0.5194620000000 1.0
C      1  0.4704860000000  0.5003540000000  0.5890760000000 1.0
C      1  0.5147140000000  0.5269600000000  0.5921520000000 1.0
C      1  0.5157480000000  0.4743460000000  0.5944840000000 1.0
C      1  0.4695600000000  0.5011060000000  0.4084440000000 1.0
C      1  0.5143000000000  0.4738780000000  0.4079370000000 1.0
C      1  0.5147460000000  0.5254840000000  0.4134730000000 1.0
C      1  0.5291840000000  0.5004490000000  0.4118920000000 1.0
C      1  0.4843770000000  0.4737360000000  0.4046840000000 1.0
C      1  0.4845890000000  0.5258550000000  0.4124340000000 1.0
C      1  0.5305910000000  0.5001230000000  0.5943560000000 1.0
C      1  0.4855860000000  0.5267300000000  0.5902270000000 1.0
C      1  0.4846220000000  0.4750030000000  0.5910780000000 1.0
C      1  0.4693410000000  0.5517150000000  0.4161870000000 1.0
C      1  0.5589540000000  0.5018650000000  0.4158760000000 1.0
C      1  0.4697270000000  0.4467680000000  0.4108340000000 1.0
C      1  0.4681900000000  0.4508460000000  0.5843260000000 1.0
C      1  0.5602300000000  0.4994690000000  0.5878300000000 1.0
C      1  0.4721410000000  0.5529560000000  0.5839430000000 1.0
C      1  0.5317290000000  0.4485930000000  0.5886650000000 1.0
C      1  0.4406960000000  0.4993820000000  0.5837680000000 1.0
C      1  0.5275050000000  0.5533660000000  0.5851300000000 1.0
C      1  0.5307690000000  0.5507020000000  0.4165370000000 1.0
C      1  0.4405590000000  0.5031140000000  0.4158610000000 1.0
C      1  0.5292470000000  0.4476090000000  0.4141530000000 1.0
C      1  0.5650970000000  0.4474320000000  0.5240020000000 1.0
C      1  0.4285070000000  0.4766110000000  0.5220320000000 1.0
C      1  0.5141650000000  0.5735600000000  0.5255230000000 1.0
C      1  0.5548220000000  0.5490180000000  0.4771040000000 1.0
C      1  0.4276650000000  0.5264200000000  0.4759410000000 1.0
C      1  0.5160140000000  0.4258760000000  0.4795470000000 1.0
C      1  0.4430240000000  0.5510570000000  0.4770870000000 1.0
C      1  0.5693850000000  0.5236130000000  0.4767180000000 1.0
C      1  0.4878990000000  0.4189590000000  0.4787630000000 1.0
C      1  0.4431830000000  0.4514410000000  0.5219900000000 1.0
C      1  0.5736980000000  0.4752360000000  0.5245650000000 1.0
C      1  0.4849100000000  0.5736890000000  0.5255630000000 1.0
C      1  0.5525260000000  0.5005270000000  0.4673450000000 1.0
C      1  0.4747390000000  0.4579790000000  0.4609470000000 1.0
C      1  0.4713340000000  0.5479940000000  0.4676660000000 1.0
C      1  0.5533040000000  0.4950030000000  0.5361500000000 1.0
C      1  0.4729800000000  0.5474600000000  0.5342980000000 1.0
C      1  0.4714850000000  0.4540450000000  0.5315960000000 1.0
C      1  0.4450540000000  0.4999860000000  0.5309980000000 1.0
C      1  0.5263630000000  0.5472480000000  0.5340490000000 1.0
C      1  0.5232090000000  0.4585450000000  0.5416650000000 1.0
C      1  0.4433670000000  0.5025920000000  0.4667370000000 1.0
C      1  0.5256300000000  0.4531830000000  0.4728480000000 1.0
C      1  0.5263940000000  0.5469760000000  0.4672630000000 1.0
C      1  0.4752440000000  0.5940520000000  0.4770750000000 1.0
C      1  0.5918840000000  0.4749830000000  0.4744470000000 1.0
C      1  0.4351760000000  0.4331320000000  0.4723160000000 1.0
C      1  0.4757780000000  0.4066260000000  0.5260380000000 1.0
C      1  0.5915880000000  0.5243800000000  0.5256980000000 1.0
C      1  0.4308970000000  0.5681290000000  0.5275390000000 1.0
C      1  0.5255700000000  0.4099280000000  0.5298780000000 1.0
C      1  0.4062130000000  0.5262510000000  0.5235420000000 1.0
C      1  0.5684500000000  0.5665810000000  0.5266800000000 1.0
C      1  0.5242130000000  0.5932770000000  0.4767800000000 1.0
C      1  0.4066230000000  0.4745240000000  0.4729170000000 1.0
C      1  0.5679900000000  0.4322280000000  0.4755340000000 1.0
C      1  0.3718360000000  0.5012650000000  0.4984190000000 1.0
C      1  0.6270600000000  0.4996410000000  0.4993920000000 1.0
C      1  0.5645850000000  0.3891370000000  0.5031140000000 1.0
C      1  0.4367040000000  0.6106750000000  0.5020270000000 1.0
C      1  0.5631530000000  0.6090990000000  0.5016940000000 1.0
C      1  0.4368360000000  0.3905740000000  0.4992780000000 1.0
C      1  0.5403270000000  0.4764380000000  0.5553890000000 1.0
C      1  0.4957230000000  0.4579810000000  0.4434570000000 1.0
END
