TITL C-3623285-6872-304 -2.28013221010732e-07 125000 -76.8366026628464 0 0 13 (D3h) n - 1
REM
REM in /home/nfs/bkarasulu/CARBON/AIRSS/Generating-Clusters/LCBOP/Higher-Symm/SD-CG/FIRE-CG
REM
REM
REM
REM
REM
REM ./C.cell (b20cbc046b6831c77cfcea5457e17084)
REM AIRSS Version 0.9.1 bugfix July 2018 build 013d7b7c2542+ Fri, 06 Jul 2018 19:26:36 +0100
REM compiler GCC version 9.2.1 20190827 (Red Hat 9.2.1-1)
REM options -cpp -mtune=generic -march=x86-64 -g -O0 -fpre-include=/usr/include/finclude/math-vector-fortran.h
REM seed 105345502 -57030793 1038109618 -1281604611 -983353800 1331411727 -1445618857 1005981570 397386632 -1075063312 -767277281 -197569514 -53241104 1170586544 719011810 295678530 1427586309 -306615612 -2033045562 1328426103 -931602868 978227057 -664487695 -885263850 2018491629 1370810961 -499286731 1275685510 2081332217 1459636340 -804187050 986667836 1934683379
REM
CELL 1.54180   50.00000   50.00000   50.00000   90.00000   90.00000   90.00000
LATT -1
SFAC C  
C      1  0.5003660000000  0.5232800000000  0.4567760000000 1.0
C      1  0.5003670000000  0.4547970000000  0.5064820000000 1.0
C      1  0.5003670000000  0.5320850000000  0.5409370000000 1.0
C      1  0.5003670000000  0.4817340000000  0.5451930000000 1.0
C      1  0.5003670000000  0.5521420000000  0.4982540000000 1.0
C      1  0.5003660000000  0.4762870000000  0.4607490000000 1.0
C      1  0.5003670000000  0.5542630000000  0.5253050000000 1.0
C      1  0.5003660000000  0.4986530000000  0.4453860000000 1.0
C      1  0.5003670000000  0.4572470000000  0.5335050000000 1.0
C      1  0.5003660000000  0.4769530000000  0.4889770000000 1.0
C      1  0.5003670000000  0.5058480000000  0.5305020000000 1.0
C      1  0.5003670000000  0.5273620000000  0.4847160000000 1.0
C      1  0.5003670000000  0.5033880000000  0.5013990000000 1.0
END
