TITL C-3623288-6813-1875 -5502.10100525387 125000 -346.13382335807 0 0 65 (C3) n - 1
REM
REM in /home/nfs/bkarasulu/CARBON/AIRSS/Generating-Clusters/LCBOP/Higher-Symm/SD-CG/FIRE-CG
REM
REM
REM
REM
REM
REM ./C.cell (b20cbc046b6831c77cfcea5457e17084)
REM AIRSS Version 0.9.1 bugfix July 2018 build 013d7b7c2542+ Fri, 06 Jul 2018 19:26:36 +0100
REM compiler GCC version 9.2.1 20190827 (Red Hat 9.2.1-1)
REM options -cpp -mtune=generic -march=x86-64 -g -O0 -fpre-include=/usr/include/finclude/math-vector-fortran.h
REM seed -1486344374 -1946679452 2074804054 -1835522985 356408730 496289970 -1869016050 865751646 -1465536450 -1074816907 -2108631582 -610467606 1138202130 -910066587 -1831474102 -2044427443 107636219 -546744235 432297766 -833201649 1656386879 -1630535987 -200174228 749461228 -425376813 1780270061 1825833988 -1061032670 1170024157 1401693394 1924878557 1571250047 424148190
REM
CELL 1.54180   50.00000   50.00000   50.00000   90.00000   90.00000   90.00000
LATT -1
SFAC C  
C      1  0.5338750000000  0.4763950000000  0.4792940000000 1.0
C      1  0.4620470000000  0.4837440000000  0.4793070000000 1.0
C      1  0.5043720000000  0.5413940000000  0.4791780000000 1.0
C      1  0.5497950000000  0.5546970000000  0.4708800000000 1.0
C      1  0.5220760000000  0.4305850000000  0.4707640000000 1.0
C      1  0.4281640000000  0.5166850000000  0.4708240000000 1.0
C      1  0.5502650000000  0.5296440000000  0.4452330000000 1.0
C      1  0.5000860000000  0.4428920000000  0.4452790000000 1.0
C      1  0.4497700000000  0.5295440000000  0.4452890000000 1.0
C      1  0.4720980000000  0.4845390000000  0.4339850000000 1.0
C      1  0.4999520000000  0.5326980000000  0.4339770000000 1.0
C      1  0.5280950000000  0.4847170000000  0.4340460000000 1.0
C      1  0.4779200000000  0.5518670000000  0.4385300000000 1.0
C      1  0.5557500000000  0.4940510000000  0.4382060000000 1.0
C      1  0.4665540000000  0.4558950000000  0.4383970000000 1.0
C      1  0.4610460000000  0.4554080000000  0.5480530000000 1.0
C      1  0.4802800000000  0.5571860000000  0.5481200000000 1.0
C      1  0.5587370000000  0.4895800000000  0.5481490000000 1.0
C      1  0.4890140000000  0.4184680000000  0.5449660000000 1.0
C      1  0.4343040000000  0.5514180000000  0.5450250000000 1.0
C      1  0.5768190000000  0.5322710000000  0.5450900000000 1.0
C      1  0.4916030000000  0.4182140000000  0.5149510000000 1.0
C      1  0.4327940000000  0.5493040000000  0.5150060000000 1.0
C      1  0.5757500000000  0.5346490000000  0.5150750000000 1.0
C      1  0.5197030000000  0.4167160000000  0.5037700000000 1.0
C      1  0.4174410000000  0.5256890000000  0.5038460000000 1.0
C      1  0.5630080000000  0.5597270000000  0.5038750000000 1.0
C      1  0.5160880000000  0.5647830000000  0.4690400000000 1.0
C      1  0.5479570000000  0.4544840000000  0.4688370000000 1.0
C      1  0.4360200000000  0.4823280000000  0.4689490000000 1.0
C      1  0.5532040000000  0.5152840000000  0.5088060000000 1.0
C      1  0.4860770000000  0.4474290000000  0.5086670000000 1.0
C      1  0.4608680000000  0.5394880000000  0.5087350000000 1.0
C      1  0.5003020000000  0.5203770000000  0.4610160000000 1.0
C      1  0.5177950000000  0.4905360000000  0.4611980000000 1.0
C      1  0.4821120000000  0.4909730000000  0.4611280000000 1.0
C      1  0.5210910000000  0.4835420000000  0.5192100000000 1.0
C      1  0.4746380000000  0.4910980000000  0.5192430000000 1.0
C      1  0.5044150000000  0.5275660000000  0.5193600000000 1.0
C      1  0.4304540000000  0.5053250000000  0.5218340000000 1.0
C      1  0.5388620000000  0.5587110000000  0.5218920000000 1.0
C      1  0.5308610000000  0.4381680000000  0.5217340000000 1.0
C      1  0.4383570000000  0.5005460000000  0.5509320000000 1.0
C      1  0.5307810000000  0.5542850000000  0.5510060000000 1.0
C      1  0.5310360000000  0.4473950000000  0.5508420000000 1.0
C      1  0.4557200000000  0.5072700000000  0.4269670000000 1.0
C      1  0.5278650000000  0.5355780000000  0.4270700000000 1.0
C      1  0.5163750000000  0.4592920000000  0.4270630000000 1.0
C      1  0.4672800000000  0.4641260000000  0.5218410000000 1.0
C      1  0.4847310000000  0.5474310000000  0.5219070000000 1.0
C      1  0.5481220000000  0.4906370000000  0.5219140000000 1.0
C      1  0.5569660000000  0.5154520000000  0.5604990000000 1.0
C      1  0.4843540000000  0.4440490000000  0.5604080000000 1.0
C      1  0.4587920000000  0.5426620000000  0.5604640000000 1.0
C      1  0.4653010000000  0.5128030000000  0.5633180000000 1.0
C      1  0.5278690000000  0.5247930000000  0.5633640000000 1.0
C      1  0.5069630000000  0.4646050000000  0.5632650000000 1.0
C      1  0.4938050000000  0.5742380000000  0.4514550000000 1.0
C      1  0.5671840000000  0.4690270000000  0.4510380000000 1.0
C      1  0.4391210000000  0.4584010000000  0.4511990000000 1.0
C      1  0.5132500000000  0.4589230000000  0.5116310000000 1.0
C      1  0.4572310000000  0.5102190000000  0.5117400000000 1.0
C      1  0.5296780000000  0.5330750000000  0.5118480000000 1.0
C      1  0.5000440000000  0.5007290000000  0.5661120000000 1.0
C      1  0.5000440000000  0.5007290000000  0.5219380000000 1.0
END
