TITL C-3623286-7563-69 434137.807101319 125000 -1146.7541915035 0 0 195 (C1) n - 1
REM
REM in /home/nfs/bkarasulu/CARBON/AIRSS/Generating-Clusters/LCBOP/Higher-Symm/SD-CG/FIRE-CG
REM
REM
REM
REM
REM
REM ./C.cell (b20cbc046b6831c77cfcea5457e17084)
REM AIRSS Version 0.9.1 bugfix July 2018 build 013d7b7c2542+ Fri, 06 Jul 2018 19:26:36 +0100
REM compiler GCC version 9.2.1 20190827 (Red Hat 9.2.1-1)
REM options -cpp -mtune=generic -march=x86-64 -g -O0 -fpre-include=/usr/include/finclude/math-vector-fortran.h
REM seed -52891857 574307236 -1540576690 -1848281418 -1612999089 -1110441377 -635253054 1863854666 1861706094 -454030346 1967728185 -944312004 26905459 -1480758868 1499055700 2095152497 -626290402 -1086360524 -947737898 736116932 -1051466416 -395076937 1719873967 -1051775377 1151668610 -662195668 1285437108 1032105661 336355099 -499351922 1199552579 -1431837957 -1818657391
REM
CELL 1.54180   50.00000   50.00000   50.00000   90.00000   90.00000   90.00000
LATT -1
SFAC C  
C      1  0.4997830000000  0.4805200000000  0.5757750000000 1.0
C      1  0.5002690000000  0.4844500000000  0.4213210000000 1.0
C      1  0.5049140000000  0.5119840000000  0.4188050000000 1.0
C      1  0.4952920000000  0.5082140000000  0.5788100000000 1.0
C      1  0.5807510000000  0.4893400000000  0.5003580000000 1.0
C      1  0.4131170000000  0.4906570000000  0.4957030000000 1.0
C      1  0.4185690000000  0.5179850000000  0.4996160000000 1.0
C      1  0.5793190000000  0.5174230000000  0.4985040000000 1.0
C      1  0.4483220000000  0.4712610000000  0.5639310000000 1.0
C      1  0.5506180000000  0.4728830000000  0.4360930000000 1.0
C      1  0.4488980000000  0.5339330000000  0.4300020000000 1.0
C      1  0.5470200000000  0.5278910000000  0.5666540000000 1.0
C      1  0.5748930000000  0.4613470000000  0.4433320000000 1.0
C      1  0.4232490000000  0.4614990000000  0.5565170000000 1.0
C      1  0.4324620000000  0.5281300000000  0.4506000000000 1.0
C      1  0.5623960000000  0.5252000000000  0.5448320000000 1.0
C      1  0.6044220000000  0.4978540000000  0.4406230000000 1.0
C      1  0.3950960000000  0.4989910000000  0.5589760000000 1.0
C      1  0.6014200000000  0.5051180000000  0.5621870000000 1.0
C      1  0.3962740000000  0.5042790000000  0.4386170000000 1.0
C      1  0.4374510000000  0.4949230000000  0.6024650000000 1.0
C      1  0.5628200000000  0.4954570000000  0.3968010000000 1.0
C      1  0.5578800000000  0.5015170000000  0.6034130000000 1.0
C      1  0.4433880000000  0.5014800000000  0.3981000000000 1.0
C      1  0.5169940000000  0.4594030000000  0.5286390000000 1.0
C      1  0.4969230000000  0.4753630000000  0.4717430000000 1.0
C      1  0.5126460000000  0.5360380000000  0.4610140000000 1.0
C      1  0.4867880000000  0.5307610000000  0.5355080000000 1.0
C      1  0.5388640000000  0.4624250000000  0.5099430000000 1.0
C      1  0.4527820000000  0.4724530000000  0.5013720000000 1.0
C      1  0.4686920000000  0.5340910000000  0.5126980000000 1.0
C      1  0.5305350000000  0.5413030000000  0.4829710000000 1.0
C      1  0.5907140000000  0.5247930000000  0.5433660000000 1.0
C      1  0.4045530000000  0.5271490000000  0.4552090000000 1.0
C      1  0.5957600000000  0.4750580000000  0.4563010000000 1.0
C      1  0.4032240000000  0.4762020000000  0.5431960000000 1.0
C      1  0.5396050000000  0.5206330000000  0.5921440000000 1.0
C      1  0.4592350000000  0.5240930000000  0.4065090000000 1.0
C      1  0.4549100000000  0.4736910000000  0.5917830000000 1.0
C      1  0.5451290000000  0.4750360000000  0.4080140000000 1.0
C      1  0.5122870000000  0.5074750000000  0.3720180000000 1.0
C      1  0.4871780000000  0.5067940000000  0.6274940000000 1.0
C      1  0.5078130000000  0.4867710000000  0.6268580000000 1.0
C      1  0.4917330000000  0.4870960000000  0.3735560000000 1.0
C      1  0.3707290000000  0.5127620000000  0.5090020000000 1.0
C      1  0.6285850000000  0.5121320000000  0.4908560000000 1.0
C      1  0.6283580000000  0.4921040000000  0.5115740000000 1.0
C      1  0.3701440000000  0.4915440000000  0.4887020000000 1.0
C      1  0.5949210000000  0.5344550000000  0.5160980000000 1.0
C      1  0.4032520000000  0.5362110000000  0.4829610000000 1.0
C      1  0.5954060000000  0.4705120000000  0.4847740000000 1.0
C      1  0.4023690000000  0.4713160000000  0.5148220000000 1.0
C      1  0.5115420000000  0.5263600000000  0.5935750000000 1.0
C      1  0.4874110000000  0.5299150000000  0.4045350000000 1.0
C      1  0.4826860000000  0.4638060000000  0.5923270000000 1.0
C      1  0.5173630000000  0.4659960000000  0.4069270000000 1.0
C      1  0.4301960000000  0.3640430000000  0.5385510000000 1.0
C      1  0.5708970000000  0.3663840000000  0.4635090000000 1.0
C      1  0.4423210000000  0.6547370000000  0.4809850000000 1.0
C      1  0.5584730000000  0.6552820000000  0.5190000000000 1.0
C      1  0.5185280000000  0.3440730000000  0.4440920000000 1.0
C      1  0.4834060000000  0.3438780000000  0.5581290000000 1.0
C      1  0.4643120000000  0.6345130000000  0.4291160000000 1.0
C      1  0.5381910000000  0.6331340000000  0.5710380000000 1.0
C      1  0.5162390000000  0.4335910000000  0.4599950000000 1.0
C      1  0.4772420000000  0.4318570000000  0.5443370000000 1.0
C      1  0.5290670000000  0.5627740000000  0.5460630000000 1.0
C      1  0.4702880000000  0.5664570000000  0.4535770000000 1.0
C      1  0.4528020000000  0.4336770000000  0.5314570000000 1.0
C      1  0.5420310000000  0.4330810000000  0.4671710000000 1.0
C      1  0.5445020000000  0.5671580000000  0.5235420000000 1.0
C      1  0.4598780000000  0.5676880000000  0.4781800000000 1.0
C      1  0.5668080000000  0.3469530000000  0.4454370000000 1.0
C      1  0.4350410000000  0.3451060000000  0.5569560000000 1.0
C      1  0.5656990000000  0.6622400000000  0.5439180000000 1.0
C      1  0.4356280000000  0.6624590000000  0.4561400000000 1.0
C      1  0.4588520000000  0.3358830000000  0.5655170000000 1.0
C      1  0.5433670000000  0.3367750000000  0.4369340000000 1.0
C      1  0.5568120000000  0.6521010000000  0.5672350000000 1.0
C      1  0.4453660000000  0.6531820000000  0.4327990000000 1.0
C      1  0.5031790000000  0.5537000000000  0.5378790000000 1.0
C      1  0.4931460000000  0.5530190000000  0.4506580000000 1.0
C      1  0.4982110000000  0.4476780000000  0.4761360000000 1.0
C      1  0.4977700000000  0.4398960000000  0.5257210000000 1.0
C      1  0.5273410000000  0.5620000000000  0.5008080000000 1.0
C      1  0.4750420000000  0.5575310000000  0.4990710000000 1.0
C      1  0.4582220000000  0.4457000000000  0.5056700000000 1.0
C      1  0.5484300000000  0.4455800000000  0.4898770000000 1.0
C      1  0.5971060000000  0.5232400000000  0.4270080000000 1.0
C      1  0.4037360000000  0.5239120000000  0.5723440000000 1.0
C      1  0.5951170000000  0.4783000000000  0.5744550000000 1.0
C      1  0.4076800000000  0.4784830000000  0.4290750000000 1.0
C      1  0.4254590000000  0.5216420000000  0.5953000000000 1.0
C      1  0.5753670000000  0.5219340000000  0.4036620000000 1.0
C      1  0.5715490000000  0.4763660000000  0.5956870000000 1.0
C      1  0.4309710000000  0.4771630000000  0.4089240000000 1.0
C      1  0.5524790000000  0.4523240000000  0.5993410000000 1.0
C      1  0.4488950000000  0.4530390000000  0.4048840000000 1.0
C      1  0.5561150000000  0.5454000000000  0.3973120000000 1.0
C      1  0.4450310000000  0.5442640000000  0.6007640000000 1.0
C      1  0.6014740000000  0.4551060000000  0.5550180000000 1.0
C      1  0.4009780000000  0.4551860000000  0.4472100000000 1.0
C      1  0.3997790000000  0.5481370000000  0.5533870000000 1.0
C      1  0.6022930000000  0.5474800000000  0.4457710000000 1.0
C      1  0.5889420000000  0.4257340000000  0.5082630000000 1.0
C      1  0.4112550000000  0.4250780000000  0.4930240000000 1.0
C      1  0.5880800000000  0.5780140000000  0.4918190000000 1.0
C      1  0.4125960000000  0.5786590000000  0.5074880000000 1.0
C      1  0.5074310000000  0.4207630000000  0.5869780000000 1.0
C      1  0.4934300000000  0.4214870000000  0.4150060000000 1.0
C      1  0.4921560000000  0.5726580000000  0.5875370000000 1.0
C      1  0.5095750000000  0.5752100000000  0.4100000000000 1.0
C      1  0.5046070000000  0.3884110000000  0.4709690000000 1.0
C      1  0.4958490000000  0.3881940000000  0.5305480000000 1.0
C      1  0.5083780000000  0.6072060000000  0.5341440000000 1.0
C      1  0.4930160000000  0.6066840000000  0.4658470000000 1.0
C      1  0.4658820000000  0.3918390000000  0.5088940000000 1.0
C      1  0.5341500000000  0.3936660000000  0.4924410000000 1.0
C      1  0.5309560000000  0.6117120000000  0.5044830000000 1.0
C      1  0.4702110000000  0.6110800000000  0.4951800000000 1.0
C      1  0.4304680000000  0.4158830000000  0.4731650000000 1.0
C      1  0.5689560000000  0.4182730000000  0.5279170000000 1.0
C      1  0.4326360000000  0.5836980000000  0.5277710000000 1.0
C      1  0.5686620000000  0.5843420000000  0.4712550000000 1.0
C      1  0.4723580000000  0.4147380000000  0.4338100000000 1.0
C      1  0.5280380000000  0.4158750000000  0.5673480000000 1.0
C      1  0.5290480000000  0.5823850000000  0.4302870000000 1.0
C      1  0.4722420000000  0.5814900000000  0.5685170000000 1.0
C      1  0.4578040000000  0.6363120000000  0.4925400000000 1.0
C      1  0.5430580000000  0.6369700000000  0.5071760000000 1.0
C      1  0.4439010000000  0.3800840000000  0.5222360000000 1.0
C      1  0.5565640000000  0.3822750000000  0.4794270000000 1.0
C      1  0.4801620000000  0.6188550000000  0.4437700000000 1.0
C      1  0.5218740000000  0.6178750000000  0.5564730000000 1.0
C      1  0.5068810000000  0.3627960000000  0.4591430000000 1.0
C      1  0.4943970000000  0.3627180000000  0.5427370000000 1.0
C      1  0.4577390000000  0.4029690000000  0.4815020000000 1.0
C      1  0.5418170000000  0.4053000000000  0.5194950000000 1.0
C      1  0.4601050000000  0.5965910000000  0.5205970000000 1.0
C      1  0.5412020000000  0.5971160000000  0.4786980000000 1.0
C      1  0.4792300000000  0.4025410000000  0.4612850000000 1.0
C      1  0.5208600000000  0.4034220000000  0.5400670000000 1.0
C      1  0.5203470000000  0.5952340000000  0.4577070000000 1.0
C      1  0.4805290000000  0.5957710000000  0.5420690000000 1.0
C      1  0.4237950000000  0.4279250000000  0.4460210000000 1.0
C      1  0.5758860000000  0.4308030000000  0.5547360000000 1.0
C      1  0.4243550000000  0.5698530000000  0.5540210000000 1.0
C      1  0.5768110000000  0.5709580000000  0.4447130000000 1.0
C      1  0.4458740000000  0.4282510000000  0.4254690000000 1.0
C      1  0.5539830000000  0.4301580000000  0.5755670000000 1.0
C      1  0.5558860000000  0.5698170000000  0.4232680000000 1.0
C      1  0.4454210000000  0.5690010000000  0.5754980000000 1.0
C      1  0.5349210000000  0.4905260000000  0.4521300000000 1.0
C      1  0.4642140000000  0.4878290000000  0.5468160000000 1.0
C      1  0.5233430000000  0.5054340000000  0.5425080000000 1.0
C      1  0.4707200000000  0.5077200000000  0.4521150000000 1.0
C      1  0.4549500000000  0.4915780000000  0.5208450000000 1.0
C      1  0.5425820000000  0.4968080000000  0.4784560000000 1.0
C      1  0.5458160000000  0.5090910000000  0.5272680000000 1.0
C      1  0.4471650000000  0.5084190000000  0.4658480000000 1.0
C      1  0.5178100000000  0.4773140000000  0.5528250000000 1.0
C      1  0.4845790000000  0.4822780000000  0.4457520000000 1.0
C      1  0.5237090000000  0.5168370000000  0.4407200000000 1.0
C      1  0.4765200000000  0.5137200000000  0.5573440000000 1.0
C      1  0.5584420000000  0.4831090000000  0.5184390000000 1.0
C      1  0.4367220000000  0.4829510000000  0.4792790000000 1.0
C      1  0.4434280000000  0.5194520000000  0.5153350000000 1.0
C      1  0.5549320000000  0.5241730000000  0.4834620000000 1.0
C      1  0.5048840000000  0.5513150000000  0.3952960000000 1.0
C      1  0.4955510000000  0.5486750000000  0.6022200000000 1.0
C      1  0.5013080000000  0.4439540000000  0.6021600000000 1.0
C      1  0.4991690000000  0.4446160000000  0.3995090000000 1.0
C      1  0.3955690000000  0.5564910000000  0.5021380000000 1.0
C      1  0.6039370000000  0.5551170000000  0.4976830000000 1.0
C      1  0.6037090000000  0.4495830000000  0.5033260000000 1.0
C      1  0.3957380000000  0.4485940000000  0.4974260000000 1.0
C      1  0.5243700000000  0.4593790000000  0.6134880000000 1.0
C      1  0.4755830000000  0.4595210000000  0.3887420000000 1.0
C      1  0.5283380000000  0.5366380000000  0.3839040000000 1.0
C      1  0.4719040000000  0.5356070000000  0.6143850000000 1.0
C      1  0.6152110000000  0.4638400000000  0.5270800000000 1.0
C      1  0.3847580000000  0.4626370000000  0.4733410000000 1.0
C      1  0.3846820000000  0.5410320000000  0.5255000000000 1.0
C      1  0.6158870000000  0.5400320000000  0.4744560000000 1.0
C      1  0.4636210000000  0.4629020000000  0.4436990000000 1.0
C      1  0.5445550000000  0.4710020000000  0.5619470000000 1.0
C      1  0.4520100000000  0.5277300000000  0.5621000000000 1.0
C      1  0.5490110000000  0.5296660000000  0.4365470000000 1.0
C      1  0.4421880000000  0.4638870000000  0.4587860000000 1.0
C      1  0.5643590000000  0.4728910000000  0.5445960000000 1.0
C      1  0.5652180000000  0.5301470000000  0.4571960000000 1.0
C      1  0.4352940000000  0.5279340000000  0.5417460000000 1.0
C      1  0.4858150000000  0.4392190000000  0.4994040000000 1.0
C      1  0.5003290000000  0.5649930000000  0.5099810000000 1.0
C      1  0.4988300000000  0.4938090000000  0.4917690000000 1.0
END
