TITL C-3623284-6838-966 -8.20883220823675e-07 125000 -752.775957410771 0 0 117 (C1) n - 1
REM
REM in /home/nfs/bkarasulu/CARBON/AIRSS/Generating-Clusters/LCBOP/Higher-Symm/SD-CG/FIRE-CG
REM
REM
REM
REM
REM
REM ./C.cell (b20cbc046b6831c77cfcea5457e17084)
REM AIRSS Version 0.9.1 bugfix July 2018 build 013d7b7c2542+ Fri, 06 Jul 2018 19:26:36 +0100
REM compiler GCC version 9.2.1 20190827 (Red Hat 9.2.1-1)
REM options -cpp -mtune=generic -march=x86-64 -g -O0 -fpre-include=/usr/include/finclude/math-vector-fortran.h
REM seed -1585917169 480570474 681462703 -1071757603 1423515564 1648030557 1161739228 -1417075134 -888208446 -144345689 -271811930 -1258974047 131650238 -290049525 -1990589232 -1743375245 -1286390700 901254899 1944279908 -1255702041 -1852767692 10562373 -757408665 1914913186 590165113 -1594750518 -1633744464 405698468 904640063 -2097838196 -1591269400 17623550 2109163037
REM
CELL 1.54180   50.00000   50.00000   50.00000   90.00000   90.00000   90.00000
LATT -1
SFAC C  
C      1  0.5161170000000  0.4777690000000  0.5903900000000 1.0
C      1  0.4727230000000  0.5020860000000  0.5947220000000 1.0
C      1  0.5148770000000  0.5288800000000  0.5899320000000 1.0
C      1  0.4876280000000  0.4765130000000  0.5920660000000 1.0
C      1  0.5295230000000  0.5043180000000  0.5903910000000 1.0
C      1  0.4855520000000  0.5276340000000  0.5924660000000 1.0
C      1  0.4644810000000  0.4426100000000  0.4364480000000 1.0
C      1  0.4697970000000  0.5636940000000  0.4431850000000 1.0
C      1  0.5704090000000  0.4976680000000  0.4428700000000 1.0
C      1  0.5354500000000  0.4390030000000  0.4344640000000 1.0
C      1  0.5398530000000  0.5594570000000  0.4415040000000 1.0
C      1  0.4345420000000  0.5023390000000  0.4426440000000 1.0
C      1  0.5302040000000  0.4536870000000  0.4110020000000 1.0
C      1  0.4476320000000  0.5012630000000  0.4175510000000 1.0
C      1  0.5324240000000  0.5475740000000  0.4172940000000 1.0
C      1  0.4709940000000  0.4559650000000  0.4124640000000 1.0
C      1  0.5560310000000  0.5001390000000  0.4187700000000 1.0
C      1  0.4756720000000  0.5497310000000  0.4193930000000 1.0
C      1  0.5913640000000  0.4649440000000  0.4760120000000 1.0
C      1  0.4346180000000  0.4328780000000  0.4765020000000 1.0
C      1  0.4859010000000  0.5979580000000  0.4760650000000 1.0
C      1  0.4114540000000  0.4742300000000  0.4805540000000 1.0
C      1  0.5641630000000  0.4277910000000  0.4751660000000 1.0
C      1  0.5302860000000  0.5978340000000  0.4722340000000 1.0
C      1  0.5730970000000  0.4489250000000  0.5205180000000 1.0
C      1  0.4131220000000  0.4674940000000  0.5407910000000 1.0
C      1  0.5099760000000  0.5902080000000  0.5180680000000 1.0
C      1  0.4258800000000  0.4486590000000  0.5239240000000 1.0
C      1  0.5847800000000  0.4716600000000  0.5325510000000 1.0
C      1  0.4842930000000  0.5891140000000  0.5302080000000 1.0
C      1  0.5874480000000  0.5798800000000  0.4895820000000 1.0
C      1  0.5342890000000  0.3866840000000  0.4815990000000 1.0
C      1  0.3807090000000  0.5139260000000  0.4878910000000 1.0
C      1  0.4097450000000  0.5768190000000  0.4844310000000 1.0
C      1  0.4613470000000  0.3891350000000  0.4808790000000 1.0
C      1  0.6163810000000  0.5268130000000  0.4882150000000 1.0
C      1  0.4725740000000  0.5515740000000  0.5804410000000 1.0
C      1  0.5559080000000  0.5027570000000  0.5778270000000 1.0
C      1  0.4705540000000  0.4543760000000  0.5810380000000 1.0
C      1  0.5239990000000  0.5538310000000  0.5760890000000 1.0
C      1  0.4451420000000  0.4988940000000  0.5855220000000 1.0
C      1  0.5330380000000  0.4566900000000  0.5779210000000 1.0
C      1  0.5645960000000  0.5647620000000  0.4837740000000 1.0
C      1  0.5459310000000  0.4109300000000  0.4892500000000 1.0
C      1  0.4016990000000  0.4968860000000  0.4948550000000 1.0
C      1  0.4368630000000  0.5695090000000  0.4829280000000 1.0
C      1  0.4515730000000  0.4138520000000  0.4895790000000 1.0
C      1  0.5904210000000  0.5173290000000  0.4837410000000 1.0
C      1  0.5157080000000  0.4769260000000  0.4045460000000 1.0
C      1  0.4737860000000  0.5028320000000  0.4071350000000 1.0
C      1  0.5169650000000  0.5261380000000  0.4079780000000 1.0
C      1  0.4871340000000  0.4777810000000  0.4047670000000 1.0
C      1  0.5302960000000  0.5011560000000  0.4073760000000 1.0
C      1  0.4884910000000  0.5270960000000  0.4087830000000 1.0
C      1  0.4845000000000  0.4764530000000  0.5415340000000 1.0
C      1  0.4829300000000  0.5258300000000  0.5417390000000 1.0
C      1  0.5265090000000  0.5029420000000  0.5395340000000 1.0
C      1  0.5133320000000  0.4771840000000  0.5395150000000 1.0
C      1  0.5112280000000  0.5268460000000  0.5392080000000 1.0
C      1  0.4697770000000  0.5010520000000  0.5441160000000 1.0
C      1  0.4840410000000  0.3752860000000  0.4776120000000 1.0
C      1  0.3860480000000  0.5643160000000  0.4844990000000 1.0
C      1  0.6266050000000  0.5513130000000  0.4925660000000 1.0
C      1  0.5107690000000  0.3743980000000  0.4780100000000 1.0
C      1  0.6135930000000  0.5748910000000  0.4932790000000 1.0
C      1  0.3750980000000  0.5399160000000  0.4849600000000 1.0
C      1  0.4855880000000  0.4444530000000  0.4992890000000 1.0
C      1  0.4597050000000  0.5347870000000  0.4996670000000 1.0
C      1  0.5458450000000  0.5093580000000  0.4948840000000 1.0
C      1  0.5126990000000  0.4428860000000  0.4964880000000 1.0
C      1  0.5321070000000  0.5334550000000  0.4940270000000 1.0
C      1  0.4459550000000  0.5111500000000  0.5028100000000 1.0
C      1  0.5212940000000  0.5790760000000  0.4515820000000 1.0
C      1  0.5584260000000  0.4443600000000  0.4508250000000 1.0
C      1  0.4277810000000  0.4767170000000  0.4555430000000 1.0
C      1  0.4908720000000  0.5800640000000  0.4535130000000 1.0
C      1  0.4417710000000  0.4495650000000  0.4528320000000 1.0
C      1  0.5744680000000  0.4703500000000  0.4527210000000 1.0
C      1  0.5233240000000  0.4640020000000  0.4816250000000 1.0
C      1  0.4595200000000  0.4893260000000  0.4921650000000 1.0
C      1  0.5082060000000  0.5338380000000  0.4805810000000 1.0
C      1  0.4748510000000  0.4683330000000  0.4895200000000 1.0
C      1  0.5344520000000  0.4876570000000  0.4824080000000 1.0
C      1  0.4824000000000  0.5333280000000  0.4839600000000 1.0
C      1  0.4206920000000  0.5061020000000  0.5142960000000 1.0
C      1  0.5440830000000  0.5577580000000  0.5027200000000 1.0
C      1  0.5318870000000  0.4266050000000  0.5089030000000 1.0
C      1  0.5726080000000  0.5088380000000  0.5043620000000 1.0
C      1  0.4511340000000  0.5608940000000  0.5069960000000 1.0
C      1  0.4665440000000  0.4270780000000  0.5103570000000 1.0
C      1  0.5127530000000  0.4246750000000  0.4436710000000 1.0
C      1  0.4342360000000  0.5293820000000  0.4529960000000 1.0
C      1  0.5619620000000  0.5494910000000  0.4581960000000 1.0
C      1  0.4859200000000  0.4262460000000  0.4452730000000 1.0
C      1  0.5760220000000  0.5223400000000  0.4584330000000 1.0
C      1  0.4457960000000  0.5558170000000  0.4581330000000 1.0
C      1  0.5748520000000  0.4980440000000  0.5306120000000 1.0
C      1  0.4525700000000  0.4393600000000  0.5323330000000 1.0
C      1  0.4638610000000  0.5695120000000  0.5315870000000 1.0
C      1  0.4213710000000  0.4946440000000  0.5404780000000 1.0
C      1  0.5464300000000  0.4405350000000  0.5295340000000 1.0
C      1  0.5296750000000  0.5697510000000  0.5248790000000 1.0
C      1  0.5540470000000  0.5046120000000  0.5491510000000 1.0
C      1  0.4698970000000  0.4533280000000  0.5518260000000 1.0
C      1  0.4690340000000  0.5491850000000  0.5517000000000 1.0
C      1  0.4435800000000  0.5011430000000  0.5569350000000 1.0
C      1  0.5301420000000  0.4551340000000  0.5490180000000 1.0
C      1  0.5243250000000  0.5515530000000  0.5470780000000 1.0
C      1  0.4319840000000  0.4763620000000  0.5973120000000 1.0
C      1  0.5117280000000  0.5772820000000  0.5871140000000 1.0
C      1  0.5597540000000  0.4568530000000  0.5883080000000 1.0
C      1  0.5718920000000  0.4814790000000  0.5884190000000 1.0
C      1  0.4844220000000  0.5760110000000  0.5896450000000 1.0
C      1  0.4453910000000  0.4525550000000  0.5946770000000 1.0
C      1  0.5099350000000  0.6020440000000  0.4922020000000 1.0
C      1  0.4192030000000  0.4496570000000  0.4951630000000 1.0
C      1  0.5811410000000  0.4440030000000  0.4931590000000 1.0
END
