TITL C-3623286-7563-1722 8.55921748187965e-07 125000 -906.51836767381 0 0 143 (C1) n - 1
REM
REM in /home/nfs/bkarasulu/CARBON/AIRSS/Generating-Clusters/LCBOP/Higher-Symm/SD-CG/FIRE-CG
REM
REM
REM
REM
REM
REM ./C.cell (b20cbc046b6831c77cfcea5457e17084)
REM AIRSS Version 0.9.1 bugfix July 2018 build 013d7b7c2542+ Fri, 06 Jul 2018 19:26:36 +0100
REM compiler GCC version 9.2.1 20190827 (Red Hat 9.2.1-1)
REM options -cpp -mtune=generic -march=x86-64 -g -O0 -fpre-include=/usr/include/finclude/math-vector-fortran.h
REM seed -1967903028 290181141 439541251 -2097960638 1988767150 751097087 -314020400 -278114829 161787770 -326406931 -2094511999 1908795497 -98531076 971470560 2048327008 664465048 -552212567 473693789 -2059279154 238656269 -2017657374 1207360088 -2035761932 -119127130 -1546408766 1987433813 1651788752 -363320142 884709479 -2022996799 686598878 -1954640304 -1688893457
REM
CELL 1.54180   50.00000   50.00000   50.00000   90.00000   90.00000   90.00000
LATT -1
SFAC C  
C      1  0.5697480000000  0.4621940000000  0.5262970000000 1.0
C      1  0.5731020000000  0.5016030000000  0.4598960000000 1.0
C      1  0.5696040000000  0.5376360000000  0.5187610000000 1.0
C      1  0.4287920000000  0.5380060000000  0.5249680000000 1.0
C      1  0.4291110000000  0.5082370000000  0.4597280000000 1.0
C      1  0.4299440000000  0.4611130000000  0.5128410000000 1.0
C      1  0.4134300000000  0.5010590000000  0.5643610000000 1.0
C      1  0.4165260000000  0.4459400000000  0.4619140000000 1.0
C      1  0.4110290000000  0.5578580000000  0.4681090000000 1.0
C      1  0.5862720000000  0.4991880000000  0.5652400000000 1.0
C      1  0.5792870000000  0.5495670000000  0.4622400000000 1.0
C      1  0.5865910000000  0.4471800000000  0.4688560000000 1.0
C      1  0.5310780000000  0.4483270000000  0.4191050000000 1.0
C      1  0.5343170000000  0.6034720000000  0.4950180000000 1.0
C      1  0.5325650000000  0.4534640000000  0.5907490000000 1.0
C      1  0.4720160000000  0.5507670000000  0.4184320000000 1.0
C      1  0.4639630000000  0.3969820000000  0.4936820000000 1.0
C      1  0.4668890000000  0.5469270000000  0.5912980000000 1.0
C      1  0.5600770000000  0.5400630000000  0.6008470000000 1.0
C      1  0.5606020000000  0.3932070000000  0.4844530000000 1.0
C      1  0.5362730000000  0.5652800000000  0.4111550000000 1.0
C      1  0.4411670000000  0.4600190000000  0.6015520000000 1.0
C      1  0.4379890000000  0.6090570000000  0.4849340000000 1.0
C      1  0.4479610000000  0.4302380000000  0.4092960000000 1.0
C      1  0.4715740000000  0.5021730000000  0.4048980000000 1.0
C      1  0.4569330000000  0.5752550000000  0.5497120000000 1.0
C      1  0.4513880000000  0.4195520000000  0.5390340000000 1.0
C      1  0.5343940000000  0.4935460000000  0.4038300000000 1.0
C      1  0.5425220000000  0.4246980000000  0.5496330000000 1.0
C      1  0.5460580000000  0.5818930000000  0.5399980000000 1.0
C      1  0.4234590000000  0.5055300000000  0.5909570000000 1.0
C      1  0.4243510000000  0.4196390000000  0.4530810000000 1.0
C      1  0.4230250000000  0.5764850000000  0.4499120000000 1.0
C      1  0.5764230000000  0.4944380000000  0.5917550000000 1.0
C      1  0.5714930000000  0.5754480000000  0.4514030000000 1.0
C      1  0.5756360000000  0.4272650000000  0.4512330000000 1.0
C      1  0.5267580000000  0.4440550000000  0.5640430000000 1.0
C      1  0.5233780000000  0.4754780000000  0.4218230000000 1.0
C      1  0.5296840000000  0.5853890000000  0.5169410000000 1.0
C      1  0.4720660000000  0.5555640000000  0.5642160000000 1.0
C      1  0.4888390000000  0.5257080000000  0.4163820000000 1.0
C      1  0.4677560000000  0.4152330000000  0.5158070000000 1.0
C      1  0.4822600000000  0.4644330000000  0.4483640000000 1.0
C      1  0.4852350000000  0.5676190000000  0.4958030000000 1.0
C      1  0.4832470000000  0.4723950000000  0.5629780000000 1.0
C      1  0.5181130000000  0.5368010000000  0.4522830000000 1.0
C      1  0.5128830000000  0.4325080000000  0.4952870000000 1.0
C      1  0.5148910000000  0.5265640000000  0.5624730000000 1.0
C      1  0.4653940000000  0.4693840000000  0.4718480000000 1.0
C      1  0.4694590000000  0.5415580000000  0.4889180000000 1.0
C      1  0.4680980000000  0.4905060000000  0.5431480000000 1.0
C      1  0.5332130000000  0.5315870000000  0.4758580000000 1.0
C      1  0.5292950000000  0.4578920000000  0.4899040000000 1.0
C      1  0.5292130000000  0.5077530000000  0.5429230000000 1.0
C      1  0.5795830000000  0.4367230000000  0.5200400000000 1.0
C      1  0.5681830000000  0.5252660000000  0.4185260000000 1.0
C      1  0.5801010000000  0.5467710000000  0.5434030000000 1.0
C      1  0.4201530000000  0.5641430000000  0.5195040000000 1.0
C      1  0.4285740000000  0.4809890000000  0.4230330000000 1.0
C      1  0.4127530000000  0.4491550000000  0.5531730000000 1.0
C      1  0.4467810000000  0.4825640000000  0.5234970000000 1.0
C      1  0.4461000000000  0.4913920000000  0.4750670000000 1.0
C      1  0.4481660000000  0.5291430000000  0.5059320000000 1.0
C      1  0.5509350000000  0.5155850000000  0.5239940000000 1.0
C      1  0.5517720000000  0.5094340000000  0.4773870000000 1.0
C      1  0.5503390000000  0.4701240000000  0.5068270000000 1.0
C      1  0.5786540000000  0.5460530000000  0.4920360000000 1.0
C      1  0.5816520000000  0.4789880000000  0.5457000000000 1.0
C      1  0.5842320000000  0.4752590000000  0.4619220000000 1.0
C      1  0.4181000000000  0.4517690000000  0.4900640000000 1.0
C      1  0.4173400000000  0.5214270000000  0.5448570000000 1.0
C      1  0.4139910000000  0.5304600000000  0.4613450000000 1.0
C      1  0.4383670000000  0.5841380000000  0.5294390000000 1.0
C      1  0.4357200000000  0.4331310000000  0.5590050000000 1.0
C      1  0.4521810000000  0.4806050000000  0.4067190000000 1.0
C      1  0.5616570000000  0.4162230000000  0.5295780000000 1.0
C      1  0.5634650000000  0.5663260000000  0.5565460000000 1.0
C      1  0.5431420000000  0.5196380000000  0.4058240000000 1.0
C      1  0.4467370000000  0.4181660000000  0.4351430000000 1.0
C      1  0.4424730000000  0.5943850000000  0.4609400000000 1.0
C      1  0.4438700000000  0.4883850000000  0.6015880000000 1.0
C      1  0.5479130000000  0.5787430000000  0.4347990000000 1.0
C      1  0.5558560000000  0.4088660000000  0.4612540000000 1.0
C      1  0.5560380000000  0.5119050000000  0.6017790000000 1.0
C      1  0.4720920000000  0.4161070000000  0.4480070000000 1.0
C      1  0.4696940000000  0.5881790000000  0.4556160000000 1.0
C      1  0.4710630000000  0.4977290000000  0.6018130000000 1.0
C      1  0.5248530000000  0.5854170000000  0.4509530000000 1.0
C      1  0.5282710000000  0.4129570000000  0.4545680000000 1.0
C      1  0.5287480000000  0.5028780000000  0.6016600000000 1.0
C      1  0.4817350000000  0.5689980000000  0.4379210000000 1.0
C      1  0.4829790000000  0.5241320000000  0.5996590000000 1.0
C      1  0.4822710000000  0.4022950000000  0.4714100000000 1.0
C      1  0.5166080000000  0.4302200000000  0.4348420000000 1.0
C      1  0.5168200000000  0.4764490000000  0.5990860000000 1.0
C      1  0.5149920000000  0.5999180000000  0.4735780000000 1.0
C      1  0.5589680000000  0.3948150000000  0.5113680000000 1.0
C      1  0.5233330000000  0.5397630000000  0.4060140000000 1.0
C      1  0.5600510000000  0.5613110000000  0.5841980000000 1.0
C      1  0.4407110000000  0.6061320000000  0.5117440000000 1.0
C      1  0.4562070000000  0.4536260000000  0.3979400000000 1.0
C      1  0.4441790000000  0.4382130000000  0.5857110000000 1.0
C      1  0.5113730000000  0.5651260000000  0.5089060000000 1.0
C      1  0.5075920000000  0.4610320000000  0.5516300000000 1.0
C      1  0.5056990000000  0.4842930000000  0.4446730000000 1.0
C      1  0.4862710000000  0.4350670000000  0.5073240000000 1.0
C      1  0.4901510000000  0.5376010000000  0.5517100000000 1.0
C      1  0.4976390000000  0.5155060000000  0.4447730000000 1.0
C      1  0.5205590000000  0.5399050000000  0.5010210000000 1.0
C      1  0.5138820000000  0.4813820000000  0.5329100000000 1.0
C      1  0.5174870000000  0.4811840000000  0.4729010000000 1.0
C      1  0.4767660000000  0.4597630000000  0.4976800000000 1.0
C      1  0.4831030000000  0.5170120000000  0.5334370000000 1.0
C      1  0.4816970000000  0.5177750000000  0.4714780000000 1.0
C      1  0.5765860000000  0.4312030000000  0.4233650000000 1.0
C      1  0.5766100000000  0.5978850000000  0.4683140000000 1.0
C      1  0.5777190000000  0.4685140000000  0.6027910000000 1.0
C      1  0.4258320000000  0.5685760000000  0.4228540000000 1.0
C      1  0.4205290000000  0.3973190000000  0.4699780000000 1.0
C      1  0.4216770000000  0.5313600000000  0.6022610000000 1.0
C      1  0.4456340000000  0.5555200000000  0.4098890000000 1.0
C      1  0.4413330000000  0.5498500000000  0.6027040000000 1.0
C      1  0.4383710000000  0.3869950000000  0.4874390000000 1.0
C      1  0.5560740000000  0.4407740000000  0.4087590000000 1.0
C      1  0.5579760000000  0.4501320000000  0.6023340000000 1.0
C      1  0.5607190000000  0.6096150000000  0.4868520000000 1.0
C      1  0.4893540000000  0.4375250000000  0.4404010000000 1.0
C      1  0.4870420000000  0.5910880000000  0.4785670000000 1.0
C      1  0.4886680000000  0.4780930000000  0.5907530000000 1.0
C      1  0.5081210000000  0.5628170000000  0.4463120000000 1.0
C      1  0.5103140000000  0.4102910000000  0.4767020000000 1.0
C      1  0.5110110000000  0.5224530000000  0.5907080000000 1.0
C      1  0.5931330000000  0.5258510000000  0.5578190000000 1.0
C      1  0.5932150000000  0.4373620000000  0.4949710000000 1.0
C      1  0.5788080000000  0.5256250000000  0.4449270000000 1.0
C      1  0.4052710000000  0.4748380000000  0.5572500000000 1.0
C      1  0.4060250000000  0.5661250000000  0.4948690000000 1.0
C      1  0.4155140000000  0.4659580000000  0.4415550000000 1.0
C      1  0.5027930000000  0.5206790000000  0.5111190000000 1.0
C      1  0.4990620000000  0.4995100000000  0.4907880000000 1.0
C      1  0.4940100000000  0.4782650000000  0.5106580000000 1.0
C      1  0.4462600000000  0.5013630000000  0.5018270000000 1.0
C      1  0.5522650000000  0.4975670000000  0.5024110000000 1.0
END
