TITL C-3623284-6838-1520 -40.5889717041565 125000 -905.245296421045 0 0 146 (C1) n - 1
REM
REM in /home/nfs/bkarasulu/CARBON/AIRSS/Generating-Clusters/LCBOP/Higher-Symm/SD-CG/FIRE-CG
REM
REM
REM
REM
REM
REM ./C.cell (b20cbc046b6831c77cfcea5457e17084)
REM AIRSS Version 0.9.1 bugfix July 2018 build 013d7b7c2542+ Fri, 06 Jul 2018 19:26:36 +0100
REM compiler GCC version 9.2.1 20190827 (Red Hat 9.2.1-1)
REM options -cpp -mtune=generic -march=x86-64 -g -O0 -fpre-include=/usr/include/finclude/math-vector-fortran.h
REM seed -440400169 1094926117 -1921612461 1088002740 -1683675799 -247526012 2138628154 2081544083 -1696419225 612453164 -569389792 1757032418 213123564 -1981323578 2068317074 -1883809680 -27983029 274438088 521344383 1033689681 442321550 838140351 -621057146 1827548597 -1963602473 1097929315 -292483261 -342550189 2043974257 615066904 -1310453733 -1497569198 -1673964841
REM
CELL 1.54180   50.00000   50.00000   50.00000   90.00000   90.00000   90.00000
LATT -1
SFAC C  
C      1  0.4883210000000  0.5388810000000  0.4997550000000 1.0
C      1  0.5112920000000  0.5022220000000  0.4643460000000 1.0
C      1  0.4867290000000  0.4727690000000  0.5013010000000 1.0
C      1  0.5152310000000  0.5034180000000  0.5312450000000 1.0
C      1  0.5333500000000  0.4978600000000  0.6054570000000 1.0
C      1  0.4513340000000  0.6056970000000  0.4966180000000 1.0
C      1  0.5442100000000  0.4857900000000  0.3868980000000 1.0
C      1  0.4702670000000  0.3924900000000  0.4916380000000 1.0
C      1  0.5681600000000  0.4398050000000  0.5099940000000 1.0
C      1  0.4254360000000  0.5076170000000  0.5701680000000 1.0
C      1  0.5762160000000  0.5600140000000  0.4950170000000 1.0
C      1  0.4252780000000  0.4940810000000  0.4452700000000 1.0
C      1  0.5174400000000  0.4497830000000  0.6584030000000 1.0
C      1  0.4514580000000  0.6778460000000  0.5113800000000 1.0
C      1  0.5480910000000  0.5228120000000  0.3236690000000 1.0
C      1  0.4928430000000  0.3457150000000  0.4385230000000 1.0
C      1  0.5474590000000  0.5476860000000  0.4326180000000 1.0
C      1  0.4533600000000  0.4355850000000  0.4517220000000 1.0
C      1  0.5413170000000  0.4506130000000  0.5663850000000 1.0
C      1  0.4540920000000  0.5664830000000  0.5567750000000 1.0
C      1  0.5120500000000  0.4867940000000  0.5558710000000 1.0
C      1  0.4819000000000  0.5670160000000  0.5135100000000 1.0
C      1  0.5113020000000  0.5165800000000  0.4370790000000 1.0
C      1  0.4859650000000  0.4464540000000  0.4868170000000 1.0
C      1  0.4344700000000  0.4266580000000  0.5019000000000 1.0
C      1  0.5626300000000  0.5003650000000  0.5653550000000 1.0
C      1  0.4302460000000  0.5650510000000  0.5117590000000 1.0
C      1  0.5616800000000  0.4908170000000  0.4321430000000 1.0
C      1  0.4534680000000  0.5780770000000  0.5026930000000 1.0
C      1  0.5407500000000  0.4788270000000  0.4142120000000 1.0
C      1  0.4589580000000  0.4116350000000  0.5115720000000 1.0
C      1  0.5404470000000  0.5136540000000  0.5823690000000 1.0
C      1  0.4463230000000  0.4618190000000  0.4086240000000 1.0
C      1  0.5449630000000  0.4042840000000  0.5483860000000 1.0
C      1  0.4493810000000  0.5440710000000  0.6029230000000 1.0
C      1  0.5565350000000  0.5912050000000  0.4598530000000 1.0
C      1  0.4433880000000  0.5160850000000  0.5490300000000 1.0
C      1  0.5634380000000  0.5355070000000  0.4890390000000 1.0
C      1  0.4394800000000  0.4922780000000  0.4697540000000 1.0
C      1  0.5588830000000  0.4664000000000  0.5068650000000 1.0
C      1  0.4311210000000  0.5116580000000  0.5238570000000 1.0
C      1  0.5794070000000  0.5192340000000  0.4735340000000 1.0
C      1  0.4293150000000  0.4794100000000  0.4918730000000 1.0
C      1  0.5796290000000  0.4851130000000  0.5034730000000 1.0
C      1  0.4319770000000  0.4294330000000  0.4707680000000 1.0
C      1  0.5634850000000  0.4697150000000  0.5669980000000 1.0
C      1  0.4289240000000  0.5653220000000  0.5411290000000 1.0
C      1  0.5676770000000  0.5256130000000  0.4317870000000 1.0
C      1  0.4055720000000  0.4373300000000  0.4598500000000 1.0
C      1  0.5892510000000  0.4578610000000  0.5601890000000 1.0
C      1  0.4041030000000  0.5550480000000  0.5519670000000 1.0
C      1  0.5899560000000  0.5319350000000  0.4503770000000 1.0
C      1  0.4055750000000  0.4641790000000  0.4950470000000 1.0
C      1  0.5944830000000  0.4895530000000  0.5273060000000 1.0
C      1  0.4074420000000  0.5255630000000  0.5169180000000 1.0
C      1  0.6316180000000  0.5599830000000  0.4491570000000 1.0
C      1  0.6120270000000  0.5435340000000  0.5171850000000 1.0
C      1  0.3891800000000  0.5153360000000  0.4642990000000 1.0
C      1  0.6044590000000  0.4436130000000  0.4828470000000 1.0
C      1  0.3918230000000  0.4792280000000  0.5486560000000 1.0
C      1  0.6020620000000  0.4617570000000  0.5346750000000 1.0
C      1  0.3939280000000  0.5294310000000  0.5427770000000 1.0
C      1  0.6101980000000  0.5498080000000  0.4626690000000 1.0
C      1  0.3946500000000  0.4629030000000  0.4680820000000 1.0
C      1  0.5773870000000  0.5597620000000  0.5475820000000 1.0
C      1  0.4225400000000  0.5468750000000  0.4478500000000 1.0
C      1  0.5670060000000  0.4262330000000  0.4551000000000 1.0
C      1  0.4231070000000  0.4490050000000  0.5665960000000 1.0
C      1  0.4851850000000  0.4914030000000  0.4768010000000 1.0
C      1  0.5132460000000  0.4812190000000  0.5117830000000 1.0
C      1  0.4884810000000  0.5189220000000  0.5256330000000 1.0
C      1  0.5154050000000  0.5271620000000  0.4845880000000 1.0
C      1  0.5072860000000  0.4667670000000  0.4191360000000 1.0
C      1  0.4850890000000  0.4198740000000  0.5350480000000 1.0
C      1  0.5111640000000  0.5346890000000  0.5789720000000 1.0
C      1  0.5029060000000  0.5834450000000  0.4600970000000 1.0
C      1  0.4434540000000  0.4950950000000  0.5888320000000 1.0
C      1  0.5585080000000  0.5787170000000  0.5070540000000 1.0
C      1  0.4430230000000  0.5075050000000  0.4261540000000 1.0
C      1  0.5512140000000  0.4197070000000  0.5021270000000 1.0
C      1  0.5029520000000  0.4502420000000  0.4416310000000 1.0
C      1  0.4892120000000  0.4427340000000  0.5519360000000 1.0
C      1  0.5080810000000  0.5536610000000  0.5570080000000 1.0
C      1  0.4966290000000  0.5603030000000  0.4453480000000 1.0
C      1  0.4921040000000  0.3876410000000  0.4722820000000 1.0
C      1  0.5135080000000  0.4790240000000  0.6133700000000 1.0
C      1  0.4669130000000  0.6265070000000  0.5077350000000 1.0
C      1  0.5324590000000  0.5072840000000  0.3727350000000 1.0
C      1  0.4066290000000  0.4544880000000  0.5437550000000 1.0
C      1  0.5938130000000  0.5375230000000  0.5397070000000 1.0
C      1  0.4058210000000  0.5389880000000  0.4699220000000 1.0
C      1  0.5858830000000  0.4477170000000  0.4597660000000 1.0
C      1  0.4589640000000  0.6529520000000  0.5096100000000 1.0
C      1  0.5404860000000  0.5152610000000  0.3474240000000 1.0
C      1  0.4924310000000  0.3658760000000  0.4550300000000 1.0
C      1  0.5154950000000  0.4641220000000  0.6367300000000 1.0
C      1  0.5311340000000  0.5521100000000  0.5397490000000 1.0
C      1  0.4709310000000  0.5467060000000  0.4499150000000 1.0
C      1  0.5267230000000  0.4509390000000  0.4576780000000 1.0
C      1  0.4660860000000  0.4592880000000  0.5521130000000 1.0
C      1  0.5439940000000  0.5915030000000  0.4856210000000 1.0
C      1  0.4588230000000  0.4871530000000  0.4118510000000 1.0
C      1  0.5349000000000  0.4081960000000  0.5224360000000 1.0
C      1  0.4609280000000  0.5183710000000  0.5990090000000 1.0
C      1  0.4708430000000  0.5046880000000  0.5456080000000 1.0
C      1  0.5388460000000  0.5291470000000  0.4989700000000 1.0
C      1  0.4625720000000  0.5067270000000  0.4738350000000 1.0
C      1  0.5350270000000  0.4743480000000  0.4968160000000 1.0
C      1  0.5002970000000  0.5908170000000  0.5075890000000 1.0
C      1  0.5006060000000  0.5105360000000  0.4115340000000 1.0
C      1  0.5023410000000  0.4250920000000  0.4941460000000 1.0
C      1  0.4880370000000  0.4953670000000  0.5709780000000 1.0
C      1  0.5340130000000  0.5262670000000  0.5266110000000 1.0
C      1  0.4687600000000  0.5341660000000  0.4763840000000 1.0
C      1  0.5299630000000  0.4769140000000  0.4694760000000 1.0
C      1  0.4652820000000  0.4783000000000  0.5287410000000 1.0
C      1  0.4872610000000  0.4859900000000  0.4112790000000 1.0
C      1  0.5076290000000  0.4147250000000  0.5195060000000 1.0
C      1  0.4875480000000  0.5207790000000  0.5868110000000 1.0
C      1  0.5158670000000  0.5901370000000  0.4843110000000 1.0
C      1  0.4123290000000  0.5461820000000  0.4974680000000 1.0
C      1  0.5780460000000  0.4757700000000  0.4537810000000 1.0
C      1  0.4128140000000  0.4444120000000  0.5162420000000 1.0
C      1  0.5845700000000  0.5103120000000  0.5458990000000 1.0
C      1  0.4456290000000  0.4403180000000  0.4248210000000 1.0
C      1  0.5470330000000  0.4229860000000  0.5676650000000 1.0
C      1  0.4506440000000  0.5642460000000  0.5849240000000 1.0
C      1  0.5569630000000  0.5738280000000  0.4391370000000 1.0
C      1  0.4912310000000  0.4762300000000  0.5953760000000 1.0
C      1  0.4917800000000  0.6164290000000  0.5166920000000 1.0
C      1  0.5116630000000  0.5198130000000  0.3872910000000 1.0
C      1  0.5129510000000  0.4079880000000  0.4729480000000 1.0
C      1  0.4793280000000  0.4450870000000  0.4585070000000 1.0
C      1  0.5150900000000  0.4579300000000  0.5573430000000 1.0
C      1  0.4814460000000  0.5632540000000  0.5450510000000 1.0
C      1  0.5193280000000  0.5436860000000  0.4377840000000 1.0
C      1  0.3985900000000  0.5054200000000  0.5592350000000 1.0
C      1  0.6045530000000  0.5555890000000  0.4913770000000 1.0
C      1  0.3975100000000  0.4891280000000  0.4538640000000 1.0
C      1  0.5973360000000  0.4428560000000  0.5115820000000 1.0
C      1  0.4467470000000  0.4635330000000  0.5728420000000 1.0
C      1  0.5534850000000  0.5695380000000  0.5346000000000 1.0
C      1  0.4468160000000  0.5364370000000  0.4352400000000 1.0
C      1  0.5396630000000  0.4232730000000  0.4682580000000 1.0
C      1  0.5829890000000  0.4925720000000  0.4769770000000 1.0
C      1  0.4406640000000  0.4870790000000  0.5151440000000 1.0
END
