TITL C-3623289-7120-783 672.281927997223 125000 -1123.66193074587 0 0 187 (C1) n - 1
REM
REM in /home/nfs/bkarasulu/CARBON/AIRSS/Generating-Clusters/LCBOP/Higher-Symm/SD-CG/FIRE-CG
REM
REM
REM
REM
REM
REM ./C.cell (b20cbc046b6831c77cfcea5457e17084)
REM AIRSS Version 0.9.1 bugfix July 2018 build 013d7b7c2542+ Fri, 06 Jul 2018 19:26:36 +0100
REM compiler GCC version 9.2.1 20190827 (Red Hat 9.2.1-1)
REM options -cpp -mtune=generic -march=x86-64 -g -O0 -fpre-include=/usr/include/finclude/math-vector-fortran.h
REM seed 984958534 1826806954 -1765001188 706485079 1007137043 -981514906 -1812515378 1310781538 -1946397695 396218106 -1865143723 942655118 -358916414 127683007 -80310341 -1876385622 -763408636 2011660517 -1193990293 -55763095 1399854660 -907553580 1445434569 -1739670736 1128862941 873314602 -909490196 -923711030 -1405984807 -1557154792 -1710588163 1499091355 -1615832087
REM
CELL 1.54180   50.00000   50.00000   50.00000   90.00000   90.00000   90.00000
LATT -1
SFAC C  
C      1  0.5481210000000  0.5149320000000  0.5801150000000 1.0
C      1  0.5410090000000  0.5416650000000  0.4415170000000 1.0
C      1  0.5608320000000  0.4516930000000  0.4938900000000 1.0
C      1  0.5319080000000  0.5456160000000  0.6305750000000 1.0
C      1  0.5234360000000  0.5373630000000  0.3856380000000 1.0
C      1  0.5687470000000  0.4045250000000  0.5244980000000 1.0
C      1  0.4767710000000  0.3694800000000  0.5089510000000 1.0
C      1  0.4502850000000  0.5842160000000  0.5982180000000 1.0
C      1  0.4389520000000  0.5471050000000  0.3978760000000 1.0
C      1  0.4892290000000  0.6305320000000  0.5344620000000 1.0
C      1  0.4610090000000  0.4748110000000  0.3854010000000 1.0
C      1  0.4685770000000  0.4049880000000  0.5801460000000 1.0
C      1  0.5611310000000  0.5307480000000  0.4192290000000 1.0
C      1  0.5908910000000  0.4462440000000  0.5045570000000 1.0
C      1  0.5659020000000  0.5201950000000  0.6019670000000 1.0
C      1  0.5224430000000  0.5264490000000  0.5838040000000 1.0
C      1  0.5333030000000  0.5681630000000  0.4268890000000 1.0
C      1  0.5542530000000  0.4195120000000  0.4824800000000 1.0
C      1  0.4339690000000  0.4852430000000  0.3884050000000 1.0
C      1  0.4601320000000  0.3984410000000  0.5541200000000 1.0
C      1  0.4743110000000  0.6142440000000  0.5518710000000 1.0
C      1  0.5525870000000  0.6090760000000  0.5162460000000 1.0
C      1  0.5352070000000  0.4671580000000  0.3879140000000 1.0
C      1  0.5359200000000  0.4239230000000  0.5900400000000 1.0
C      1  0.4985770000000  0.4294560000000  0.5195690000000 1.0
C      1  0.4889660000000  0.5576970000000  0.5443070000000 1.0
C      1  0.4734940000000  0.5133770000000  0.4335950000000 1.0
C      1  0.5511450000000  0.4733220000000  0.4679280000000 1.0
C      1  0.5465810000000  0.4915080000000  0.5629480000000 1.0
C      1  0.5436210000000  0.5500970000000  0.4706570000000 1.0
C      1  0.4952460000000  0.4591570000000  0.6707020000000 1.0
C      1  0.5355390000000  0.6648860000000  0.4415500000000 1.0
C      1  0.5302930000000  0.3947340000000  0.3700980000000 1.0
C      1  0.4674450000000  0.4061510000000  0.4043240000000 1.0
C      1  0.4368590000000  0.4453880000000  0.6273850000000 1.0
C      1  0.4697180000000  0.6639030000000  0.4763590000000 1.0
C      1  0.4545980000000  0.5137180000000  0.5859220000000 1.0
C      1  0.4618650000000  0.5811190000000  0.4380350000000 1.0
C      1  0.4961080000000  0.4212890000000  0.4670110000000 1.0
C      1  0.4578680000000  0.4554440000000  0.6407690000000 1.0
C      1  0.4914710000000  0.6626770000000  0.4607850000000 1.0
C      1  0.4935820000000  0.4050830000000  0.3993560000000 1.0
C      1  0.5090540000000  0.5167610000000  0.4000420000000 1.0
C      1  0.5428720000000  0.4067280000000  0.5098330000000 1.0
C      1  0.5162910000000  0.5542470000000  0.5863750000000 1.0
C      1  0.5386910000000  0.6314340000000  0.5251440000000 1.0
C      1  0.5103860000000  0.4683530000000  0.3734630000000 1.0
C      1  0.5161740000000  0.4061300000000  0.5978160000000 1.0
C      1  0.6024090000000  0.4356160000000  0.3531190000000 1.0
C      1  0.6034350000000  0.4368670000000  0.5635880000000 1.0
C      1  0.5934950000000  0.5549120000000  0.5476640000000 1.0
C      1  0.4029560000000  0.4808060000000  0.4589970000000 1.0
C      1  0.4145890000000  0.4360940000000  0.5085850000000 1.0
C      1  0.4082120000000  0.5831180000000  0.5354420000000 1.0
C      1  0.4933090000000  0.5648190000000  0.5719760000000 1.0
C      1  0.4811020000000  0.5221940000000  0.4071630000000 1.0
C      1  0.5135830000000  0.4042350000000  0.5148450000000 1.0
C      1  0.4920720000000  0.3961230000000  0.5922790000000 1.0
C      1  0.5158470000000  0.6383690000000  0.5371550000000 1.0
C      1  0.4837630000000  0.4717920000000  0.3689060000000 1.0
C      1  0.4721360000000  0.5681090000000  0.5927750000000 1.0
C      1  0.4667520000000  0.5448550000000  0.3975990000000 1.0
C      1  0.5013090000000  0.3812170000000  0.5025830000000 1.0
C      1  0.4352620000000  0.6473030000000  0.5102290000000 1.0
C      1  0.4195940000000  0.4250700000000  0.4160290000000 1.0
C      1  0.4114970000000  0.4307640000000  0.5849420000000 1.0
C      1  0.5736450000000  0.5706840000000  0.5357460000000 1.0
C      1  0.5802380000000  0.4492770000000  0.3633750000000 1.0
C      1  0.5759510000000  0.4310170000000  0.5647950000000 1.0
C      1  0.4566940000000  0.4863450000000  0.5405370000000 1.0
C      1  0.4526140000000  0.5696510000000  0.4859900000000 1.0
C      1  0.4738100000000  0.4656930000000  0.4696260000000 1.0
C      1  0.5099480000000  0.5549620000000  0.6155730000000 1.0
C      1  0.5070410000000  0.5607770000000  0.3802980000000 1.0
C      1  0.5165090000000  0.3515510000000  0.4660670000000 1.0
C      1  0.5493170000000  0.5716890000000  0.4031770000000 1.0
C      1  0.5831040000000  0.4078720000000  0.4819040000000 1.0
C      1  0.5692380000000  0.5224410000000  0.6507890000000 1.0
C      1  0.5927070000000  0.5149670000000  0.5994360000000 1.0
C      1  0.5837170000000  0.5164990000000  0.4230460000000 1.0
C      1  0.6105020000000  0.4646470000000  0.5059920000000 1.0
C      1  0.5111280000000  0.3762780000000  0.4760210000000 1.0
C      1  0.4806830000000  0.5483390000000  0.6131490000000 1.0
C      1  0.4845490000000  0.5672790000000  0.3968160000000 1.0
C      1  0.4280620000000  0.6037390000000  0.5380360000000 1.0
C      1  0.4065620000000  0.4731330000000  0.4310840000000 1.0
C      1  0.4228600000000  0.4249350000000  0.5340420000000 1.0
C      1  0.3976750000000  0.5427270000000  0.4295480000000 1.0
C      1  0.4285740000000  0.3728090000000  0.4901430000000 1.0
C      1  0.3991950000000  0.5901460000000  0.5997090000000 1.0
C      1  0.4253080000000  0.5901590000000  0.6051040000000 1.0
C      1  0.4153130000000  0.5478840000000  0.4102100000000 1.0
C      1  0.4515430000000  0.3652530000000  0.5013670000000 1.0
C      1  0.3878650000000  0.5282210000000  0.4497210000000 1.0
C      1  0.4110780000000  0.3920990000000  0.4842240000000 1.0
C      1  0.3827310000000  0.5864380000000  0.5789470000000 1.0
C      1  0.5267400000000  0.5743700000000  0.4802170000000 1.0
C      1  0.5477170000000  0.4604390000000  0.4389760000000 1.0
C      1  0.5231850000000  0.4741590000000  0.5751620000000 1.0
C      1  0.4737310000000  0.5078800000000  0.5255020000000 1.0
C      1  0.4772550000000  0.5106450000000  0.4968260000000 1.0
C      1  0.4858730000000  0.4836270000000  0.4898780000000 1.0
C      1  0.4791830000000  0.5792770000000  0.4891130000000 1.0
C      1  0.4968520000000  0.4645630000000  0.4498400000000 1.0
C      1  0.4760300000000  0.4721090000000  0.5589790000000 1.0
C      1  0.5456140000000  0.4307120000000  0.4353520000000 1.0
C      1  0.5121880000000  0.4822790000000  0.6024550000000 1.0
C      1  0.5190040000000  0.5959270000000  0.4598630000000 1.0
C      1  0.4792180000000  0.6299700000000  0.5079060000000 1.0
C      1  0.4683660000000  0.4714670000000  0.4129120000000 1.0
C      1  0.4585010000000  0.4300330000000  0.5887040000000 1.0
C      1  0.4769650000000  0.5211310000000  0.6027800000000 1.0
C      1  0.4859760000000  0.5810210000000  0.4224730000000 1.0
C      1  0.5147890000000  0.4003490000000  0.4619020000000 1.0
C      1  0.5402670000000  0.5018280000000  0.4713490000000 1.0
C      1  0.5457940000000  0.4861990000000  0.5335350000000 1.0
C      1  0.5419580000000  0.5270000000000  0.4901400000000 1.0
C      1  0.5372700000000  0.4763260000000  0.4155180000000 1.0
C      1  0.5322270000000  0.4459180000000  0.5712410000000 1.0
C      1  0.5400860000000  0.5851620000000  0.5051270000000 1.0
C      1  0.5505250000000  0.5436870000000  0.3944160000000 1.0
C      1  0.5910210000000  0.4165980000000  0.5087660000000 1.0
C      1  0.5555100000000  0.5297980000000  0.6274600000000 1.0
C      1  0.5206360000000  0.6237740000000  0.4616400000000 1.0
C      1  0.5387670000000  0.4195860000000  0.4103420000000 1.0
C      1  0.5025060000000  0.4674340000000  0.6239720000000 1.0
C      1  0.5161150000000  0.6506360000000  0.4544960000000 1.0
C      1  0.5209700000000  0.4063550000000  0.3930470000000 1.0
C      1  0.4852410000000  0.4606680000000  0.6452480000000 1.0
C      1  0.4507780000000  0.4170190000000  0.5350740000000 1.0
C      1  0.4549950000000  0.5948720000000  0.5444530000000 1.0
C      1  0.4259810000000  0.4891880000000  0.4166650000000 1.0
C      1  0.5085780000000  0.4759140000000  0.5041840000000 1.0
C      1  0.5019450000000  0.5087580000000  0.5380460000000 1.0
C      1  0.4888960000000  0.5315160000000  0.4797650000000 1.0
C      1  0.4459450000000  0.5729860000000  0.4586380000000 1.0
C      1  0.4712040000000  0.4346810000000  0.4740350000000 1.0
C      1  0.4433410000000  0.5040070000000  0.5625970000000 1.0
C      1  0.4692350000000  0.4368180000000  0.5236270000000 1.0
C      1  0.4634910000000  0.5686570000000  0.5336460000000 1.0
C      1  0.4528320000000  0.4901580000000  0.4323480000000 1.0
C      1  0.4046670000000  0.4174670000000  0.4900740000000 1.0
C      1  0.3862480000000  0.5828400000000  0.5526380000000 1.0
C      1  0.3887400000000  0.5047820000000  0.4627480000000 1.0
C      1  0.4493900000000  0.4774250000000  0.4594250000000 1.0
C      1  0.4523490000000  0.4630930000000  0.5194870000000 1.0
C      1  0.4446200000000  0.5605770000000  0.5119990000000 1.0
C      1  0.5639440000000  0.4176900000000  0.5875060000000 1.0
C      1  0.5753150000000  0.5991970000000  0.5312340000000 1.0
C      1  0.5584750000000  0.4595760000000  0.3743840000000 1.0
C      1  0.5998080000000  0.5305100000000  0.5369370000000 1.0
C      1  0.6215390000000  0.4493760000000  0.3391790000000 1.0
C      1  0.6216410000000  0.4166110000000  0.5606240000000 1.0
C      1  0.4939710000000  0.5208130000000  0.4534220000000 1.0
C      1  0.5163940000000  0.4512870000000  0.5153720000000 1.0
C      1  0.5091140000000  0.5380550000000  0.5334810000000 1.0
C      1  0.6047140000000  0.4086310000000  0.3571550000000 1.0
C      1  0.6118740000000  0.4627480000000  0.5666670000000 1.0
C      1  0.6070480000000  0.5644940000000  0.5694650000000 1.0
C      1  0.5406180000000  0.4129680000000  0.4575390000000 1.0
C      1  0.5029430000000  0.5092800000000  0.5980400000000 1.0
C      1  0.5116890000000  0.5840460000000  0.4349280000000 1.0
C      1  0.4289630000000  0.4601670000000  0.5011900000000 1.0
C      1  0.4173410000000  0.5614370000000  0.5197110000000 1.0
C      1  0.4256910000000  0.4735450000000  0.4752380000000 1.0
C      1  0.5534800000000  0.4428400000000  0.5500300000000 1.0
C      1  0.5496680000000  0.5628540000000  0.5219810000000 1.0
C      1  0.5238440000000  0.5011420000000  0.4195790000000 1.0
C      1  0.4830340000000  0.6062280000000  0.4939560000000 1.0
C      1  0.4911730000000  0.4610800000000  0.4232040000000 1.0
C      1  0.4698190000000  0.4527240000000  0.5774150000000 1.0
C      1  0.4337260000000  0.4337870000000  0.6020290000000 1.0
C      1  0.4606310000000  0.6491470000000  0.4983070000000 1.0
C      1  0.4420770000000  0.4121500000000  0.4098300000000 1.0
C      1  0.4241060000000  0.6292560000000  0.5267730000000 1.0
C      1  0.4048310000000  0.4461680000000  0.4232130000000 1.0
C      1  0.4086590000000  0.4272760000000  0.5583170000000 1.0
C      1  0.4987360000000  0.5594220000000  0.4849270000000 1.0
C      1  0.5122490000000  0.4447930000000  0.4617540000000 1.0
C      1  0.5005270000000  0.4855050000000  0.5583220000000 1.0
C      1  0.5465500000000  0.4561920000000  0.5235540000000 1.0
C      1  0.5343910000000  0.5393500000000  0.5171590000000 1.0
C      1  0.5236370000000  0.5148580000000  0.4463910000000 1.0
C      1  0.5606790000000  0.5937350000000  0.3925150000000 1.0
C      1  0.5961510000000  0.3941630000000  0.4627520000000 1.0
C      1  0.5817300000000  0.5152540000000  0.6725020000000 1.0
C      1  0.5219560000000  0.4958410000000  0.5197570000000 1.0
END
