TITL C-3623289-7120-998 0.43855002888618 125000 -251.064633135347 0 0 42 (C1) n - 1
REM
REM in /home/nfs/bkarasulu/CARBON/AIRSS/Generating-Clusters/LCBOP/Higher-Symm/SD-CG/FIRE-CG
REM
REM
REM
REM
REM
REM ./C.cell (b20cbc046b6831c77cfcea5457e17084)
REM AIRSS Version 0.9.1 bugfix July 2018 build 013d7b7c2542+ Fri, 06 Jul 2018 19:26:36 +0100
REM compiler GCC version 9.2.1 20190827 (Red Hat 9.2.1-1)
REM options -cpp -mtune=generic -march=x86-64 -g -O0 -fpre-include=/usr/include/finclude/math-vector-fortran.h
REM seed -1468011096 -853979394 880285531 -597717250 -1755899756 -1695480704 -1427727573 -1433880472 773263351 -775609094 -1426187861 -1372267438 -9213328 958640529 -1047670804 -1084577341 274215344 1814685287 1502649660 1871075878 -192925451 -1342680364 -1972294965 -446692837 -219165688 -1302698621 -520266353 1593345816 -2045663035 -963324824 -1095901658 -1650856001 509115076
REM
CELL 1.54180   50.00000   50.00000   50.00000   90.00000   90.00000   90.00000
LATT -1
SFAC C  
C      1  0.4745490000000  0.4271830000000  0.4950540000000 1.0
C      1  0.5080940000000  0.5241010000000  0.4573320000000 1.0
C      1  0.5294540000000  0.5089530000000  0.4700910000000 1.0
C      1  0.4288750000000  0.5102700000000  0.5009710000000 1.0
C      1  0.5421730000000  0.4571430000000  0.4987680000000 1.0
C      1  0.4544650000000  0.5477400000000  0.4866570000000 1.0
C      1  0.3868570000000  0.5347450000000  0.5120790000000 1.0
C      1  0.5263050000000  0.6105530000000  0.6053780000000 1.0
C      1  0.5152990000000  0.4209040000000  0.4675910000000 1.0
C      1  0.5181580000000  0.4447570000000  0.5093060000000 1.0
C      1  0.5442080000000  0.5115910000000  0.5176930000000 1.0
C      1  0.5350860000000  0.4362240000000  0.4569330000000 1.0
C      1  0.4836790000000  0.4888850000000  0.4347090000000 1.0
C      1  0.5053200000000  0.4808020000000  0.4204730000000 1.0
C      1  0.4330190000000  0.4579700000000  0.5033000000000 1.0
C      1  0.4197280000000  0.5827210000000  0.4939800000000 1.0
C      1  0.5050660000000  0.4447590000000  0.5565180000000 1.0
C      1  0.4241860000000  0.4831150000000  0.5046980000000 1.0
C      1  0.4769280000000  0.5592330000000  0.4742550000000 1.0
C      1  0.5785390000000  0.4486330000000  0.5294260000000 1.0
C      1  0.4125520000000  0.5339950000000  0.5032620000000 1.0
C      1  0.5378230000000  0.5518660000000  0.5536470000000 1.0
C      1  0.4972720000000  0.4986410000000  0.5045350000000 1.0
C      1  0.4996320000000  0.5506420000000  0.4621120000000 1.0
C      1  0.5921830000000  0.5048900000000  0.5200780000000 1.0
C      1  0.5415290000000  0.5322490000000  0.5362440000000 1.0
C      1  0.5301030000000  0.5912040000000  0.5883240000000 1.0
C      1  0.5669470000000  0.4944620000000  0.5181760000000 1.0
C      1  0.4767800000000  0.5034210000000  0.4848070000000 1.0
C      1  0.4854820000000  0.5051920000000  0.4574910000000 1.0
C      1  0.5023690000000  0.4280240000000  0.4918180000000 1.0
C      1  0.5055210000000  0.4564860000000  0.5319630000000 1.0
C      1  0.5430940000000  0.4602500000000  0.4701910000000 1.0
C      1  0.5242620000000  0.5071290000000  0.4982530000000 1.0
C      1  0.4507650000000  0.4384810000000  0.4992810000000 1.0
C      1  0.5629230000000  0.4663770000000  0.5156460000000 1.0
C      1  0.4282590000000  0.5569230000000  0.4945610000000 1.0
C      1  0.5309920000000  0.4823990000000  0.4291630000000 1.0
C      1  0.4938190000000  0.4814730000000  0.5264270000000 1.0
C      1  0.5339650000000  0.5715320000000  0.5709840000000 1.0
C      1  0.4545290000000  0.5189030000000  0.4914370000000 1.0
C      1  0.5392110000000  0.4851800000000  0.4563880000000 1.0
END
