TITL C-3623284-6838-1473 0.0639479649835862 125000 -560.888606122858 0 0 93 (C1) n - 1
REM
REM in /home/nfs/bkarasulu/CARBON/AIRSS/Generating-Clusters/LCBOP/Higher-Symm/SD-CG/FIRE-CG
REM
REM
REM
REM
REM
REM ./C.cell (b20cbc046b6831c77cfcea5457e17084)
REM AIRSS Version 0.9.1 bugfix July 2018 build 013d7b7c2542+ Fri, 06 Jul 2018 19:26:36 +0100
REM compiler GCC version 9.2.1 20190827 (Red Hat 9.2.1-1)
REM options -cpp -mtune=generic -march=x86-64 -g -O0 -fpre-include=/usr/include/finclude/math-vector-fortran.h
REM seed -773688150 1378049694 979832298 1095605281 -1504892599 2009637510 512645321 -854468328 1957824529 -1935835036 -1997916098 1791727937 615228413 1024551422 528505397 166928611 1889799380 16578141 69772070 536448719 -851703131 -1399742572 1037298485 1045822080 1885761309 -1713694980 1674655601 133434132 1315749833 -1873014963 219771153 633174274 -1121544438
REM
CELL 1.54180   50.00000   50.00000   50.00000   90.00000   90.00000   90.00000
LATT -1
SFAC C  
C      1  0.5485330000000  0.4747140000000  0.4949040000000 1.0
C      1  0.5172660000000  0.5751270000000  0.4367450000000 1.0
C      1  0.4207750000000  0.5420690000000  0.4620040000000 1.0
C      1  0.5771500000000  0.5184000000000  0.5007840000000 1.0
C      1  0.4759170000000  0.4995360000000  0.5391070000000 1.0
C      1  0.5418160000000  0.5268180000000  0.4226690000000 1.0
C      1  0.5644450000000  0.5622040000000  0.5187030000000 1.0
C      1  0.4600600000000  0.4363740000000  0.5617330000000 1.0
C      1  0.5014840000000  0.4850490000000  0.4966980000000 1.0
C      1  0.4668640000000  0.5116310000000  0.4572610000000 1.0
C      1  0.4170220000000  0.5200130000000  0.4814970000000 1.0
C      1  0.5753470000000  0.5275080000000  0.5274600000000 1.0
C      1  0.5341900000000  0.4609790000000  0.4016450000000 1.0
C      1  0.4637120000000  0.5783430000000  0.4584030000000 1.0
C      1  0.4636540000000  0.5946080000000  0.4826670000000 1.0
C      1  0.4320150000000  0.4733850000000  0.5027860000000 1.0
C      1  0.5676030000000  0.5065050000000  0.5460430000000 1.0
C      1  0.5248910000000  0.4136460000000  0.4451530000000 1.0
C      1  0.4617760000000  0.5329140000000  0.4748750000000 1.0
C      1  0.5203310000000  0.5920700000000  0.5269360000000 1.0
C      1  0.4833350000000  0.4137900000000  0.3814430000000 1.0
C      1  0.4112010000000  0.5091370000000  0.5290580000000 1.0
C      1  0.5578030000000  0.4518400000000  0.4435030000000 1.0
C      1  0.5581440000000  0.5322950000000  0.4845480000000 1.0
C      1  0.5088880000000  0.4783310000000  0.5828150000000 1.0
C      1  0.4575390000000  0.4576160000000  0.5006560000000 1.0
C      1  0.5478680000000  0.5002350000000  0.4258850000000 1.0
C      1  0.4957010000000  0.5163240000000  0.5508550000000 1.0
C      1  0.5391740000000  0.5018350000000  0.5500500000000 1.0
C      1  0.3913000000000  0.5106700000000  0.5478080000000 1.0
C      1  0.5202070000000  0.5179700000000  0.5348940000000 1.0
C      1  0.5185370000000  0.4503180000000  0.3830690000000 1.0
C      1  0.5728590000000  0.4598200000000  0.4975090000000 1.0
C      1  0.4614650000000  0.4642920000000  0.5642790000000 1.0
C      1  0.5119190000000  0.5221430000000  0.6001220000000 1.0
C      1  0.4811450000000  0.5719870000000  0.5169500000000 1.0
C      1  0.4884850000000  0.6095620000000  0.4886580000000 1.0
C      1  0.5920250000000  0.4610290000000  0.4771920000000 1.0
C      1  0.4648540000000  0.4258320000000  0.5360810000000 1.0
C      1  0.5554820000000  0.5805970000000  0.4707330000000 1.0
C      1  0.4147560000000  0.5303630000000  0.5089850000000 1.0
C      1  0.4883450000000  0.5803460000000  0.4419470000000 1.0
C      1  0.5448470000000  0.4293120000000  0.4578520000000 1.0
C      1  0.5169960000000  0.4956960000000  0.6045750000000 1.0
C      1  0.4698840000000  0.4337870000000  0.5096760000000 1.0
C      1  0.5378370000000  0.5880610000000  0.4516260000000 1.0
C      1  0.4636030000000  0.5611380000000  0.5700590000000 1.0
C      1  0.5104660000000  0.5428620000000  0.4791550000000 1.0
C      1  0.4921390000000  0.4235130000000  0.4945520000000 1.0
C      1  0.5309110000000  0.5250740000000  0.4882710000000 1.0
C      1  0.5556160000000  0.4590580000000  0.5546220000000 1.0
C      1  0.4541780000000  0.4199140000000  0.5833900000000 1.0
C      1  0.5167370000000  0.5083310000000  0.5068380000000 1.0
C      1  0.5846650000000  0.4569050000000  0.4515140000000 1.0
C      1  0.4769560000000  0.3990380000000  0.4027330000000 1.0
C      1  0.5399680000000  0.5708470000000  0.5305330000000 1.0
C      1  0.4816560000000  0.5803070000000  0.5634130000000 1.0
C      1  0.4787030000000  0.4809930000000  0.5801470000000 1.0
C      1  0.4927650000000  0.5508540000000  0.5009110000000 1.0
C      1  0.4488920000000  0.4049020000000  0.6040270000000 1.0
C      1  0.4944960000000  0.5842630000000  0.5388140000000 1.0
C      1  0.5066090000000  0.5350470000000  0.4515860000000 1.0
C      1  0.4298850000000  0.4921910000000  0.4798840000000 1.0
C      1  0.4991990000000  0.4029120000000  0.4500830000000 1.0
C      1  0.4567010000000  0.5352860000000  0.5590040000000 1.0
C      1  0.5169880000000  0.4370880000000  0.4948540000000 1.0
C      1  0.4543560000000  0.5793090000000  0.5064050000000 1.0
C      1  0.4293670000000  0.4864230000000  0.5280920000000 1.0
C      1  0.4895070000000  0.5151660000000  0.4424160000000 1.0
C      1  0.5775660000000  0.4796360000000  0.5521780000000 1.0
C      1  0.4610230000000  0.5114910000000  0.5781450000000 1.0
C      1  0.4473240000000  0.5541670000000  0.4618800000000 1.0
C      1  0.5432540000000  0.4263900000000  0.4876250000000 1.0
C      1  0.5214360000000  0.4651860000000  0.4955380000000 1.0
C      1  0.4550220000000  0.5360160000000  0.5283440000000 1.0
C      1  0.5313090000000  0.4757690000000  0.5625290000000 1.0
C      1  0.5119280000000  0.6077520000000  0.5034710000000 1.0
C      1  0.4891700000000  0.4012590000000  0.4768520000000 1.0
C      1  0.5631050000000  0.5610180000000  0.4894070000000 1.0
C      1  0.4529240000000  0.4827280000000  0.5435680000000 1.0
C      1  0.4336240000000  0.5526350000000  0.5168280000000 1.0
C      1  0.5629820000000  0.4344760000000  0.5082950000000 1.0
C      1  0.4997560000000  0.4335860000000  0.3744230000000 1.0
C      1  0.4832300000000  0.3954300000000  0.4283600000000 1.0
C      1  0.4568310000000  0.4888570000000  0.4682290000000 1.0
C      1  0.4753200000000  0.4764910000000  0.4869250000000 1.0
C      1  0.5236580000000  0.5467980000000  0.4323260000000 1.0
C      1  0.5006940000000  0.5291450000000  0.5764030000000 1.0
C      1  0.5277690000000  0.5466230000000  0.5387410000000 1.0
C      1  0.4709030000000  0.5318490000000  0.5026610000000 1.0
C      1  0.5462990000000  0.4713230000000  0.4248670000000 1.0
C      1  0.5576020000000  0.4367490000000  0.5365410000000 1.0
C      1  0.4774640000000  0.3781270000000  0.4857210000000 1.0
END
