TITL C-3623283-6828-204 -1.56689585463501e-06 125000 -759.719479613706 0 0 123 (C1) n - 1
REM
REM in /home/nfs/bkarasulu/CARBON/AIRSS/Generating-Clusters/LCBOP/Higher-Symm/SD-CG/FIRE-CG
REM
REM
REM
REM
REM
REM ./C.cell (b20cbc046b6831c77cfcea5457e17084)
REM AIRSS Version 0.9.1 bugfix July 2018 build 013d7b7c2542+ Fri, 06 Jul 2018 19:26:36 +0100
REM compiler GCC version 9.2.1 20190827 (Red Hat 9.2.1-1)
REM options -cpp -mtune=generic -march=x86-64 -g -O0 -fpre-include=/usr/include/finclude/math-vector-fortran.h
REM seed -1210631181 1312056714 -2115396810 -1377346931 -1651582381 -281744399 -724550085 -191317929 555503868 816435273 1934994375 214033869 1560054443 -1945707570 647959074 879880031 -483421857 504604029 -605027908 -862227220 566879216 1176185621 -1977274028 -2025867647 -2112393780 -1487169832 1836692376 190447153 -1895784927 2024218326 1077138682 -1075009950 2097320423
REM
CELL 1.54180   50.00000   50.00000   50.00000   90.00000   90.00000   90.00000
LATT -1
SFAC C  
C      1  0.4138090000000  0.5377560000000  0.5368120000000 1.0
C      1  0.5388540000000  0.5871090000000  0.4631340000000 1.0
C      1  0.5857820000000  0.4622390000000  0.5364670000000 1.0
C      1  0.4605070000000  0.4131550000000  0.4637830000000 1.0
C      1  0.4768280000000  0.5135430000000  0.4512640000000 1.0
C      1  0.5122240000000  0.5213390000000  0.5459360000000 1.0
C      1  0.5227000000000  0.4882310000000  0.4521770000000 1.0
C      1  0.4819160000000  0.4787390000000  0.5448460000000 1.0
C      1  0.5321710000000  0.4510350000000  0.5332010000000 1.0
C      1  0.4414250000000  0.4639280000000  0.4685550000000 1.0
C      1  0.4635640000000  0.5549740000000  0.5299090000000 1.0
C      1  0.5565860000000  0.5368720000000  0.4698850000000 1.0
C      1  0.4084860000000  0.5327320000000  0.4661360000000 1.0
C      1  0.5316140000000  0.5906000000000  0.5327300000000 1.0
C      1  0.5908530000000  0.4686270000000  0.4670150000000 1.0
C      1  0.4656510000000  0.4102770000000  0.5319030000000 1.0
C      1  0.5672080000000  0.5351010000000  0.4311440000000 1.0
C      1  0.5362630000000  0.4246080000000  0.5785390000000 1.0
C      1  0.4318060000000  0.4666380000000  0.4296410000000 1.0
C      1  0.4660180000000  0.5647400000000  0.5687770000000 1.0
C      1  0.4795950000000  0.4183510000000  0.5089380000000 1.0
C      1  0.4140650000000  0.5196710000000  0.4904220000000 1.0
C      1  0.5188670000000  0.5844900000000  0.5084520000000 1.0
C      1  0.5842990000000  0.4813110000000  0.4912160000000 1.0
C      1  0.4579070000000  0.5067090000000  0.4311860000000 1.0
C      1  0.5067050000000  0.5397820000000  0.5668880000000 1.0
C      1  0.5416470000000  0.4947060000000  0.4319920000000 1.0
C      1  0.4787290000000  0.4617010000000  0.5669490000000 1.0
C      1  0.4662670000000  0.4706220000000  0.5233740000000 1.0
C      1  0.4683300000000  0.5312470000000  0.4710830000000 1.0
C      1  0.5304670000000  0.5294500000000  0.5265110000000 1.0
C      1  0.5311980000000  0.4711950000000  0.4725290000000 1.0
C      1  0.5152160000000  0.5856530000000  0.4444920000000 1.0
C      1  0.5868050000000  0.4856470000000  0.5550260000000 1.0
C      1  0.4846980000000  0.4154130000000  0.4459100000000 1.0
C      1  0.4159850000000  0.5138980000000  0.5553720000000 1.0
C      1  0.5814800000000  0.4138920000000  0.5160700000000 1.0
C      1  0.4146910000000  0.4140500000000  0.4900280000000 1.0
C      1  0.4170520000000  0.5856510000000  0.5138310000000 1.0
C      1  0.5861670000000  0.5844850000000  0.4867990000000 1.0
C      1  0.5998290000000  0.5726440000000  0.5074110000000 1.0
C      1  0.5696870000000  0.3996280000000  0.4960130000000 1.0
C      1  0.4021750000000  0.4253980000000  0.5116450000000 1.0
C      1  0.4287770000000  0.5996540000000  0.4932630000000 1.0
C      1  0.4654740000000  0.4574410000000  0.4802020000000 1.0
C      1  0.4557610000000  0.5328750000000  0.5157170000000 1.0
C      1  0.5335510000000  0.5441350000000  0.4828830000000 1.0
C      1  0.5427260000000  0.4709620000000  0.5171920000000 1.0
C      1  0.5820560000000  0.5262610000000  0.4721680000000 1.0
C      1  0.5222600000000  0.4249020000000  0.5322550000000 1.0
C      1  0.4159550000000  0.4748660000000  0.4705850000000 1.0
C      1  0.4742410000000  0.5804840000000  0.5278370000000 1.0
C      1  0.5191970000000  0.5347880000000  0.4159480000000 1.0
C      1  0.5402130000000  0.4771750000000  0.5862190000000 1.0
C      1  0.4805210000000  0.4661100000000  0.4163900000000 1.0
C      1  0.4674940000000  0.5164780000000  0.5831400000000 1.0
C      1  0.4555410000000  0.4789890000000  0.4230730000000 1.0
C      1  0.4793450000000  0.5416760000000  0.5759510000000 1.0
C      1  0.5439790000000  0.5223380000000  0.4236880000000 1.0
C      1  0.5398600000000  0.4488940000000  0.5892510000000 1.0
C      1  0.4361700000000  0.5245500000000  0.4269770000000 1.0
C      1  0.5243520000000  0.5616520000000  0.5710390000000 1.0
C      1  0.5634390000000  0.4769450000000  0.4278200000000 1.0
C      1  0.4697510000000  0.4368430000000  0.5720210000000 1.0
C      1  0.5178550000000  0.4231980000000  0.4814820000000 1.0
C      1  0.4173560000000  0.4820150000000  0.5186610000000 1.0
C      1  0.4819950000000  0.5791480000000  0.4790940000000 1.0
C      1  0.5799940000000  0.5182530000000  0.5204160000000 1.0
C      1  0.4105440000000  0.5240450000000  0.4392430000000 1.0
C      1  0.5230110000000  0.5876000000000  0.5595010000000 1.0
C      1  0.5889880000000  0.4776840000000  0.4402500000000 1.0
C      1  0.4732410000000  0.4119520000000  0.5590700000000 1.0
C      1  0.5671690000000  0.5918140000000  0.4681360000000 1.0
C      1  0.5893340000000  0.4337060000000  0.5334010000000 1.0
C      1  0.4328020000000  0.4071090000000  0.4703260000000 1.0
C      1  0.4096790000000  0.5664500000000  0.5324210000000 1.0
C      1  0.6031150000000  0.5019500000000  0.4351610000000 1.0
C      1  0.4977190000000  0.3988590000000  0.5648610000000 1.0
C      1  0.3960750000000  0.5001190000000  0.4335560000000 1.0
C      1  0.4985900000000  0.6011510000000  0.5652850000000 1.0
C      1  0.5576270000000  0.5325230000000  0.5285210000000 1.0
C      1  0.5341870000000  0.4438860000000  0.4724480000000 1.0
C      1  0.4393750000000  0.4656710000000  0.5231770000000 1.0
C      1  0.4655130000000  0.5584660000000  0.4705420000000 1.0
C      1  0.4780340000000  0.4749700000000  0.4980280000000 1.0
C      1  0.4727600000000  0.5209750000000  0.4972120000000 1.0
C      1  0.5207720000000  0.5272200000000  0.5005640000000 1.0
C      1  0.5265950000000  0.4818380000000  0.4977370000000 1.0
C      1  0.5906400000000  0.5256230000000  0.4439180000000 1.0
C      1  0.5218520000000  0.4117960000000  0.5578720000000 1.0
C      1  0.4081080000000  0.4761310000000  0.4420650000000 1.0
C      1  0.4750850000000  0.5885580000000  0.5563040000000 1.0
C      1  0.5323590000000  0.3874970000000  0.4593070000000 1.0
C      1  0.3908420000000  0.4632520000000  0.5486410000000 1.0
C      1  0.4660740000000  0.6132970000000  0.4561590000000 1.0
C      1  0.6133740000000  0.5350440000000  0.5439400000000 1.0
C      1  0.5707150000000  0.4700310000000  0.5131150000000 1.0
C      1  0.4682710000000  0.4299820000000  0.4860610000000 1.0
C      1  0.4278970000000  0.5302890000000  0.5125120000000 1.0
C      1  0.5309410000000  0.5719420000000  0.4865320000000 1.0
C      1  0.5543660000000  0.3889150000000  0.4760610000000 1.0
C      1  0.3928770000000  0.4405140000000  0.5326410000000 1.0
C      1  0.4439890000000  0.6107000000000  0.4731170000000 1.0
C      1  0.6106600000000  0.5573180000000  0.5274560000000 1.0
C      1  0.5152080000000  0.4907660000000  0.5926400000000 1.0
C      1  0.4972740000000  0.4867350000000  0.4040820000000 1.0
C      1  0.4887780000000  0.4989470000000  0.5935190000000 1.0
C      1  0.5027290000000  0.5139130000000  0.4037810000000 1.0
C      1  0.5098100000000  0.4057620000000  0.4594960000000 1.0
C      1  0.4044430000000  0.4886530000000  0.5436530000000 1.0
C      1  0.4897470000000  0.5960970000000  0.4569390000000 1.0
C      1  0.5969420000000  0.5109840000000  0.5426400000000 1.0
C      1  0.4854080000000  0.4390040000000  0.4272740000000 1.0
C      1  0.4398650000000  0.5122970000000  0.5733190000000 1.0
C      1  0.5142910000000  0.5620600000000  0.4260880000000 1.0
C      1  0.5647430000000  0.4870990000000  0.5742390000000 1.0
C      1  0.4905630000000  0.5851640000000  0.5056030000000 1.0
C      1  0.5863110000000  0.5095710000000  0.4941200000000 1.0
C      1  0.5081070000000  0.4188530000000  0.5081570000000 1.0
C      1  0.4110140000000  0.4914350000000  0.4927330000000 1.0
C      1  0.4974650000000  0.5000600000000  0.5366210000000 1.0
C      1  0.4995580000000  0.5007980000000  0.4600870000000 1.0
C      1  0.4962840000000  0.5008350000000  0.4982830000000 1.0
END
