TITL C-3623285-6872-660 -8.15732812658244e-07 125000 -760.458682430684 0 0 122 (C1) n - 1
REM
REM in /home/nfs/bkarasulu/CARBON/AIRSS/Generating-Clusters/LCBOP/Higher-Symm/SD-CG/FIRE-CG
REM
REM
REM
REM
REM
REM ./C.cell (b20cbc046b6831c77cfcea5457e17084)
REM AIRSS Version 0.9.1 bugfix July 2018 build 013d7b7c2542+ Fri, 06 Jul 2018 19:26:36 +0100
REM compiler GCC version 9.2.1 20190827 (Red Hat 9.2.1-1)
REM options -cpp -mtune=generic -march=x86-64 -g -O0 -fpre-include=/usr/include/finclude/math-vector-fortran.h
REM seed 324821936 1391154640 -1794412413 1075546526 1586219348 652538064 2034521818 1487536398 -1515432769 687646847 -696313216 -937131960 -1073857594 656565188 -1483029462 -174035944 429146925 1569402691 199423147 675702566 447125543 1952346195 -1975279399 1278069833 -2060621013 -16682205 -1581547495 130544758 1862922012 1823874534 723490644 1078049688 -585081995
REM
CELL 1.54180   50.00000   50.00000   50.00000   90.00000   90.00000   90.00000
LATT -1
SFAC C  
C      1  0.4575970000000  0.4268310000000  0.4265670000000 1.0
C      1  0.4633240000000  0.5719150000000  0.5742210000000 1.0
C      1  0.4647060000000  0.4270230000000  0.5758790000000 1.0
C      1  0.4571230000000  0.5727830000000  0.4272750000000 1.0
C      1  0.5088910000000  0.5245460000000  0.6041150000000 1.0
C      1  0.5011010000000  0.4751990000000  0.3942440000000 1.0
C      1  0.5004360000000  0.5248440000000  0.3940890000000 1.0
C      1  0.5099240000000  0.4756860000000  0.6040190000000 1.0
C      1  0.5079830000000  0.5712150000000  0.4428670000000 1.0
C      1  0.5127930000000  0.4315860000000  0.5566760000000 1.0
C      1  0.5123590000000  0.5685170000000  0.5567400000000 1.0
C      1  0.5080180000000  0.4288820000000  0.4430270000000 1.0
C      1  0.4065130000000  0.5133670000000  0.5347100000000 1.0
C      1  0.4004500000000  0.4859570000000  0.4714740000000 1.0
C      1  0.4045160000000  0.5136590000000  0.4675060000000 1.0
C      1  0.4016560000000  0.4857250000000  0.5310660000000 1.0
C      1  0.5319660000000  0.5475110000000  0.5572530000000 1.0
C      1  0.5276830000000  0.4481310000000  0.4349450000000 1.0
C      1  0.5277500000000  0.5521260000000  0.4344450000000 1.0
C      1  0.5319870000000  0.4528810000000  0.5566910000000 1.0
C      1  0.4664730000000  0.5898050000000  0.4752920000000 1.0
C      1  0.4659370000000  0.4113590000000  0.5264040000000 1.0
C      1  0.4660800000000  0.5896610000000  0.5261620000000 1.0
C      1  0.4661880000000  0.4110640000000  0.4754610000000 1.0
C      1  0.4988300000000  0.5143060000000  0.4512500000000 1.0
C      1  0.4985760000000  0.4863360000000  0.5438480000000 1.0
C      1  0.4989100000000  0.5141650000000  0.5440230000000 1.0
C      1  0.4985250000000  0.4861880000000  0.4515060000000 1.0
C      1  0.4593560000000  0.4845280000000  0.4177550000000 1.0
C      1  0.4654830000000  0.5146060000000  0.5825410000000 1.0
C      1  0.4659110000000  0.4844750000000  0.5835750000000 1.0
C      1  0.4591690000000  0.5150690000000  0.4185220000000 1.0
C      1  0.5428510000000  0.4198100000000  0.4859280000000 1.0
C      1  0.5419610000000  0.5817730000000  0.5165040000000 1.0
C      1  0.5418390000000  0.4183750000000  0.5164000000000 1.0
C      1  0.5430680000000  0.5804140000000  0.4859370000000 1.0
C      1  0.5008560000000  0.5470200000000  0.5122190000000 1.0
C      1  0.5020790000000  0.4564220000000  0.4862810000000 1.0
C      1  0.5038370000000  0.5437680000000  0.4861110000000 1.0
C      1  0.4989730000000  0.4533170000000  0.5124060000000 1.0
C      1  0.5952740000000  0.5574970000000  0.4918020000000 1.0
C      1  0.5913270000000  0.4420290000000  0.5215580000000 1.0
C      1  0.5914370000000  0.5579830000000  0.5216530000000 1.0
C      1  0.5951230000000  0.4425910000000  0.4917110000000 1.0
C      1  0.4342080000000  0.4706730000000  0.4233500000000 1.0
C      1  0.4404950000000  0.5278640000000  0.5741460000000 1.0
C      1  0.4408500000000  0.4704210000000  0.5777820000000 1.0
C      1  0.4343060000000  0.5285770000000  0.4264380000000 1.0
C      1  0.5713540000000  0.5717720000000  0.4784840000000 1.0
C      1  0.5675650000000  0.4262660000000  0.5285610000000 1.0
C      1  0.5676580000000  0.5737400000000  0.5286770000000 1.0
C      1  0.5711330000000  0.4284100000000  0.4783950000000 1.0
C      1  0.4370780000000  0.4537690000000  0.4768850000000 1.0
C      1  0.4382020000000  0.5469120000000  0.5226930000000 1.0
C      1  0.4370500000000  0.4539860000000  0.5231200000000 1.0
C      1  0.4382380000000  0.5470070000000  0.4770040000000 1.0
C      1  0.4902560000000  0.4392850000000  0.5742570000000 1.0
C      1  0.4833630000000  0.5614100000000  0.4273710000000 1.0
C      1  0.4836430000000  0.4385220000000  0.4272620000000 1.0
C      1  0.4893030000000  0.5603820000000  0.5737230000000 1.0
C      1  0.4587110000000  0.4726060000000  0.4839150000000 1.0
C      1  0.4592360000000  0.5286510000000  0.5138830000000 1.0
C      1  0.4577620000000  0.4726380000000  0.5141900000000 1.0
C      1  0.4601690000000  0.5286230000000  0.4839210000000 1.0
C      1  0.4854770000000  0.5285520000000  0.4713230000000 1.0
C      1  0.4824910000000  0.4708530000000  0.5271250000000 1.0
C      1  0.4837480000000  0.5301530000000  0.5269160000000 1.0
C      1  0.4843180000000  0.4722830000000  0.4713860000000 1.0
C      1  0.6139190000000  0.5139280000000  0.5501510000000 1.0
C      1  0.6309270000000  0.4860110000000  0.4884480000000 1.0
C      1  0.6309780000000  0.5139760000000  0.4884710000000 1.0
C      1  0.6138770000000  0.4859710000000  0.5501270000000 1.0
C      1  0.4197940000000  0.4848930000000  0.5667370000000 1.0
C      1  0.4143940000000  0.5134120000000  0.4393390000000 1.0
C      1  0.4132620000000  0.4856700000000  0.4336210000000 1.0
C      1  0.4202930000000  0.5127430000000  0.5613320000000 1.0
C      1  0.6094170000000  0.5324510000000  0.4810510000000 1.0
C      1  0.5977400000000  0.4682290000000  0.5337600000000 1.0
C      1  0.5978650000000  0.5317420000000  0.5337790000000 1.0
C      1  0.6093090000000  0.4676150000000  0.4810090000000 1.0
C      1  0.5376340000000  0.5145530000000  0.5189230000000 1.0
C      1  0.5450230000000  0.4860990000000  0.4568550000000 1.0
C      1  0.5452000000000  0.5141600000000  0.4566480000000 1.0
C      1  0.5373930000000  0.4857410000000  0.5186770000000 1.0
C      1  0.4131810000000  0.5331390000000  0.5155350000000 1.0
C      1  0.4115320000000  0.4651000000000  0.4860200000000 1.0
C      1  0.4133200000000  0.5334290000000  0.4857850000000 1.0
C      1  0.4113110000000  0.4650700000000  0.5152780000000 1.0
C      1  0.5898250000000  0.5148200000000  0.4689610000000 1.0
C      1  0.5813470000000  0.4859780000000  0.5184550000000 1.0
C      1  0.5815040000000  0.5140390000000  0.5183750000000 1.0
C      1  0.5897470000000  0.4853090000000  0.4689720000000 1.0
C      1  0.4930630000000  0.5929500000000  0.4862500000000 1.0
C      1  0.4926520000000  0.4074450000000  0.5159400000000 1.0
C      1  0.4928690000000  0.5930650000000  0.5158080000000 1.0
C      1  0.4927670000000  0.4075240000000  0.4863740000000 1.0
C      1  0.4883510000000  0.5335070000000  0.5869410000000 1.0
C      1  0.4822120000000  0.4655970000000  0.4131560000000 1.0
C      1  0.4817140000000  0.5343140000000  0.4132450000000 1.0
C      1  0.4892790000000  0.4662200000000  0.5872670000000 1.0
C      1  0.5588490000000  0.5246540000000  0.5034990000000 1.0
C      1  0.5631050000000  0.4759200000000  0.4751770000000 1.0
C      1  0.5631930000000  0.5242950000000  0.4751250000000 1.0
C      1  0.5586970000000  0.4755020000000  0.5034860000000 1.0
C      1  0.5241710000000  0.5260510000000  0.4436400000000 1.0
C      1  0.5255660000000  0.4757020000000  0.5421430000000 1.0
C      1  0.5261430000000  0.5244610000000  0.5427320000000 1.0
C      1  0.5238160000000  0.4740920000000  0.4442760000000 1.0
C      1  0.4446990000000  0.5741520000000  0.5151900000000 1.0
C      1  0.4446480000000  0.4267690000000  0.4857490000000 1.0
C      1  0.4449120000000  0.5741220000000  0.4855640000000 1.0
C      1  0.4445000000000  0.4268150000000  0.5154480000000 1.0
C      1  0.4411040000000  0.5562420000000  0.5755370000000 1.0
C      1  0.4354650000000  0.4423250000000  0.4232910000000 1.0
C      1  0.4350460000000  0.5569540000000  0.4252910000000 1.0
C      1  0.4422400000000  0.4420990000000  0.5785930000000 1.0
C      1  0.5160420000000  0.5848830000000  0.5316080000000 1.0
C      1  0.5158150000000  0.4160780000000  0.4699260000000 1.0
C      1  0.5160250000000  0.5841470000000  0.4697800000000 1.0
C      1  0.5160340000000  0.4153500000000  0.5315480000000 1.0
C      1  0.5080390000000  0.5000970000000  0.3865950000000 1.0
C      1  0.5180580000000  0.5002880000000  0.6110490000000 1.0
END
