TITL C-3623284-6838-1876 -0.00485911859856869 125000 -294.30784124347 0 0 49 (C1) n - 1
REM
REM in /home/nfs/bkarasulu/CARBON/AIRSS/Generating-Clusters/LCBOP/Higher-Symm/SD-CG/FIRE-CG
REM
REM
REM
REM
REM
REM ./C.cell (b20cbc046b6831c77cfcea5457e17084)
REM AIRSS Version 0.9.1 bugfix July 2018 build 013d7b7c2542+ Fri, 06 Jul 2018 19:26:36 +0100
REM compiler GCC version 9.2.1 20190827 (Red Hat 9.2.1-1)
REM options -cpp -mtune=generic -march=x86-64 -g -O0 -fpre-include=/usr/include/finclude/math-vector-fortran.h
REM seed 1228533186 -2069328426 1480817982 -1846039451 -1989550519 1018077168 -1342018909 -365080821 1568796535 -1834353097 395572704 -1961058049 700317390 571167006 -854076448 -2080781120 -1456686140 2079524695 1959583520 949990687 1260277967 1448112853 -94703199 937416513 2034379793 810191409 -308482078 1761035670 739844432 2045274138 -10591141 -2081208155 1600874697
REM
CELL 1.54180   50.00000   50.00000   50.00000   90.00000   90.00000   90.00000
LATT -1
SFAC C  
C      1  0.5568860000000  0.5393890000000  0.5356230000000 1.0
C      1  0.5255850000000  0.4489150000000  0.5293590000000 1.0
C      1  0.5478430000000  0.4828520000000  0.4973860000000 1.0
C      1  0.5097810000000  0.5463390000000  0.4360240000000 1.0
C      1  0.5459090000000  0.6152790000000  0.5602840000000 1.0
C      1  0.6058510000000  0.5363040000000  0.5351800000000 1.0
C      1  0.5274920000000  0.4945630000000  0.4815170000000 1.0
C      1  0.4979340000000  0.4159410000000  0.4984830000000 1.0
C      1  0.4949260000000  0.5051570000000  0.5594180000000 1.0
C      1  0.5162790000000  0.5199190000000  0.4760640000000 1.0
C      1  0.4626230000000  0.5227370000000  0.5286410000000 1.0
C      1  0.5751960000000  0.5377210000000  0.4738460000000 1.0
C      1  0.4504580000000  0.4242930000000  0.4812390000000 1.0
C      1  0.4386330000000  0.5262700000000  0.5144740000000 1.0
C      1  0.5137180000000  0.4834430000000  0.5604300000000 1.0
C      1  0.4890880000000  0.5319430000000  0.5206390000000 1.0
C      1  0.4676110000000  0.3792290000000  0.4880840000000 1.0
C      1  0.4339360000000  0.4949650000000  0.4215460000000 1.0
C      1  0.5375480000000  0.4922670000000  0.5440210000000 1.0
C      1  0.5272280000000  0.5365590000000  0.4555200000000 1.0
C      1  0.4475280000000  0.5168560000000  0.4129740000000 1.0
C      1  0.5108260000000  0.4557560000000  0.5533790000000 1.0
C      1  0.5185650000000  0.4277070000000  0.5129500000000 1.0
C      1  0.5534780000000  0.5657330000000  0.5444580000000 1.0
C      1  0.6285810000000  0.5400810000000  0.5473520000000 1.0
C      1  0.4670750000000  0.5069100000000  0.5524810000000 1.0
C      1  0.5735350000000  0.4941190000000  0.4940900000000 1.0
C      1  0.5411560000000  0.4725060000000  0.5228260000000 1.0
C      1  0.4302260000000  0.5059120000000  0.4963760000000 1.0
C      1  0.4843820000000  0.5463910000000  0.4279090000000 1.0
C      1  0.4356440000000  0.5079060000000  0.4683860000000 1.0
C      1  0.5079030000000  0.5262990000000  0.5420070000000 1.0
C      1  0.4193380000000  0.4560610000000  0.5015380000000 1.0
C      1  0.5496880000000  0.5907080000000  0.5524380000000 1.0
C      1  0.4233870000000  0.5486950000000  0.5180940000000 1.0
C      1  0.4473990000000  0.3960320000000  0.4807370000000 1.0
C      1  0.5813260000000  0.5325650000000  0.5224230000000 1.0
C      1  0.5802500000000  0.5215040000000  0.4962570000000 1.0
C      1  0.4190720000000  0.4823570000000  0.5069970000000 1.0
C      1  0.5361960000000  0.5207840000000  0.5396510000000 1.0
C      1  0.4308360000000  0.4869650000000  0.4486500000000 1.0
C      1  0.4486480000000  0.5309640000000  0.4577500000000 1.0
C      1  0.4287060000000  0.4599340000000  0.4556310000000 1.0
C      1  0.4306130000000  0.4439310000000  0.4786880000000 1.0
C      1  0.4981970000000  0.5312270000000  0.4943150000000 1.0
C      1  0.5544350000000  0.5430340000000  0.4577510000000 1.0
C      1  0.4770410000000  0.4322350000000  0.4879750000000 1.0
C      1  0.4594540000000  0.5345580000000  0.4316540000000 1.0
C      1  0.4919870000000  0.3881850000000  0.4964840000000 1.0
END
