TITL C-3623287-7182-1807 -1.63462568196117e-06 125000 -1115.25984036281 0 0 182 (C1) n - 1
REM
REM in /home/nfs/bkarasulu/CARBON/AIRSS/Generating-Clusters/LCBOP/Higher-Symm/SD-CG/FIRE-CG
REM
REM
REM
REM
REM
REM ./C.cell (b20cbc046b6831c77cfcea5457e17084)
REM AIRSS Version 0.9.1 bugfix July 2018 build 013d7b7c2542+ Fri, 06 Jul 2018 19:26:36 +0100
REM compiler GCC version 9.2.1 20190827 (Red Hat 9.2.1-1)
REM options -cpp -mtune=generic -march=x86-64 -g -O0 -fpre-include=/usr/include/finclude/math-vector-fortran.h
REM seed 643766938 -929250481 952991426 -652757567 311025718 -1910901029 1785063035 416272805 -1236826562 1538265087 1718900880 1241700313 -823992498 1820241064 -813732798 -56864015 -865814403 516871596 -343575131 1938609689 -1086629380 -1109440278 2032976984 -433907889 1831092538 739263218 1235876767 -1730751824 -384731593 1701870004 -567890409 -1171456773 1045325334
REM
CELL 1.54180   50.00000   50.00000   50.00000   90.00000   90.00000   90.00000
LATT -1
SFAC C  
C      1  0.4836300000000  0.5900380000000  0.5810640000000 1.0
C      1  0.5006040000000  0.4192490000000  0.4057020000000 1.0
C      1  0.4884460000000  0.4361750000000  0.5073350000000 1.0
C      1  0.5112210000000  0.5781840000000  0.4974270000000 1.0
C      1  0.5725440000000  0.4363410000000  0.4607880000000 1.0
C      1  0.4253810000000  0.5672270000000  0.5367900000000 1.0
C      1  0.5674590000000  0.4722930000000  0.5424320000000 1.0
C      1  0.4293490000000  0.5274550000000  0.4876580000000 1.0
C      1  0.6096800000000  0.4839860000000  0.5044800000000 1.0
C      1  0.3687120000000  0.5217010000000  0.4785200000000 1.0
C      1  0.5945660000000  0.5935100000000  0.5171440000000 1.0
C      1  0.4258800000000  0.3824100000000  0.4915440000000 1.0
C      1  0.6101080000000  0.5649950000000  0.4743320000000 1.0
C      1  0.3861000000000  0.4107550000000  0.5218260000000 1.0
C      1  0.4766220000000  0.5771350000000  0.4194420000000 1.0
C      1  0.5543230000000  0.4398430000000  0.6021140000000 1.0
C      1  0.4157320000000  0.5209540000000  0.5817140000000 1.0
C      1  0.5750630000000  0.4767760000000  0.4068550000000 1.0
C      1  0.5665910000000  0.5906120000000  0.5208470000000 1.0
C      1  0.4524610000000  0.3786210000000  0.4990210000000 1.0
C      1  0.4927030000000  0.5321540000000  0.6253290000000 1.0
C      1  0.4932410000000  0.4857350000000  0.3767390000000 1.0
C      1  0.4810320000000  0.5953130000000  0.4651790000000 1.0
C      1  0.5187980000000  0.3847520000000  0.5185350000000 1.0
C      1  0.5452150000000  0.4067610000000  0.3857480000000 1.0
C      1  0.4352030000000  0.5906620000000  0.5924450000000 1.0
C      1  0.4203460000000  0.5575620000000  0.4375030000000 1.0
C      1  0.6252530000000  0.4507810000000  0.5981020000000 1.0
C      1  0.5431860000000  0.3892040000000  0.5078820000000 1.0
C      1  0.4652630000000  0.6186680000000  0.5104730000000 1.0
C      1  0.4971520000000  0.5354090000000  0.4590620000000 1.0
C      1  0.5194710000000  0.4617630000000  0.5452520000000 1.0
C      1  0.5591220000000  0.5644420000000  0.5318540000000 1.0
C      1  0.4608950000000  0.4182630000000  0.4555500000000 1.0
C      1  0.4264470000000  0.4597280000000  0.5400460000000 1.0
C      1  0.5460780000000  0.5558650000000  0.4539620000000 1.0
C      1  0.4479870000000  0.5055260000000  0.6101680000000 1.0
C      1  0.5636850000000  0.4740830000000  0.3610680000000 1.0
C      1  0.4301150000000  0.4306000000000  0.5400980000000 1.0
C      1  0.5610760000000  0.5803310000000  0.4589870000000 1.0
C      1  0.4710520000000  0.5656340000000  0.5195090000000 1.0
C      1  0.5301730000000  0.4401920000000  0.4843770000000 1.0
C      1  0.5021580000000  0.4639490000000  0.3913760000000 1.0
C      1  0.4884350000000  0.5454840000000  0.6013000000000 1.0
C      1  0.5139830000000  0.5795080000000  0.5434020000000 1.0
C      1  0.4861750000000  0.4226940000000  0.4633760000000 1.0
C      1  0.4985280000000  0.5724210000000  0.5214220000000 1.0
C      1  0.5027540000000  0.4316380000000  0.4841110000000 1.0
C      1  0.4636910000000  0.4880050000000  0.5462740000000 1.0
C      1  0.5250010000000  0.5016460000000  0.4565640000000 1.0
C      1  0.5253040000000  0.5270010000000  0.5695600000000 1.0
C      1  0.4631340000000  0.4758290000000  0.4389730000000 1.0
C      1  0.5966710000000  0.4861690000000  0.3892810000000 1.0
C      1  0.4172510000000  0.4906110000000  0.5797580000000 1.0
C      1  0.4988760000000  0.4433640000000  0.5515740000000 1.0
C      1  0.5164150000000  0.5565700000000  0.4568700000000 1.0
C      1  0.5932100000000  0.5037880000000  0.5756620000000 1.0
C      1  0.4067650000000  0.4846950000000  0.4259560000000 1.0
C      1  0.4230950000000  0.4825020000000  0.4977850000000 1.0
C      1  0.5451610000000  0.5285860000000  0.4982680000000 1.0
C      1  0.4022230000000  0.4855950000000  0.4541370000000 1.0
C      1  0.5903200000000  0.4882080000000  0.5513670000000 1.0
C      1  0.4388520000000  0.5303570000000  0.5978770000000 1.0
C      1  0.5533480000000  0.4676540000000  0.3877100000000 1.0
C      1  0.4518430000000  0.4722980000000  0.4654730000000 1.0
C      1  0.5239640000000  0.5284410000000  0.5414470000000 1.0
C      1  0.3952140000000  0.5040330000000  0.5429890000000 1.0
C      1  0.5743210000000  0.5076000000000  0.4450030000000 1.0
C      1  0.4089190000000  0.4801400000000  0.5540490000000 1.0
C      1  0.5633980000000  0.5323010000000  0.4496810000000 1.0
C      1  0.5634220000000  0.5492590000000  0.5785670000000 1.0
C      1  0.4365260000000  0.4414000000000  0.4217650000000 1.0
C      1  0.4358380000000  0.4215770000000  0.4423610000000 1.0
C      1  0.5760000000000  0.5591720000000  0.5548620000000 1.0
C      1  0.3805460000000  0.5021150000000  0.4634930000000 1.0
C      1  0.6121490000000  0.4891240000000  0.5322260000000 1.0
C      1  0.5311570000000  0.5524590000000  0.3952360000000 1.0
C      1  0.5032160000000  0.4638690000000  0.6065550000000 1.0
C      1  0.4012880000000  0.5523790000000  0.5417730000000 1.0
C      1  0.5890000000000  0.4584050000000  0.4510380000000 1.0
C      1  0.5292020000000  0.4536020000000  0.3898590000000 1.0
C      1  0.4613830000000  0.5469010000000  0.5863970000000 1.0
C      1  0.4380680000000  0.6102400000000  0.5097240000000 1.0
C      1  0.5648350000000  0.3981200000000  0.4944140000000 1.0
C      1  0.4547330000000  0.5372600000000  0.4821720000000 1.0
C      1  0.5455350000000  0.4634520000000  0.5581200000000 1.0
C      1  0.5458020000000  0.4621690000000  0.5862120000000 1.0
C      1  0.4695600000000  0.5509080000000  0.4113730000000 1.0
C      1  0.4119040000000  0.5344500000000  0.4265260000000 1.0
C      1  0.6291810000000  0.4768320000000  0.5946240000000 1.0
C      1  0.4469390000000  0.4746590000000  0.5222740000000 1.0
C      1  0.5284120000000  0.5090530000000  0.4853900000000 1.0
C      1  0.5066990000000  0.6308790000000  0.4826480000000 1.0
C      1  0.5118240000000  0.3652240000000  0.4531000000000 1.0
C      1  0.3915970000000  0.5100660000000  0.5161110000000 1.0
C      1  0.5822920000000  0.4815050000000  0.4978040000000 1.0
C      1  0.5891890000000  0.4846080000000  0.3627030000000 1.0
C      1  0.4419910000000  0.4841480000000  0.5918580000000 1.0
C      1  0.4776090000000  0.5221660000000  0.4748600000000 1.0
C      1  0.5185700000000  0.4724240000000  0.5184610000000 1.0
C      1  0.4152800000000  0.4594320000000  0.4158490000000 1.0
C      1  0.5752930000000  0.5237980000000  0.5854300000000 1.0
C      1  0.5046610000000  0.5788220000000  0.4703510000000 1.0
C      1  0.4797400000000  0.4333980000000  0.5336300000000 1.0
C      1  0.5432310000000  0.5414810000000  0.5236320000000 1.0
C      1  0.4234210000000  0.4747660000000  0.4706910000000 1.0
C      1  0.4656400000000  0.4772170000000  0.4903710000000 1.0
C      1  0.5013210000000  0.5154680000000  0.5302030000000 1.0
C      1  0.3797880000000  0.5530190000000  0.5217600000000 1.0
C      1  0.6152450000000  0.4619220000000  0.4616810000000 1.0
C      1  0.5789250000000  0.4141310000000  0.4775610000000 1.0
C      1  0.4233930000000  0.5920420000000  0.5230620000000 1.0
C      1  0.4525750000000  0.5570870000000  0.5392480000000 1.0
C      1  0.5444770000000  0.4399140000000  0.4598520000000 1.0
C      1  0.4058570000000  0.4162300000000  0.5391070000000 1.0
C      1  0.5890250000000  0.5765150000000  0.4622380000000 1.0
C      1  0.5783320000000  0.4806250000000  0.4349470000000 1.0
C      1  0.4016000000000  0.5286270000000  0.5581410000000 1.0
C      1  0.4061970000000  0.3978950000000  0.4787180000000 1.0
C      1  0.6117420000000  0.5714620000000  0.5227230000000 1.0
C      1  0.5335990000000  0.5520740000000  0.5821630000000 1.0
C      1  0.4625910000000  0.4536600000000  0.4204240000000 1.0
C      1  0.5105280000000  0.4424070000000  0.6234730000000 1.0
C      1  0.5201940000000  0.5769040000000  0.3950320000000 1.0
C      1  0.5266950000000  0.4250660000000  0.3936450000000 1.0
C      1  0.4582820000000  0.5777330000000  0.5863210000000 1.0
C      1  0.5304270000000  0.4540220000000  0.4406910000000 1.0
C      1  0.4634530000000  0.5374890000000  0.5569930000000 1.0
C      1  0.3739690000000  0.5300160000000  0.5053470000000 1.0
C      1  0.6257710000000  0.4736560000000  0.4838270000000 1.0
C      1  0.5309980000000  0.5293840000000  0.4086970000000 1.0
C      1  0.4821770000000  0.4625780000000  0.5884600000000 1.0
C      1  0.4072930000000  0.5100560000000  0.4124120000000 1.0
C      1  0.6186970000000  0.5021200000000  0.5888630000000 1.0
C      1  0.5309770000000  0.6238230000000  0.4726010000000 1.0
C      1  0.4645390000000  0.3912600000000  0.5219330000000 1.0
C      1  0.5486740000000  0.6055230000000  0.4635160000000 1.0
C      1  0.4559070000000  0.4170290000000  0.5349520000000 1.0
C      1  0.6326150000000  0.5247840000000  0.5952990000000 1.0
C      1  0.4032130000000  0.5109180000000  0.3853050000000 1.0
C      1  0.4132850000000  0.4100300000000  0.4543820000000 1.0
C      1  0.6038040000000  0.5591160000000  0.5473120000000 1.0
C      1  0.4760280000000  0.5140940000000  0.5444780000000 1.0
C      1  0.5171710000000  0.4758560000000  0.4484820000000 1.0
C      1  0.4147480000000  0.5080300000000  0.5010730000000 1.0
C      1  0.5640590000000  0.4679650000000  0.5137600000000 1.0
C      1  0.4608240000000  0.5617530000000  0.4937810000000 1.0
C      1  0.5390660000000  0.4590970000000  0.5037430000000 1.0
C      1  0.4626210000000  0.4761590000000  0.5739810000000 1.0
C      1  0.5272880000000  0.5160120000000  0.4315420000000 1.0
C      1  0.5355010000000  0.6225250000000  0.5442300000000 1.0
C      1  0.4828510000000  0.3657480000000  0.4555840000000 1.0
C      1  0.5157850000000  0.6058320000000  0.5539140000000 1.0
C      1  0.4752150000000  0.3799640000000  0.4307540000000 1.0
C      1  0.5073050000000  0.5651290000000  0.5904570000000 1.0
C      1  0.4851220000000  0.4446490000000  0.4056760000000 1.0
C      1  0.4745310000000  0.6211990000000  0.5381610000000 1.0
C      1  0.5203760000000  0.3815990000000  0.4323580000000 1.0
C      1  0.5798400000000  0.4289930000000  0.6006500000000 1.0
C      1  0.4639560000000  0.5866000000000  0.4435640000000 1.0
C      1  0.4977500000000  0.3944840000000  0.4187400000000 1.0
C      1  0.4886830000000  0.6108640000000  0.5612150000000 1.0
C      1  0.5532060000000  0.6145740000000  0.5259030000000 1.0
C      1  0.4686810000000  0.3657530000000  0.4795940000000 1.0
C      1  0.4926180000000  0.3845550000000  0.5252210000000 1.0
C      1  0.4811820000000  0.6175680000000  0.4853550000000 1.0
C      1  0.5058710000000  0.5061610000000  0.6690250000000 1.0
C      1  0.4825430000000  0.5250560000000  0.3435810000000 1.0
C      1  0.4986070000000  0.5884240000000  0.4061620000000 1.0
C      1  0.5348670000000  0.4306660000000  0.6206890000000 1.0
C      1  0.5226420000000  0.5047590000000  0.5863090000000 1.0
C      1  0.4667850000000  0.5012270000000  0.4276220000000 1.0
C      1  0.5077940000000  0.4977720000000  0.5060610000000 1.0
C      1  0.4831020000000  0.4982210000000  0.4896580000000 1.0
C      1  0.4991540000000  0.5199370000000  0.6479390000000 1.0
C      1  0.4875830000000  0.5049630000000  0.3594070000000 1.0
C      1  0.6209800000000  0.5599940000000  0.4986560000000 1.0
C      1  0.3849810000000  0.4056980000000  0.4954170000000 1.0
C      1  0.4671220000000  0.5246690000000  0.4150750000000 1.0
C      1  0.5254360000000  0.4792020000000  0.5972000000000 1.0
C      1  0.4370700000000  0.5772340000000  0.4455930000000 1.0
C      1  0.6061860000000  0.4323110000000  0.5998900000000 1.0
END
