TITL C-3623285-6872-1385 -2.81299751165193e-06 125000 -698.751220600734 0 0 113 (C1) n - 1
REM
REM in /home/nfs/bkarasulu/CARBON/AIRSS/Generating-Clusters/LCBOP/Higher-Symm/SD-CG/FIRE-CG
REM
REM
REM
REM
REM
REM ./C.cell (b20cbc046b6831c77cfcea5457e17084)
REM AIRSS Version 0.9.1 bugfix July 2018 build 013d7b7c2542+ Fri, 06 Jul 2018 19:26:36 +0100
REM compiler GCC version 9.2.1 20190827 (Red Hat 9.2.1-1)
REM options -cpp -mtune=generic -march=x86-64 -g -O0 -fpre-include=/usr/include/finclude/math-vector-fortran.h
REM seed 838869507 -248392118 1021468273 1923272701 330065816 420719347 695574947 1281339044 -2062476056 1214439297 376836487 -1369425712 -1594463095 691130035 203764133 -748785130 -531869691 249545769 2002369613 -854241821 1582997095 -2142134373 841574748 89622957 1669401571 819482955 221751339 651181692 -1342838821 703341702 67929532 -1588236923 -2098879812
REM
CELL 1.54180   50.00000   50.00000   50.00000   90.00000   90.00000   90.00000
LATT -1
SFAC C  
C      1  0.5743230000000  0.5539280000000  0.4639700000000 1.0
C      1  0.4288080000000  0.4509000000000  0.5325750000000 1.0
C      1  0.5510620000000  0.5929330000000  0.4809730000000 1.0
C      1  0.4484380000000  0.4108300000000  0.5177030000000 1.0
C      1  0.4748170000000  0.5325420000000  0.4321720000000 1.0
C      1  0.5273100000000  0.4771990000000  0.5679170000000 1.0
C      1  0.4711400000000  0.4300330000000  0.4315570000000 1.0
C      1  0.5337410000000  0.5633530000000  0.5771870000000 1.0
C      1  0.4818780000000  0.5467370000000  0.6094650000000 1.0
C      1  0.5051450000000  0.3783230000000  0.4290240000000 1.0
C      1  0.5482940000000  0.5293840000000  0.5299800000000 1.0
C      1  0.4493230000000  0.4858030000000  0.4663030000000 1.0
C      1  0.6062460000000  0.5494160000000  0.5132990000000 1.0
C      1  0.3998990000000  0.4588750000000  0.4813840000000 1.0
C      1  0.4815010000000  0.5713780000000  0.4671360000000 1.0
C      1  0.5237380000000  0.4366680000000  0.5330870000000 1.0
C      1  0.4977010000000  0.4696570000000  0.4437470000000 1.0
C      1  0.5038420000000  0.5332830000000  0.5528680000000 1.0
C      1  0.5501560000000  0.5123620000000  0.4853100000000 1.0
C      1  0.4536160000000  0.4906360000000  0.4943910000000 1.0
C      1  0.4962770000000  0.4405130000000  0.4418990000000 1.0
C      1  0.5079660000000  0.5605530000000  0.5623460000000 1.0
C      1  0.4697610000000  0.4263880000000  0.5311470000000 1.0
C      1  0.5338830000000  0.5798280000000  0.4608900000000 1.0
C      1  0.5754750000000  0.4852910000000  0.5267340000000 1.0
C      1  0.4244230000000  0.5256680000000  0.4609430000000 1.0
C      1  0.5449640000000  0.5573310000000  0.5251700000000 1.0
C      1  0.4338350000000  0.3989030000000  0.4595680000000 1.0
C      1  0.4917510000000  0.5447780000000  0.4123910000000 1.0
C      1  0.5059080000000  0.4799150000000  0.5877160000000 1.0
C      1  0.4736630000000  0.5857000000000  0.5190560000000 1.0
C      1  0.5563800000000  0.4352240000000  0.4900190000000 1.0
C      1  0.4976320000000  0.4254980000000  0.5360430000000 1.0
C      1  0.5060470000000  0.5816070000000  0.4568820000000 1.0
C      1  0.4372540000000  0.5758020000000  0.5476870000000 1.0
C      1  0.5687290000000  0.4372200000000  0.4455910000000 1.0
C      1  0.4630720000000  0.4674210000000  0.5072290000000 1.0
C      1  0.5338960000000  0.5323010000000  0.4740740000000 1.0
C      1  0.3997460000000  0.5516480000000  0.5201850000000 1.0
C      1  0.5822730000000  0.4523590000000  0.4884110000000 1.0
C      1  0.5059150000000  0.4691670000000  0.4933490000000 1.0
C      1  0.4975180000000  0.5185810000000  0.5046540000000 1.0
C      1  0.4576620000000  0.4529590000000  0.5305590000000 1.0
C      1  0.5451580000000  0.5537130000000  0.4603020000000 1.0
C      1  0.4450720000000  0.4413910000000  0.4382140000000 1.0
C      1  0.5623540000000  0.5623340000000  0.5666780000000 1.0
C      1  0.5196090000000  0.5400550000000  0.4109470000000 1.0
C      1  0.4810100000000  0.4668870000000  0.5864820000000 1.0
C      1  0.5641850000000  0.5134960000000  0.5799970000000 1.0
C      1  0.4464810000000  0.4891430000000  0.4134000000000 1.0
C      1  0.5750320000000  0.5385970000000  0.5776780000000 1.0
C      1  0.4378770000000  0.4640960000000  0.4216890000000 1.0
C      1  0.4204110000000  0.4754620000000  0.5448380000000 1.0
C      1  0.5817290000000  0.5278710000000  0.4510510000000 1.0
C      1  0.4840250000000  0.3842620000000  0.4133720000000 1.0
C      1  0.5064450000000  0.5321450000000  0.6087980000000 1.0
C      1  0.5747400000000  0.5150070000000  0.5278240000000 1.0
C      1  0.4219340000000  0.4973180000000  0.4628240000000 1.0
C      1  0.4008340000000  0.4894420000000  0.5304980000000 1.0
C      1  0.5995640000000  0.5105790000000  0.4652390000000 1.0
C      1  0.4476920000000  0.5355900000000  0.4743800000000 1.0
C      1  0.5486840000000  0.4767310000000  0.5222400000000 1.0
C      1  0.5289230000000  0.5195850000000  0.5485080000000 1.0
C      1  0.4736690000000  0.4861260000000  0.4488120000000 1.0
C      1  0.4503490000000  0.3867510000000  0.5034790000000 1.0
C      1  0.5356320000000  0.5992600000000  0.5039120000000 1.0
C      1  0.4710380000000  0.4077910000000  0.4141600000000 1.0
C      1  0.5289450000000  0.5490570000000  0.6023980000000 1.0
C      1  0.5605390000000  0.5164870000000  0.4327290000000 1.0
C      1  0.4406890000000  0.4876940000000  0.5624280000000 1.0
C      1  0.4177980000000  0.4371500000000  0.4842590000000 1.0
C      1  0.5869550000000  0.5705570000000  0.5134320000000 1.0
C      1  0.4662300000000  0.5050590000000  0.4276850000000 1.0
C      1  0.5410670000000  0.5023540000000  0.5676680000000 1.0
C      1  0.5414420000000  0.4269560000000  0.5127130000000 1.0
C      1  0.4738880000000  0.5818340000000  0.4925190000000 1.0
C      1  0.6025150000000  0.5016950000000  0.4921090000000 1.0
C      1  0.3959840000000  0.5017710000000  0.5054280000000 1.0
C      1  0.5981120000000  0.5226490000000  0.5121580000000 1.0
C      1  0.4022460000000  0.4869590000000  0.4812980000000 1.0
C      1  0.4650590000000  0.5805150000000  0.5455610000000 1.0
C      1  0.5455260000000  0.4306550000000  0.4619900000000 1.0
C      1  0.5453130000000  0.5334910000000  0.4155090000000 1.0
C      1  0.4551500000000  0.4706590000000  0.5801020000000 1.0
C      1  0.5892720000000  0.4486880000000  0.4601930000000 1.0
C      1  0.4149430000000  0.5662940000000  0.5365040000000 1.0
C      1  0.5068960000000  0.5038880000000  0.6042310000000 1.0
C      1  0.4802320000000  0.5616720000000  0.3940670000000 1.0
C      1  0.4547810000000  0.5122200000000  0.5576260000000 1.0
C      1  0.5460630000000  0.4920250000000  0.4376290000000 1.0
C      1  0.5687680000000  0.5690830000000  0.5377000000000 1.0
C      1  0.4307540000000  0.4272410000000  0.4597960000000 1.0
C      1  0.5270990000000  0.5777830000000  0.5182190000000 1.0
C      1  0.4433150000000  0.3816960000000  0.4779780000000 1.0
C      1  0.4680270000000  0.5474520000000  0.4571230000000 1.0
C      1  0.5320300000000  0.4627390000000  0.5426110000000 1.0
C      1  0.4827500000000  0.5737400000000  0.5673720000000 1.0
C      1  0.5196120000000  0.4234310000000  0.4509400000000 1.0
C      1  0.5283800000000  0.4722750000000  0.4775700000000 1.0
C      1  0.4737550000000  0.5271740000000  0.5168870000000 1.0
C      1  0.4830590000000  0.4545710000000  0.4922170000000 1.0
C      1  0.5083320000000  0.5324780000000  0.4837270000000 1.0
C      1  0.5457480000000  0.4863380000000  0.4943730000000 1.0
C      1  0.4536940000000  0.5196790000000  0.4987050000000 1.0
C      1  0.4727640000000  0.5666130000000  0.5932090000000 1.0
C      1  0.5173960000000  0.3955740000000  0.4455320000000 1.0
C      1  0.4248860000000  0.4294750000000  0.5118640000000 1.0
C      1  0.5761920000000  0.5760390000000  0.4857730000000 1.0
C      1  0.5918320000000  0.4758880000000  0.5031040000000 1.0
C      1  0.3923980000000  0.5296410000000  0.5068880000000 1.0
C      1  0.4764720000000  0.5256170000000  0.5449770000000 1.0
C      1  0.5244240000000  0.4787080000000  0.4502900000000 1.0
C      1  0.5034600000000  0.4919820000000  0.5099980000000 1.0
END
