TITL C-3623285-6872-948 20.2513739376978 125000 -1216.32330240421 0 0 194 (C1) n - 1
REM
REM in /home/nfs/bkarasulu/CARBON/AIRSS/Generating-Clusters/LCBOP/Higher-Symm/SD-CG/FIRE-CG
REM
REM
REM
REM
REM
REM ./C.cell (b20cbc046b6831c77cfcea5457e17084)
REM AIRSS Version 0.9.1 bugfix July 2018 build 013d7b7c2542+ Fri, 06 Jul 2018 19:26:36 +0100
REM compiler GCC version 9.2.1 20190827 (Red Hat 9.2.1-1)
REM options -cpp -mtune=generic -march=x86-64 -g -O0 -fpre-include=/usr/include/finclude/math-vector-fortran.h
REM seed -22266532 1341535978 1112888611 -2090900827 1207226697 -1748079864 349396012 -982664142 -1721097694 -268959613 1904937388 -40461710 -235494161 -1699165621 612364882 1662767637 -834836709 -189715481 291666729 -417276286 -446858254 -1703050855 -982254782 1379625506 2010179908 -35566383 916393311 -2143688189 2034932639 1033635320 -1588636891 -502177022 -699189036
REM
CELL 1.54180   50.00000   50.00000   50.00000   90.00000   90.00000   90.00000
LATT -1
SFAC C  
C      1  0.5005320000000  0.4536460000000  0.3952290000000 1.0
C      1  0.5179380000000  0.3995070000000  0.4449690000000 1.0
C      1  0.5186310000000  0.3886030000000  0.5164690000000 1.0
C      1  0.4862560000000  0.4182460000000  0.5759310000000 1.0
C      1  0.4975020000000  0.4758380000000  0.6080330000000 1.0
C      1  0.5184870000000  0.5504620000000  0.6045940000000 1.0
C      1  0.5203900000000  0.5993640000000  0.5537390000000 1.0
C      1  0.4898680000000  0.6126740000000  0.4893370000000 1.0
C      1  0.5003610000000  0.5899020000000  0.4283480000000 1.0
C      1  0.4984250000000  0.5284730000000  0.3871530000000 1.0
C      1  0.5021970000000  0.4477150000000  0.4497440000000 1.0
C      1  0.4896830000000  0.4169850000000  0.4881940000000 1.0
C      1  0.5087830000000  0.4297090000000  0.5367050000000 1.0
C      1  0.4871920000000  0.4675390000000  0.5621680000000 1.0
C      1  0.5107670000000  0.5127430000000  0.5755450000000 1.0
C      1  0.4907300000000  0.5571280000000  0.5584800000000 1.0
C      1  0.5144500000000  0.5792620000000  0.5136680000000 1.0
C      1  0.4950400000000  0.5638850000000  0.4705650000000 1.0
C      1  0.5079630000000  0.5357860000000  0.4338190000000 1.0
C      1  0.4903520000000  0.4906470000000  0.4232360000000 1.0
C      1  0.5372180000000  0.4098930000000  0.4258810000000 1.0
C      1  0.4198900000000  0.3702840000000  0.4805150000000 1.0
C      1  0.5782780000000  0.3890580000000  0.5656000000000 1.0
C      1  0.4681440000000  0.4548900000000  0.6062060000000 1.0
C      1  0.5374690000000  0.5320250000000  0.6173420000000 1.0
C      1  0.4170800000000  0.5895400000000  0.5867950000000 1.0
C      1  0.5894030000000  0.6248260000000  0.5070530000000 1.0
C      1  0.4743030000000  0.6046420000000  0.4402950000000 1.0
C      1  0.5245530000000  0.5473630000000  0.3879980000000 1.0
C      1  0.4703540000000  0.4705180000000  0.3830400000000 1.0
C      1  0.5059520000000  0.5083790000000  0.3663480000000 1.0
C      1  0.4904210000000  0.4259150000000  0.3944790000000 1.0
C      1  0.5254950000000  0.3750720000000  0.4568710000000 1.0
C      1  0.5037960000000  0.3723440000000  0.5347270000000 1.0
C      1  0.5022330000000  0.4157200000000  0.5990050000000 1.0
C      1  0.4870410000000  0.4966680000000  0.6262060000000 1.0
C      1  0.5265800000000  0.5774490000000  0.6067270000000 1.0
C      1  0.5031670000000  0.6219930000000  0.5494370000000 1.0
C      1  0.5057730000000  0.6299120000000  0.4736000000000 1.0
C      1  0.4925100000000  0.5878430000000  0.3993580000000 1.0
C      1  0.5030450000000  0.5406000000000  0.5810160000000 1.0
C      1  0.5066640000000  0.5764850000000  0.5420630000000 1.0
C      1  0.4995420000000  0.5861900000000  0.4903610000000 1.0
C      1  0.5015140000000  0.5623970000000  0.4413960000000 1.0
C      1  0.4982250000000  0.5166920000000  0.4151600000000 1.0
C      1  0.5004010000000  0.4636900000000  0.4231740000000 1.0
C      1  0.5010180000000  0.4181190000000  0.4601250000000 1.0
C      1  0.5042960000000  0.4133590000000  0.5130490000000 1.0
C      1  0.4937190000000  0.4395610000000  0.5583270000000 1.0
C      1  0.4986650000000  0.4868630000000  0.5798090000000 1.0
C      1  0.5942750000000  0.5192610000000  0.4423210000000 1.0
C      1  0.3985250000000  0.4856050000000  0.4414720000000 1.0
C      1  0.5964960000000  0.4757910000000  0.4691660000000 1.0
C      1  0.3960570000000  0.4439060000000  0.5043680000000 1.0
C      1  0.6021460000000  0.4547950000000  0.5429020000000 1.0
C      1  0.3954570000000  0.4733380000000  0.5443980000000 1.0
C      1  0.5998780000000  0.5110410000000  0.5554740000000 1.0
C      1  0.3977400000000  0.5465250000000  0.5269480000000 1.0
C      1  0.6001560000000  0.5434830000000  0.4873630000000 1.0
C      1  0.4064750000000  0.5509070000000  0.4624530000000 1.0
C      1  0.5470940000000  0.5929780000000  0.5645780000000 1.0
C      1  0.4693480000000  0.6167670000000  0.5090440000000 1.0
C      1  0.5279300000000  0.6011600000000  0.4378970000000 1.0
C      1  0.4712360000000  0.5432120000000  0.3877670000000 1.0
C      1  0.5275110000000  0.4665820000000  0.3860000000000 1.0
C      1  0.4490300000000  0.4102430000000  0.4229260000000 1.0
C      1  0.5434460000000  0.3873260000000  0.5013290000000 1.0
C      1  0.4683150000000  0.4000470000000  0.5627570000000 1.0
C      1  0.5249410000000  0.4603620000000  0.6092750000000 1.0
C      1  0.4449990000000  0.5237340000000  0.6111470000000 1.0
C      1  0.3998840000000  0.5293970000000  0.5503350000000 1.0
C      1  0.6005440000000  0.5543250000000  0.5175000000000 1.0
C      1  0.4121830000000  0.5723970000000  0.4815920000000 1.0
C      1  0.5854110000000  0.5470360000000  0.4396300000000 1.0
C      1  0.4119030000000  0.5065290000000  0.4255530000000 1.0
C      1  0.5880260000000  0.4700330000000  0.4396950000000 1.0
C      1  0.4017880000000  0.4400580000000  0.4758330000000 1.0
C      1  0.5957100000000  0.4404660000000  0.5191500000000 1.0
C      1  0.4086570000000  0.4470040000000  0.5525630000000 1.0
C      1  0.5906430000000  0.4917370000000  0.5756280000000 1.0
C      1  0.5115990000000  0.5427590000000  0.4831740000000 1.0
C      1  0.4840620000000  0.5004740000000  0.4737290000000 1.0
C      1  0.5117700000000  0.4957110000000  0.4751280000000 1.0
C      1  0.4788020000000  0.4593910000000  0.4644840000000 1.0
C      1  0.5101250000000  0.4664350000000  0.5101590000000 1.0
C      1  0.4809360000000  0.4720120000000  0.5126590000000 1.0
C      1  0.5233350000000  0.5051810000000  0.5270980000000 1.0
C      1  0.4788600000000  0.5219090000000  0.5152710000000 1.0
C      1  0.5216760000000  0.5328910000000  0.5267020000000 1.0
C      1  0.5008810000000  0.5374480000000  0.5088810000000 1.0
C      1  0.4425500000000  0.4085090000000  0.5018700000000 1.0
C      1  0.5545580000000  0.4318240000000  0.5581040000000 1.0
C      1  0.4421330000000  0.4778800000000  0.5748060000000 1.0
C      1  0.5574300000000  0.5310560000000  0.5764620000000 1.0
C      1  0.4423110000000  0.5715110000000  0.5486480000000 1.0
C      1  0.5594660000000  0.5876650000000  0.4937530000000 1.0
C      1  0.4528340000000  0.5647260000000  0.4454830000000 1.0
C      1  0.5474980000000  0.5205760000000  0.4193290000000 1.0
C      1  0.4466060000000  0.4700690000000  0.4229760000000 1.0
C      1  0.5509230000000  0.4364400000000  0.4602570000000 1.0
C      1  0.4347540000000  0.5255380000000  0.4930980000000 1.0
C      1  0.5574830000000  0.5175460000000  0.4858470000000 1.0
C      1  0.4354210000000  0.5083010000000  0.4686660000000 1.0
C      1  0.5558730000000  0.4895110000000  0.4802900000000 1.0
C      1  0.4319450000000  0.4769520000000  0.4815420000000 1.0
C      1  0.5615620000000  0.4721090000000  0.5049320000000 1.0
C      1  0.4351950000000  0.4839680000000  0.5135470000000 1.0
C      1  0.5651750000000  0.4935040000000  0.5262450000000 1.0
C      1  0.4354620000000  0.5129850000000  0.5189180000000 1.0
C      1  0.5666370000000  0.5229310000000  0.5157400000000 1.0
C      1  0.5673750000000  0.4299880000000  0.4817220000000 1.0
C      1  0.4319750000000  0.4129230000000  0.5277720000000 1.0
C      1  0.5644220000000  0.4517900000000  0.5759580000000 1.0
C      1  0.4225750000000  0.4974290000000  0.5765910000000 1.0
C      1  0.5713590000000  0.5485670000000  0.5589670000000 1.0
C      1  0.4325520000000  0.5828990000000  0.5240010000000 1.0
C      1  0.5663340000000  0.5805680000000  0.4673420000000 1.0
C      1  0.4415380000000  0.5446810000000  0.4294140000000 1.0
C      1  0.5615170000000  0.4978420000000  0.4118870000000 1.0
C      1  0.4307370000000  0.4521480000000  0.4376860000000 1.0
C      1  0.4303250000000  0.4344090000000  0.5711000000000 1.0
C      1  0.5699180000000  0.4936260000000  0.5985120000000 1.0
C      1  0.4137910000000  0.5424390000000  0.5735250000000 1.0
C      1  0.5885720000000  0.5804550000000  0.5290580000000 1.0
C      1  0.4337430000000  0.5945950000000  0.4766550000000 1.0
C      1  0.5638980000000  0.5624600000000  0.4234210000000 1.0
C      1  0.4321410000000  0.5069410000000  0.4010570000000 1.0
C      1  0.5686700000000  0.4530120000000  0.4218540000000 1.0
C      1  0.4154440000000  0.4163090000000  0.4637180000000 1.0
C      1  0.5816740000000  0.4146610000000  0.5234810000000 1.0
C      1  0.4666090000000  0.5564420000000  0.4692740000000 1.0
C      1  0.5335200000000  0.5270900000000  0.4437070000000 1.0
C      1  0.4644860000000  0.4891250000000  0.4343560000000 1.0
C      1  0.5296070000000  0.4550040000000  0.4594420000000 1.0
C      1  0.4620750000000  0.4262540000000  0.4913580000000 1.0
C      1  0.5358540000000  0.4385230000000  0.5381690000000 1.0
C      1  0.4608580000000  0.4743450000000  0.5540230000000 1.0
C      1  0.5383660000000  0.5117620000000  0.5671910000000 1.0
C      1  0.4632290000000  0.5515900000000  0.5486290000000 1.0
C      1  0.5416130000000  0.5714490000000  0.5088980000000 1.0
C      1  0.5461580000000  0.5456470000000  0.5204930000000 1.0
C      1  0.4509870000000  0.5480100000000  0.4901340000000 1.0
C      1  0.5366070000000  0.5324100000000  0.4715130000000 1.0
C      1  0.4623950000000  0.5040720000000  0.4570180000000 1.0
C      1  0.5338180000000  0.4819310000000  0.4639000000000 1.0
C      1  0.4570690000000  0.4521050000000  0.4796530000000 1.0
C      1  0.5370540000000  0.4553210000000  0.5156870000000 1.0
C      1  0.4563640000000  0.4697380000000  0.5271260000000 1.0
C      1  0.5432890000000  0.4958830000000  0.5448430000000 1.0
C      1  0.4575350000000  0.5276970000000  0.5330900000000 1.0
C      1  0.5861970000000  0.4966380000000  0.4266030000000 1.0
C      1  0.4119630000000  0.4648290000000  0.4595070000000 1.0
C      1  0.5845150000000  0.4545680000000  0.4937600000000 1.0
C      1  0.4092700000000  0.4305900000000  0.5272170000000 1.0
C      1  0.5890460000000  0.4643650000000  0.5661210000000 1.0
C      1  0.4021070000000  0.4992050000000  0.5554370000000 1.0
C      1  0.5885720000000  0.5330990000000  0.5366750000000 1.0
C      1  0.4102510000000  0.5674900000000  0.5111920000000 1.0
C      1  0.5873310000000  0.5602980000000  0.4659170000000 1.0
C      1  0.4210060000000  0.5278210000000  0.4465340000000 1.0
C      1  0.5520040000000  0.5840200000000  0.4412050000000 1.0
C      1  0.4481850000000  0.5325340000000  0.4031750000000 1.0
C      1  0.5517050000000  0.4709000000000  0.4039160000000 1.0
C      1  0.4308030000000  0.4235450000000  0.4398620000000 1.0
C      1  0.5645240000000  0.4077700000000  0.5010530000000 1.0
C      1  0.4433020000000  0.4122850000000  0.5549160000000 1.0
C      1  0.5515400000000  0.4685140000000  0.5976660000000 1.0
C      1  0.4265600000000  0.5224550000000  0.5900530000000 1.0
C      1  0.5697180000000  0.5771450000000  0.5526480000000 1.0
C      1  0.4449070000000  0.6013780000000  0.5043740000000 1.0
C      1  0.5478830000000  0.5459490000000  0.4049240000000 1.0
C      1  0.4459430000000  0.4804000000000  0.3955530000000 1.0
C      1  0.5568270000000  0.4292990000000  0.4329780000000 1.0
C      1  0.4255490000000  0.3968600000000  0.4819300000000 1.0
C      1  0.5720400000000  0.4104880000000  0.5500750000000 1.0
C      1  0.4445460000000  0.4530500000000  0.5897440000000 1.0
C      1  0.5604820000000  0.5209620000000  0.6039760000000 1.0
C      1  0.4239490000000  0.5688310000000  0.5704970000000 1.0
C      1  0.5799200000000  0.5995360000000  0.5096320000000 1.0
C      1  0.4495760000000  0.5932660000000  0.4512110000000 1.0
C      1  0.5410520000000  0.3708030000000  0.4784480000000 1.0
C      1  0.4817360000000  0.3781770000000  0.5498970000000 1.0
C      1  0.5198890000000  0.4320610000000  0.6114520000000 1.0
C      1  0.4661910000000  0.5138570000000  0.6244230000000 1.0
C      1  0.5448360000000  0.5919190000000  0.5930310000000 1.0
C      1  0.4805670000000  0.6253680000000  0.5341550000000 1.0
C      1  0.5240920000000  0.6244380000000  0.4542870000000 1.0
C      1  0.4754970000000  0.5714670000000  0.3859970000000 1.0
C      1  0.5222660000000  0.4867640000000  0.3662290000000 1.0
C      1  0.4701410000000  0.4122320000000  0.4062190000000 1.0
C      1  0.6015750000000  0.5113390000000  0.4706560000000 1.0
C      1  0.3852990000000  0.4680310000000  0.5172910000000 1.0
C      1  0.5185710000000  0.4927970000000  0.5032700000000 1.0
C      1  0.4760480000000  0.4983820000000  0.5005220000000 1.0
END
