TITL C-3623286-7563-841 1.32509381165822 125000 -1201.98832936273 0 0 195 (C1) n - 1
REM
REM in /home/nfs/bkarasulu/CARBON/AIRSS/Generating-Clusters/LCBOP/Higher-Symm/SD-CG/FIRE-CG
REM
REM
REM
REM
REM
REM ./C.cell (b20cbc046b6831c77cfcea5457e17084)
REM AIRSS Version 0.9.1 bugfix July 2018 build 013d7b7c2542+ Fri, 06 Jul 2018 19:26:36 +0100
REM compiler GCC version 9.2.1 20190827 (Red Hat 9.2.1-1)
REM options -cpp -mtune=generic -march=x86-64 -g -O0 -fpre-include=/usr/include/finclude/math-vector-fortran.h
REM seed 1800677346 985929546 148975579 853046579 -1112346545 -768367091 457212881 1295851538 1885707166 -1304268151 -1556935637 2075202350 -189249899 1676617122 1558882306 -361202942 -1127710013 647954153 -749854315 -301252291 -402665191 -1849646440 -602105766 -486506101 1748840025 -1915854588 -247208049 226431282 1640328676 1089939886 -623794229 -177558204 -496010020
REM
CELL 1.54180   50.00000   50.00000   50.00000   90.00000   90.00000   90.00000
LATT -1
SFAC C  
C      1  0.3887150000000  0.4881360000000  0.4296170000000 1.0
C      1  0.6046240000000  0.4839220000000  0.5879870000000 1.0
C      1  0.5157920000000  0.4423980000000  0.4710250000000 1.0
C      1  0.4792860000000  0.4474290000000  0.5296820000000 1.0
C      1  0.5262990000000  0.5956220000000  0.4618300000000 1.0
C      1  0.4643820000000  0.6063060000000  0.5475960000000 1.0
C      1  0.5176580000000  0.3752100000000  0.5007710000000 1.0
C      1  0.4934720000000  0.3799790000000  0.4875290000000 1.0
C      1  0.6144860000000  0.4827630000000  0.4804510000000 1.0
C      1  0.3832770000000  0.4880170000000  0.5071000000000 1.0
C      1  0.4160100000000  0.5685190000000  0.4669850000000 1.0
C      1  0.5889420000000  0.5669300000000  0.5301950000000 1.0
C      1  0.4837210000000  0.4025400000000  0.5529600000000 1.0
C      1  0.5281540000000  0.4116140000000  0.4343130000000 1.0
C      1  0.5651170000000  0.4879180000000  0.5571090000000 1.0
C      1  0.4353110000000  0.4783270000000  0.4400820000000 1.0
C      1  0.5227180000000  0.5569720000000  0.4882980000000 1.0
C      1  0.4729710000000  0.5669790000000  0.5271050000000 1.0
C      1  0.5171280000000  0.5362360000000  0.4471730000000 1.0
C      1  0.4765740000000  0.5445520000000  0.5643530000000 1.0
C      1  0.6161180000000  0.4968280000000  0.5049320000000 1.0
C      1  0.3840020000000  0.5005020000000  0.4794890000000 1.0
C      1  0.4687770000000  0.5449910000000  0.4873800000000 1.0
C      1  0.5227250000000  0.5510730000000  0.5369970000000 1.0
C      1  0.6010970000000  0.4374880000000  0.4756580000000 1.0
C      1  0.4037240000000  0.4372650000000  0.5238310000000 1.0
C      1  0.5595960000000  0.5012740000000  0.4826550000000 1.0
C      1  0.4418610000000  0.5071200000000  0.5140180000000 1.0
C      1  0.6020110000000  0.4925780000000  0.4548110000000 1.0
C      1  0.3941070000000  0.4981150000000  0.5345390000000 1.0
C      1  0.5445040000000  0.4785210000000  0.4907070000000 1.0
C      1  0.4551780000000  0.4822360000000  0.5086230000000 1.0
C      1  0.4666970000000  0.4186070000000  0.4647630000000 1.0
C      1  0.5347930000000  0.4049890000000  0.5345610000000 1.0
C      1  0.4961930000000  0.5467340000000  0.4302810000000 1.0
C      1  0.4984810000000  0.5547520000000  0.5824370000000 1.0
C      1  0.4630130000000  0.4399880000000  0.4830490000000 1.0
C      1  0.5176660000000  0.4223840000000  0.5211810000000 1.0
C      1  0.6123310000000  0.5224610000000  0.4517520000000 1.0
C      1  0.3838550000000  0.5269040000000  0.5374800000000 1.0
C      1  0.4282070000000  0.5227140000000  0.4703230000000 1.0
C      1  0.5794450000000  0.5215940000000  0.5257900000000 1.0
C      1  0.4398570000000  0.5990110000000  0.5318310000000 1.0
C      1  0.5535890000000  0.5904670000000  0.4720570000000 1.0
C      1  0.4453550000000  0.6186870000000  0.4884000000000 1.0
C      1  0.5597280000000  0.6158210000000  0.5121640000000 1.0
C      1  0.5640490000000  0.5757420000000  0.5814780000000 1.0
C      1  0.4395150000000  0.5744850000000  0.4173560000000 1.0
C      1  0.5384360000000  0.4170550000000  0.5606760000000 1.0
C      1  0.4644490000000  0.4257790000000  0.4376660000000 1.0
C      1  0.4131250000000  0.4445100000000  0.4706780000000 1.0
C      1  0.5861950000000  0.4463500000000  0.5280620000000 1.0
C      1  0.5356460000000  0.3902670000000  0.4513720000000 1.0
C      1  0.4648130000000  0.3869100000000  0.5390800000000 1.0
C      1  0.4833220000000  0.4556610000000  0.4028000000000 1.0
C      1  0.5110810000000  0.4511600000000  0.5910190000000 1.0
C      1  0.4850690000000  0.5279440000000  0.4126670000000 1.0
C      1  0.5177710000000  0.5334430000000  0.5821600000000 1.0
C      1  0.4547310000000  0.4688110000000  0.4817350000000 1.0
C      1  0.5454290000000  0.4734980000000  0.5181270000000 1.0
C      1  0.4328800000000  0.5735380000000  0.5441580000000 1.0
C      1  0.5587930000000  0.5640970000000  0.4611730000000 1.0
C      1  0.6197360000000  0.5370150000000  0.4780050000000 1.0
C      1  0.3810760000000  0.5412790000000  0.5110520000000 1.0
C      1  0.4804330000000  0.4026660000000  0.5813310000000 1.0
C      1  0.5424460000000  0.4118860000000  0.4099020000000 1.0
C      1  0.5799100000000  0.5435960000000  0.5451350000000 1.0
C      1  0.4233080000000  0.5444020000000  0.4522680000000 1.0
C      1  0.5558640000000  0.5380510000000  0.6243570000000 1.0
C      1  0.4360010000000  0.5372730000000  0.3746320000000 1.0
C      1  0.5381410000000  0.4648300000000  0.5985290000000 1.0
C      1  0.4542530000000  0.4656020000000  0.3970220000000 1.0
C      1  0.4564440000000  0.5580240000000  0.5488500000000 1.0
C      1  0.5360370000000  0.5477490000000  0.4648450000000 1.0
C      1  0.5401900000000  0.5029660000000  0.5525280000000 1.0
C      1  0.4622260000000  0.4883440000000  0.4388200000000 1.0
C      1  0.5730960000000  0.4695800000000  0.4199200000000 1.0
C      1  0.4300690000000  0.4714570000000  0.5816670000000 1.0
C      1  0.5509150000000  0.5499830000000  0.6469900000000 1.0
C      1  0.4398430000000  0.5454450000000  0.3501850000000 1.0
C      1  0.5941130000000  0.4960660000000  0.5229310000000 1.0
C      1  0.4135880000000  0.4985280000000  0.4742220000000 1.0
C      1  0.4616200000000  0.5853140000000  0.4324600000000 1.0
C      1  0.5402980000000  0.5915330000000  0.5755320000000 1.0
C      1  0.5845720000000  0.3978430000000  0.5350900000000 1.0
C      1  0.4216370000000  0.3962790000000  0.4612910000000 1.0
C      1  0.5594130000000  0.5253250000000  0.5997200000000 1.0
C      1  0.4333250000000  0.5258640000000  0.4004730000000 1.0
C      1  0.5697050000000  0.5962170000000  0.4948950000000 1.0
C      1  0.4309450000000  0.6009130000000  0.5044920000000 1.0
C      1  0.4209980000000  0.5706860000000  0.5938350000000 1.0
C      1  0.5621880000000  0.5662920000000  0.4068160000000 1.0
C      1  0.4156610000000  0.4863770000000  0.4211600000000 1.0
C      1  0.5780960000000  0.4880500000000  0.5817640000000 1.0
C      1  0.4291320000000  0.3993680000000  0.5683540000000 1.0
C      1  0.5818590000000  0.3779720000000  0.4408950000000 1.0
C      1  0.4229310000000  0.4469050000000  0.5696490000000 1.0
C      1  0.6062370000000  0.4188190000000  0.4311170000000 1.0
C      1  0.4190360000000  0.4233470000000  0.4510020000000 1.0
C      1  0.5824490000000  0.4245430000000  0.5466220000000 1.0
C      1  0.4256760000000  0.5897660000000  0.3993230000000 1.0
C      1  0.5843130000000  0.5882720000000  0.5954930000000 1.0
C      1  0.5320090000000  0.5103580000000  0.4013800000000 1.0
C      1  0.4706960000000  0.5091190000000  0.5993980000000 1.0
C      1  0.6299970000000  0.4794320000000  0.5918590000000 1.0
C      1  0.3739790000000  0.4914860000000  0.4525340000000 1.0
C      1  0.5401200000000  0.6134510000000  0.5556430000000 1.0
C      1  0.4665770000000  0.6101500000000  0.4468610000000 1.0
C      1  0.5580850000000  0.4591430000000  0.3978020000000 1.0
C      1  0.4397990000000  0.4683420000000  0.6082830000000 1.0
C      1  0.3747880000000  0.5281320000000  0.4868510000000 1.0
C      1  0.6286660000000  0.5219750000000  0.5002950000000 1.0
C      1  0.5957890000000  0.4399770000000  0.5018630000000 1.0
C      1  0.4043880000000  0.4375510000000  0.4969710000000 1.0
C      1  0.4030750000000  0.4494640000000  0.5493470000000 1.0
C      1  0.6043770000000  0.4415060000000  0.4476400000000 1.0
C      1  0.5076160000000  0.4300330000000  0.4959040000000 1.0
C      1  0.4806110000000  0.4364770000000  0.5035190000000 1.0
C      1  0.5722570000000  0.4983410000000  0.4580790000000 1.0
C      1  0.4254330000000  0.5021730000000  0.5384380000000 1.0
C      1  0.4804550000000  0.5169040000000  0.5543480000000 1.0
C      1  0.5163740000000  0.5079670000000  0.4484140000000 1.0
C      1  0.5581630000000  0.3755750000000  0.4536980000000 1.0
C      1  0.4393640000000  0.3845060000000  0.5481550000000 1.0
C      1  0.5336210000000  0.4951660000000  0.3791090000000 1.0
C      1  0.4780450000000  0.4922780000000  0.6190730000000 1.0
C      1  0.5337920000000  0.4671060000000  0.3838550000000 1.0
C      1  0.4674290000000  0.4665320000000  0.6159100000000 1.0
C      1  0.5298430000000  0.5292690000000  0.5564010000000 1.0
C      1  0.4739150000000  0.5046370000000  0.4195330000000 1.0
C      1  0.4962100000000  0.4960410000000  0.5295540000000 1.0
C      1  0.5026470000000  0.4917250000000  0.4703560000000 1.0
C      1  0.4826090000000  0.4470080000000  0.6014820000000 1.0
C      1  0.5071830000000  0.4570520000000  0.3869470000000 1.0
C      1  0.5600120000000  0.4452920000000  0.5908760000000 1.0
C      1  0.4357540000000  0.4441440000000  0.4045900000000 1.0
C      1  0.5855060000000  0.5584560000000  0.4582330000000 1.0
C      1  0.4070860000000  0.5653920000000  0.5392640000000 1.0
C      1  0.4463390000000  0.5270460000000  0.4919330000000 1.0
C      1  0.5637010000000  0.5219960000000  0.5016450000000 1.0
C      1  0.4311550000000  0.5464250000000  0.4236240000000 1.0
C      1  0.5688580000000  0.5473250000000  0.5737300000000 1.0
C      1  0.5742180000000  0.4739400000000  0.5319000000000 1.0
C      1  0.4268550000000  0.4717580000000  0.4679180000000 1.0
C      1  0.4870310000000  0.5899110000000  0.5372180000000 1.0
C      1  0.5065160000000  0.5789150000000  0.4769300000000 1.0
C      1  0.5273670000000  0.5961110000000  0.4330250000000 1.0
C      1  0.4572160000000  0.6051080000000  0.5757780000000 1.0
C      1  0.5565960000000  0.4955090000000  0.5994620000000 1.0
C      1  0.4325300000000  0.4960100000000  0.4003620000000 1.0
C      1  0.4966690000000  0.4285630000000  0.5443160000000 1.0
C      1  0.5114480000000  0.4329370000000  0.4433790000000 1.0
C      1  0.4933420000000  0.6259570000000  0.4909680000000 1.0
C      1  0.5123030000000  0.6260400000000  0.5112310000000 1.0
C      1  0.4873880000000  0.4389770000000  0.4271930000000 1.0
C      1  0.5156150000000  0.4342410000000  0.5674730000000 1.0
C      1  0.6018580000000  0.5600520000000  0.4818960000000 1.0
C      1  0.3975180000000  0.5651370000000  0.5122100000000 1.0
C      1  0.4810410000000  0.5655420000000  0.4699730000000 1.0
C      1  0.5112000000000  0.5771790000000  0.5463100000000 1.0
C      1  0.4750920000000  0.4827320000000  0.4633100000000 1.0
C      1  0.5246450000000  0.4867660000000  0.5347270000000 1.0
C      1  0.5427290000000  0.5836920000000  0.4142020000000 1.0
C      1  0.4397870000000  0.5902690000000  0.5909230000000 1.0
C      1  0.4373830000000  0.4292850000000  0.4288620000000 1.0
C      1  0.5635140000000  0.4276790000000  0.5683880000000 1.0
C      1  0.4037280000000  0.5519630000000  0.5836170000000 1.0
C      1  0.5823750000000  0.5488850000000  0.4126280000000 1.0
C      1  0.4751100000000  0.4747510000000  0.5276810000000 1.0
C      1  0.5227560000000  0.4695910000000  0.4750550000000 1.0
C      1  0.4423340000000  0.3812350000000  0.4715540000000 1.0
C      1  0.5690160000000  0.3796580000000  0.5213620000000 1.0
C      1  0.5888450000000  0.3985160000000  0.4225940000000 1.0
C      1  0.4379060000000  0.4244170000000  0.5789930000000 1.0
C      1  0.5897740000000  0.5761850000000  0.5030800000000 1.0
C      1  0.4133220000000  0.5799540000000  0.4932250000000 1.0
C      1  0.5145630000000  0.5783870000000  0.5749160000000 1.0
C      1  0.4785680000000  0.5650170000000  0.4420780000000 1.0
C      1  0.5339350000000  0.4998260000000  0.4276580000000 1.0
C      1  0.4634990000000  0.5036090000000  0.5723590000000 1.0
C      1  0.4654430000000  0.4250240000000  0.5908760000000 1.0
C      1  0.5681340000000  0.4053950000000  0.4044160000000 1.0
C      1  0.3953460000000  0.5459290000000  0.5570580000000 1.0
C      1  0.5952970000000  0.5419210000000  0.4368220000000 1.0
C      1  0.4697920000000  0.6202370000000  0.4741140000000 1.0
C      1  0.5362950000000  0.6204490000000  0.5275080000000 1.0
C      1  0.5121960000000  0.5462070000000  0.5113040000000 1.0
C      1  0.4839500000000  0.5480580000000  0.5107950000000 1.0
C      1  0.5985460000000  0.4672360000000  0.4357190000000 1.0
C      1  0.3878950000000  0.4738260000000  0.5513890000000 1.0
C      1  0.4693490000000  0.3911530000000  0.4749370000000 1.0
C      1  0.5404300000000  0.3820500000000  0.5184250000000 1.0
C      1  0.4381110000000  0.4932790000000  0.5643730000000 1.0
C      1  0.5583110000000  0.4891460000000  0.4351630000000 1.0
C      1  0.4991100000000  0.5037660000000  0.4989400000000 1.0
END
