TITL C-3623284-6838-1137 605967.377906476 125000 -170.594808272664 0 0 30 (C1) n - 1
REM
REM in /home/nfs/bkarasulu/CARBON/AIRSS/Generating-Clusters/LCBOP/Higher-Symm/SD-CG/FIRE-CG
REM
REM
REM
REM
REM
REM ./C.cell (b20cbc046b6831c77cfcea5457e17084)
REM AIRSS Version 0.9.1 bugfix July 2018 build 013d7b7c2542+ Fri, 06 Jul 2018 19:26:36 +0100
REM compiler GCC version 9.2.1 20190827 (Red Hat 9.2.1-1)
REM options -cpp -mtune=generic -march=x86-64 -g -O0 -fpre-include=/usr/include/finclude/math-vector-fortran.h
REM seed -1517340239 -1916947198 379202972 1493676070 -1762406330 281023724 27385591 -754386804 333909576 1737384201 -2137835256 1016609796 453276710 -1019330134 540359864 -1761412744 -1573475240 1432495816 86865358 -829507331 -454210099 -141546747 -2129342836 -555013277 -1751866651 158783892 -1670744141 -206957792 -1881728053 -1967606420 406870623 -1255244288 -1487380762
REM
CELL 1.54180   50.00000   50.00000   50.00000   90.00000   90.00000   90.00000
LATT -1
SFAC C  
C      1  0.4615750000000  0.5279230000000  0.4911130000000 1.0
C      1  0.4630950000000  0.5119750000000  0.4674570000000 1.0
C      1  0.4661770000000  0.4817430000000  0.4690630000000 1.0
C      1  0.4679560000000  0.4652130000000  0.4945450000000 1.0
C      1  0.4672490000000  0.4733940000000  0.5230150000000 1.0
C      1  0.4610840000000  0.4998880000000  0.5342530000000 1.0
C      1  0.4609840000000  0.5207980000000  0.5164940000000 1.0
C      1  0.4925060000000  0.5492050000000  0.4965590000000 1.0
C      1  0.4788560000000  0.5255970000000  0.4470430000000 1.0
C      1  0.4885530000000  0.4724290000000  0.4510520000000 1.0
C      1  0.4878080000000  0.4437410000000  0.4918530000000 1.0
C      1  0.4903370000000  0.4621430000000  0.5377100000000 1.0
C      1  0.4776790000000  0.5055530000000  0.5573310000000 1.0
C      1  0.4934590000000  0.5433390000000  0.5230380000000 1.0
C      1  0.5140520000000  0.4781460000000  0.5419010000000 1.0
C      1  0.5061090000000  0.5053830000000  0.5513380000000 1.0
C      1  0.5146170000000  0.5286150000000  0.5352040000000 1.0
C      1  0.5135920000000  0.5436770000000  0.4779210000000 1.0
C      1  0.5026350000000  0.5388760000000  0.4516420000000 1.0
C      1  0.5138230000000  0.4820260000000  0.4612670000000 1.0
C      1  0.5149120000000  0.4430490000000  0.4953970000000 1.0
C      1  0.5375460000000  0.5292980000000  0.4892620000000 1.0
C      1  0.5505240000000  0.5065670000000  0.4752310000000 1.0
C      1  0.5405440000000  0.4785750000000  0.4732650000000 1.0
C      1  0.5357920000000  0.4627360000000  0.4983050000000 1.0
C      1  0.5373590000000  0.4764770000000  0.5243170000000 1.0
C      1  0.5526640000000  0.5006940000000  0.5254080000000 1.0
C      1  0.5385850000000  0.5249010000000  0.5186410000000 1.0
C      1  0.4960200000000  0.5023750000000  0.5046240000000 1.0
C      1  0.5038770000000  0.5008030000000  0.4804050000000 1.0
END
