TITL C-3623286-7563-1900 -2.6022327071279e-09 125000 -205.684516632687 0 0 35 (C2h) n - 1
REM
REM in /home/nfs/bkarasulu/CARBON/AIRSS/Generating-Clusters/LCBOP/Higher-Symm/SD-CG/FIRE-CG
REM
REM
REM
REM
REM
REM ./C.cell (b20cbc046b6831c77cfcea5457e17084)
REM AIRSS Version 0.9.1 bugfix July 2018 build 013d7b7c2542+ Fri, 06 Jul 2018 19:26:36 +0100
REM compiler GCC version 9.2.1 20190827 (Red Hat 9.2.1-1)
REM options -cpp -mtune=generic -march=x86-64 -g -O0 -fpre-include=/usr/include/finclude/math-vector-fortran.h
REM seed 525748177 39934790 -1198162868 -940209601 1783582764 -1144703288 1576274898 1292995680 60963429 982662910 -385041641 -2146115336 1048277042 457973848 448583017 409383622 1110728587 -1014518865 662896699 1123245720 -837552784 -906663673 -972110275 -1633092435 -1263643256 1950696208 1728132150 55970172 1027931120 -1042199913 117096030 277292085 -222229783
REM
CELL 1.54180   50.00000   50.00000   50.00000   90.00000   90.00000   90.00000
LATT -1
SFAC C  
C      1  0.4868950000000  0.5715440000000  0.5274860000000 1.0
C      1  0.5140420000000  0.5726540000000  0.4728660000000 1.0
C      1  0.4868860000000  0.4307040000000  0.5272740000000 1.0
C      1  0.5140330000000  0.4318130000000  0.4726530000000 1.0
C      1  0.5140330000000  0.5715440000000  0.5274860000000 1.0
C      1  0.4868860000000  0.5726540000000  0.4728660000000 1.0
C      1  0.5140420000000  0.4307040000000  0.5272740000000 1.0
C      1  0.4868950000000  0.4318130000000  0.4726530000000 1.0
C      1  0.4705210000000  0.5530650000000  0.4853580000000 1.0
C      1  0.5307720000000  0.5527510000000  0.5142900000000 1.0
C      1  0.4701560000000  0.4506070000000  0.4858490000000 1.0
C      1  0.5304060000000  0.4502930000000  0.5147820000000 1.0
C      1  0.5304060000000  0.5530650000000  0.4853580000000 1.0
C      1  0.4701560000000  0.5527510000000  0.5142900000000 1.0
C      1  0.5307720000000  0.4506070000000  0.4858490000000 1.0
C      1  0.4705210000000  0.4502930000000  0.5147820000000 1.0
C      1  0.4681280000000  0.4761190000000  0.4746310000000 1.0
C      1  0.5312450000000  0.4755380000000  0.5264530000000 1.0
C      1  0.4696830000000  0.5278200000000  0.4736860000000 1.0
C      1  0.5328000000000  0.5272390000000  0.5255090000000 1.0
C      1  0.5328000000000  0.4761190000000  0.4746310000000 1.0
C      1  0.4696830000000  0.4755380000000  0.5264530000000 1.0
C      1  0.5312440000000  0.5278200000000  0.4736860000000 1.0
C      1  0.4681280000000  0.5272390000000  0.5255090000000 1.0
C      1  0.4852600000000  0.4875860000000  0.5463970000000 1.0
C      1  0.5200640000000  0.4869240000000  0.4526260000000 1.0
C      1  0.4808640000000  0.5164340000000  0.5475130000000 1.0
C      1  0.5156680000000  0.5157720000000  0.4537430000000 1.0
C      1  0.5156680000000  0.4875860000000  0.5463970000000 1.0
C      1  0.4808640000000  0.4869240000000  0.4526270000000 1.0
C      1  0.5200640000000  0.5164340000000  0.5475130000000 1.0
C      1  0.4852600000000  0.5157720000000  0.4537430000000 1.0
C      1  0.4720350000000  0.5016790000000  0.5000700000000 1.0
C      1  0.5288930000000  0.5016790000000  0.5000700000000 1.0
C      1  0.5004640000000  0.5016790000000  0.5000700000000 1.0
END
