TITL C-3623285-6872-1316 61.1908163042409 125000 -830.921071982468 0 0 143 (C1) n - 1
REM
REM in /home/nfs/bkarasulu/CARBON/AIRSS/Generating-Clusters/LCBOP/Higher-Symm/SD-CG/FIRE-CG
REM
REM
REM
REM
REM
REM ./C.cell (b20cbc046b6831c77cfcea5457e17084)
REM AIRSS Version 0.9.1 bugfix July 2018 build 013d7b7c2542+ Fri, 06 Jul 2018 19:26:36 +0100
REM compiler GCC version 9.2.1 20190827 (Red Hat 9.2.1-1)
REM options -cpp -mtune=generic -march=x86-64 -g -O0 -fpre-include=/usr/include/finclude/math-vector-fortran.h
REM seed 1735136144 -598099867 -2034351171 29783547 -759728527 1769219723 1513493791 598275440 574960624 -1596194831 1954796695 1293127530 -533625440 886443422 -17938580 -2082423794 -1435330464 -1274608198 -1097942242 782261654 1857154537 1967585773 -888129721 -1848349633 -650510516 1434640433 -703821402 1615656107 136183024 855811424 -390321852 -2128958372 1961573465
REM
CELL 1.54180   50.00000   50.00000   50.00000   90.00000   90.00000   90.00000
LATT -1
SFAC C  
C      1  0.3556800000000  0.5441640000000  0.5495620000000 1.0
C      1  0.6250840000000  0.4493190000000  0.5528740000000 1.0
C      1  0.4282150000000  0.4090240000000  0.4451830000000 1.0
C      1  0.6249860000000  0.5779790000000  0.4418780000000 1.0
C      1  0.4405840000000  0.4976000000000  0.4461760000000 1.0
C      1  0.5599800000000  0.5315130000000  0.4998830000000 1.0
C      1  0.4286410000000  0.5099720000000  0.5412050000000 1.0
C      1  0.5422020000000  0.4454470000000  0.5097210000000 1.0
C      1  0.5304970000000  0.5137720000000  0.4471010000000 1.0
C      1  0.4768370000000  0.5693570000000  0.5292410000000 1.0
C      1  0.5075430000000  0.4763920000000  0.5706980000000 1.0
C      1  0.4564520000000  0.4514300000000  0.4857290000000 1.0
C      1  0.4908130000000  0.5615520000000  0.4402120000000 1.0
C      1  0.5169370000000  0.5519730000000  0.5731720000000 1.0
C      1  0.4624880000000  0.4352530000000  0.5671420000000 1.0
C      1  0.4953260000000  0.4253260000000  0.4451370000000 1.0
C      1  0.5250710000000  0.4790770000000  0.5921430000000 1.0
C      1  0.4324800000000  0.4647820000000  0.4947520000000 1.0
C      1  0.5513120000000  0.4951250000000  0.4524760000000 1.0
C      1  0.4617980000000  0.5925170000000  0.5341840000000 1.0
C      1  0.3268620000000  0.5530340000000  0.4789880000000 1.0
C      1  0.6742850000000  0.5060690000000  0.5627310000000 1.0
C      1  0.4231600000000  0.3862690000000  0.5183290000000 1.0
C      1  0.6763540000000  0.6012660000000  0.3895240000000 1.0
C      1  0.6142750000000  0.4907680000000  0.5177760000000 1.0
C      1  0.3631670000000  0.5024820000000  0.5087000000000 1.0
C      1  0.5634150000000  0.4227890000000  0.4446120000000 1.0
C      1  0.4145750000000  0.5608580000000  0.4739260000000 1.0
C      1  0.5741350000000  0.4966360000000  0.4361900000000 1.0
C      1  0.4380640000000  0.5976850000000  0.5453980000000 1.0
C      1  0.5481480000000  0.4729230000000  0.6036690000000 1.0
C      1  0.4074580000000  0.4518700000000  0.4946530000000 1.0
C      1  0.5890320000000  0.4944970000000  0.5124970000000 1.0
C      1  0.3881300000000  0.5082340000000  0.5135720000000 1.0
C      1  0.5571490000000  0.4389630000000  0.4640600000000 1.0
C      1  0.4241560000000  0.5368370000000  0.4707250000000 1.0
C      1  0.4908430000000  0.5807870000000  0.4608430000000 1.0
C      1  0.5025380000000  0.5388540000000  0.5933150000000 1.0
C      1  0.4743360000000  0.4111400000000  0.5594460000000 1.0
C      1  0.4913540000000  0.4390190000000  0.4207830000000 1.0
C      1  0.4353390000000  0.3405350000000  0.5441950000000 1.0
C      1  0.6911710000000  0.6497930000000  0.4079970000000 1.0
C      1  0.2760140000000  0.5631890000000  0.4638670000000 1.0
C      1  0.7280160000000  0.5110380000000  0.5629460000000 1.0
C      1  0.4242530000000  0.3849820000000  0.4901930000000 1.0
C      1  0.6575500000000  0.5861540000000  0.4035770000000 1.0
C      1  0.3349350000000  0.5587500000000  0.5051890000000 1.0
C      1  0.6622620000000  0.4812120000000  0.5673150000000 1.0
C      1  0.4757750000000  0.5301050000000  0.5884900000000 1.0
C      1  0.4898030000000  0.4091100000000  0.5355800000000 1.0
C      1  0.5007540000000  0.4656320000000  0.4156710000000 1.0
C      1  0.5131270000000  0.5847780000000  0.4784840000000 1.0
C      1  0.5158340000000  0.4622080000000  0.5479630000000 1.0
C      1  0.4640710000000  0.4608550000000  0.4600130000000 1.0
C      1  0.5320690000000  0.5368880000000  0.4632710000000 1.0
C      1  0.4632850000000  0.5453480000000  0.5350430000000 1.0
C      1  0.5052770000000  0.4739430000000  0.5021680000000 1.0
C      1  0.4804380000000  0.5032470000000  0.4733970000000 1.0
C      1  0.5130050000000  0.5204990000000  0.5047770000000 1.0
C      1  0.4720950000000  0.5018170000000  0.5211630000000 1.0
C      1  0.6406250000000  0.4647140000000  0.5719630000000 1.0
C      1  0.4150720000000  0.3915500000000  0.4646850000000 1.0
C      1  0.6390090000000  0.5712460000000  0.4174240000000 1.0
C      1  0.3500500000000  0.5626940000000  0.5279660000000 1.0
C      1  0.5143360000000  0.4520580000000  0.5201420000000 1.0
C      1  0.4690450000000  0.4879740000000  0.4494440000000 1.0
C      1  0.5316320000000  0.5402620000000  0.4929400000000 1.0
C      1  0.4579160000000  0.5168280000000  0.5425310000000 1.0
C      1  0.3907170000000  0.5745460000000  0.5510370000000 1.0
C      1  0.5958690000000  0.4578060000000  0.5877150000000 1.0
C      1  0.3879210000000  0.4290660000000  0.4558210000000 1.0
C      1  0.6091980000000  0.5358030000000  0.4305010000000 1.0
C      1  0.4947260000000  0.5382370000000  0.4275370000000 1.0
C      1  0.5195660000000  0.5634940000000  0.5492870000000 1.0
C      1  0.4627940000000  0.4611240000000  0.5733230000000 1.0
C      1  0.4885870000000  0.4196300000000  0.4705040000000 1.0
C      1  0.5972860000000  0.4464020000000  0.5607980000000 1.0
C      1  0.4121390000000  0.4326340000000  0.4387750000000 1.0
C      1  0.6069910000000  0.5570410000000  0.4505830000000 1.0
C      1  0.3817090000000  0.5487620000000  0.5619380000000 1.0
C      1  0.6874790000000  0.5912750000000  0.3659330000000 1.0
C      1  0.3448350000000  0.5420610000000  0.4604850000000 1.0
C      1  0.6579600000000  0.5283380000000  0.5580210000000 1.0
C      1  0.4143470000000  0.4092480000000  0.5321450000000 1.0
C      1  0.4799810000000  0.4832110000000  0.5726370000000 1.0
C      1  0.4764440000000  0.4317850000000  0.4934490000000 1.0
C      1  0.5069620000000  0.5128340000000  0.4309420000000 1.0
C      1  0.5052550000000  0.5686930000000  0.5256110000000 1.0
C      1  0.3875270000000  0.4008240000000  0.4624320000000 1.0
C      1  0.6286470000000  0.5449140000000  0.4111890000000 1.0
C      1  0.3708870000000  0.5824580000000  0.5314070000000 1.0
C      1  0.6223050000000  0.4671730000000  0.5942860000000 1.0
C      1  0.5663120000000  0.5031800000000  0.4985760000000 1.0
C      1  0.4159140000000  0.5053380000000  0.5161540000000 1.0
C      1  0.5511390000000  0.4569350000000  0.4847950000000 1.0
C      1  0.4309320000000  0.5097690000000  0.4703180000000 1.0
C      1  0.5141180000000  0.5348020000000  0.6184120000000 1.0
C      1  0.4717550000000  0.3889580000000  0.5763130000000 1.0
C      1  0.4770070000000  0.4260670000000  0.4004870000000 1.0
C      1  0.4684650000000  0.5973140000000  0.4639780000000 1.0
C      1  0.4626120000000  0.4148370000000  0.3818910000000 1.0
C      1  0.4499030000000  0.6153290000000  0.4671690000000 1.0
C      1  0.5245010000000  0.5309920000000  0.6420100000000 1.0
C      1  0.4705250000000  0.3697890000000  0.5939280000000 1.0
C      1  0.5299530000000  0.6060580000000  0.4745230000000 1.0
C      1  0.4550450000000  0.5412680000000  0.6024940000000 1.0
C      1  0.5019560000000  0.3852700000000  0.5294380000000 1.0
C      1  0.5201150000000  0.4687710000000  0.3963740000000 1.0
C      1  0.6979970000000  0.5817450000000  0.3435610000000 1.0
C      1  0.3598910000000  0.5299010000000  0.4422790000000 1.0
C      1  0.6378170000000  0.5441650000000  0.5510740000000 1.0
C      1  0.4074130000000  0.4298110000000  0.5477890000000 1.0
C      1  0.4040840000000  0.4528140000000  0.5610610000000 1.0
C      1  0.7083470000000  0.5723720000000  0.3215460000000 1.0
C      1  0.3777070000000  0.5161050000000  0.4281570000000 1.0
C      1  0.6160400000000  0.5538980000000  0.5393920000000 1.0
C      1  0.4209710000000  0.4853380000000  0.4293410000000 1.0
C      1  0.5817290000000  0.5499080000000  0.4989180000000 1.0
C      1  0.4118470000000  0.5054080000000  0.5638480000000 1.0
C      1  0.5593320000000  0.4281890000000  0.5246780000000 1.0
C      1  0.4924150000000  0.4308060000000  0.5173160000000 1.0
C      1  0.4911960000000  0.4888980000000  0.4292610000000 1.0
C      1  0.5181790000000  0.5666610000000  0.5000550000000 1.0
C      1  0.4706710000000  0.5098680000000  0.5691200000000 1.0
C      1  0.3987710000000  0.5009940000000  0.4221200000000 1.0
C      1  0.5960360000000  0.5562950000000  0.5220760000000 1.0
C      1  0.4055910000000  0.4783800000000  0.5689480000000 1.0
C      1  0.5597160000000  0.4013760000000  0.5190590000000 1.0
C      1  0.4302270000000  0.3634900000000  0.5329600000000 1.0
C      1  0.6840360000000  0.6263740000000  0.3990600000000 1.0
C      1  0.3005460000000  0.5583180000000  0.4711940000000 1.0
C      1  0.7020650000000  0.5086260000000  0.5628450000000 1.0
C      1  0.4145140000000  0.5885140000000  0.5538240000000 1.0
C      1  0.5728750000000  0.4635410000000  0.6018960000000 1.0
C      1  0.3870010000000  0.4460740000000  0.4782170000000 1.0
C      1  0.5946310000000  0.5122780000000  0.4296110000000 1.0
C      1  0.3968430000000  0.5276810000000  0.5723070000000 1.0
C      1  0.5763340000000  0.4384030000000  0.5445090000000 1.0
C      1  0.4191630000000  0.4572170000000  0.4275650000000 1.0
C      1  0.5919820000000  0.5571500000000  0.4738440000000 1.0
C      1  0.4293470000000  0.4936490000000  0.4940520000000 1.0
C      1  0.5547190000000  0.4849790000000  0.4793860000000 1.0
C      1  0.4925030000000  0.5001340000000  0.5001920000000 1.0
END
