TITL C-3623283-6828-1988 -1.8902158344253e-07 125000 -781.283369594416 0 0 128 (C1) n - 1
REM
REM in /home/nfs/bkarasulu/CARBON/AIRSS/Generating-Clusters/LCBOP/Higher-Symm/SD-CG/FIRE-CG
REM
REM
REM
REM
REM
REM ./C.cell (b20cbc046b6831c77cfcea5457e17084)
REM AIRSS Version 0.9.1 bugfix July 2018 build 013d7b7c2542+ Fri, 06 Jul 2018 19:26:36 +0100
REM compiler GCC version 9.2.1 20190827 (Red Hat 9.2.1-1)
REM options -cpp -mtune=generic -march=x86-64 -g -O0 -fpre-include=/usr/include/finclude/math-vector-fortran.h
REM seed 1305374189 -1715839896 538679946 -1674703357 -875319438 1882747132 -1716437693 1672938444 -93245696 -1835352451 2113115583 -865055878 -288619119 -1318001798 -1487831010 1524445631 -1992557384 2104623773 1544845749 -1304257823 780429218 -1020257732 733398077 2122797517 1451272824 25689339 302309268 2106946111 1017432561 -143089201 -1567756889 739348065 168455554
REM
CELL 1.54180   50.00000   50.00000   50.00000   90.00000   90.00000   90.00000
LATT -1
SFAC C  
C      1  0.5547290000000  0.4511870000000  0.4522080000000 1.0
C      1  0.5652780000000  0.5456510000000  0.5169660000000 1.0
C      1  0.5182160000000  0.4486640000000  0.5730730000000 1.0
C      1  0.4448200000000  0.5432690000000  0.5501090000000 1.0
C      1  0.4326930000000  0.4480880000000  0.4788990000000 1.0
C      1  0.4789600000000  0.5479740000000  0.4255500000000 1.0
C      1  0.4978610000000  0.4703080000000  0.3873240000000 1.0
C      1  0.5991380000000  0.5711720000000  0.4363980000000 1.0
C      1  0.6083210000000  0.4283780000000  0.5567250000000 1.0
C      1  0.5755870000000  0.6035710000000  0.5831140000000 1.0
C      1  0.4037380000000  0.4689750000000  0.5655980000000 1.0
C      1  0.3946330000000  0.5786840000000  0.4470200000000 1.0
C      1  0.5482600000000  0.6054470000000  0.4706250000000 1.0
C      1  0.5540280000000  0.3906100000000  0.5317080000000 1.0
C      1  0.4899260000000  0.6033400000000  0.5649910000000 1.0
C      1  0.4494250000000  0.3953220000000  0.5291660000000 1.0
C      1  0.4507350000000  0.6025210000000  0.4763390000000 1.0
C      1  0.5042340000000  0.3996140000000  0.4369140000000 1.0
C      1  0.5499840000000  0.5924960000000  0.4963850000000 1.0
C      1  0.5313510000000  0.4042440000000  0.5432520000000 1.0
C      1  0.4690390000000  0.5956240000000  0.5454290000000 1.0
C      1  0.4525030000000  0.4033000000000  0.5008520000000 1.0
C      1  0.4724090000000  0.5906970000000  0.4611730000000 1.0
C      1  0.5243250000000  0.4138190000000  0.4505270000000 1.0
C      1  0.4720210000000  0.5245180000000  0.4806220000000 1.0
C      1  0.5037220000000  0.4673440000000  0.4752740000000 1.0
C      1  0.5235730000000  0.5276990000000  0.4852350000000 1.0
C      1  0.5250240000000  0.4644570000000  0.5217390000000 1.0
C      1  0.4930140000000  0.5260700000000  0.5265960000000 1.0
C      1  0.4757250000000  0.4613540000000  0.5138920000000 1.0
C      1  0.4093920000000  0.4969230000000  0.4758710000000 1.0
C      1  0.4645720000000  0.4935170000000  0.4125600000000 1.0
C      1  0.5580720000000  0.5005940000000  0.4308190000000 1.0
C      1  0.5854430000000  0.4975240000000  0.5238260000000 1.0
C      1  0.5279890000000  0.5042620000000  0.5907150000000 1.0
C      1  0.4431490000000  0.4932380000000  0.5741410000000 1.0
C      1  0.5059760000000  0.5053260000000  0.4450960000000 1.0
C      1  0.5739760000000  0.5124250000000  0.4819910000000 1.0
C      1  0.5531930000000  0.4809390000000  0.5621850000000 1.0
C      1  0.4749430000000  0.5225680000000  0.5829350000000 1.0
C      1  0.4306180000000  0.4823360000000  0.5131030000000 1.0
C      1  0.4376780000000  0.5196340000000  0.4356180000000 1.0
C      1  0.5518590000000  0.4652170000000  0.5378420000000 1.0
C      1  0.4944240000000  0.5308320000000  0.5628840000000 1.0
C      1  0.4489370000000  0.4645340000000  0.5272670000000 1.0
C      1  0.4419100000000  0.5304640000000  0.4619920000000 1.0
C      1  0.5017880000000  0.4764840000000  0.4465510000000 1.0
C      1  0.5520380000000  0.5293400000000  0.4697680000000 1.0
C      1  0.5270980000000  0.4638000000000  0.4925230000000 1.0
C      1  0.5189750000000  0.5310060000000  0.5143410000000 1.0
C      1  0.4981520000000  0.4590910000000  0.5316720000000 1.0
C      1  0.4692780000000  0.5255800000000  0.5097100000000 1.0
C      1  0.4785930000000  0.4589400000000  0.4854920000000 1.0
C      1  0.4995500000000  0.5205020000000  0.4692230000000 1.0
C      1  0.5737390000000  0.4720190000000  0.5194020000000 1.0
C      1  0.5214350000000  0.5253250000000  0.5722000000000 1.0
C      1  0.4529490000000  0.4736370000000  0.5560940000000 1.0
C      1  0.4193350000000  0.5233050000000  0.4799330000000 1.0
C      1  0.4747030000000  0.4754840000000  0.4323930000000 1.0
C      1  0.5484940000000  0.5259170000000  0.4397420000000 1.0
C      1  0.4516370000000  0.4890610000000  0.6021480000000 1.0
C      1  0.4040890000000  0.4921800000000  0.5504820000000 1.0
C      1  0.4370420000000  0.4869590000000  0.4040240000000 1.0
C      1  0.5076850000000  0.4945800000000  0.3956360000000 1.0
C      1  0.5949160000000  0.4650540000000  0.4783990000000 1.0
C      1  0.5560930000000  0.5075790000000  0.5998320000000 1.0
C      1  0.5489120000000  0.5739380000000  0.4328860000000 1.0
C      1  0.5839560000000  0.4247980000000  0.5130300000000 1.0
C      1  0.5340290000000  0.5724150000000  0.5691290000000 1.0
C      1  0.4424950000000  0.4321360000000  0.5697870000000 1.0
C      1  0.4175350000000  0.5702770000000  0.4916560000000 1.0
C      1  0.4722390000000  0.4329060000000  0.4163980000000 1.0
C      1  0.5171240000000  0.4573070000000  0.4294200000000 1.0
C      1  0.5666560000000  0.5562700000000  0.4712910000000 1.0
C      1  0.5601740000000  0.4388430000000  0.5502780000000 1.0
C      1  0.4886830000000  0.5592890000000  0.5628800000000 1.0
C      1  0.4345370000000  0.4374800000000  0.5252500000000 1.0
C      1  0.4404670000000  0.5591760000000  0.4540770000000 1.0
C      1  0.5289750000000  0.4764440000000  0.5785000000000 1.0
C      1  0.4490970000000  0.5217890000000  0.5694950000000 1.0
C      1  0.4212340000000  0.4738390000000  0.4874390000000 1.0
C      1  0.4626940000000  0.5222300000000  0.4209240000000 1.0
C      1  0.5628340000000  0.4752800000000  0.4391780000000 1.0
C      1  0.5787820000000  0.5208150000000  0.5093770000000 1.0
C      1  0.5068030000000  0.5805250000000  0.5699640000000 1.0
C      1  0.4401410000000  0.4169180000000  0.5456650000000 1.0
C      1  0.4333780000000  0.5937510000000  0.4957530000000 1.0
C      1  0.4825960000000  0.4075340000000  0.4229570000000 1.0
C      1  0.5409640000000  0.5984310000000  0.4452140000000 1.0
C      1  0.5715740000000  0.3988970000000  0.5122730000000 1.0
C      1  0.5741660000000  0.5674410000000  0.4462340000000 1.0
C      1  0.5858800000000  0.4305310000000  0.5416250000000 1.0
C      1  0.5552610000000  0.5884390000000  0.5770380000000 1.0
C      1  0.4175770000000  0.4471390000000  0.5754520000000 1.0
C      1  0.4154670000000  0.5703650000000  0.4621580000000 1.0
C      1  0.4837730000000  0.4476450000000  0.3939240000000 1.0
C      1  0.4580460000000  0.4501870000000  0.4663400000000 1.0
C      1  0.5074850000000  0.5432260000000  0.4189360000000 1.0
C      1  0.5490980000000  0.4461540000000  0.4818350000000 1.0
C      1  0.5408470000000  0.5411750000000  0.5308860000000 1.0
C      1  0.4932400000000  0.4498050000000  0.5590910000000 1.0
C      1  0.4364910000000  0.5307880000000  0.5240740000000 1.0
C      1  0.4200630000000  0.5432470000000  0.5016070000000 1.0
C      1  0.4629840000000  0.4499780000000  0.4381760000000 1.0
C      1  0.5344450000000  0.5497090000000  0.4275160000000 1.0
C      1  0.5764060000000  0.4499370000000  0.4970140000000 1.0
C      1  0.5376910000000  0.5454640000000  0.5589580000000 1.0
C      1  0.4660330000000  0.4501010000000  0.5680580000000 1.0
C      1  0.4732300000000  0.5062170000000  0.6064150000000 1.0
C      1  0.4208480000000  0.5033470000000  0.5294100000000 1.0
C      1  0.4206160000000  0.5019630000000  0.4209230000000 1.0
C      1  0.5087700000000  0.5136560000000  0.4170580000000 1.0
C      1  0.5907960000000  0.4915270000000  0.4726840000000 1.0
C      1  0.5710260000000  0.4957470000000  0.5792500000000 1.0
C      1  0.5268100000000  0.4157400000000  0.4784560000000 1.0
C      1  0.5270690000000  0.5969380000000  0.5121270000000 1.0
C      1  0.5106920000000  0.4059100000000  0.5243520000000 1.0
C      1  0.4780370000000  0.6016590000000  0.5194290000000 1.0
C      1  0.4786350000000  0.4024460000000  0.4896210000000 1.0
C      1  0.4962970000000  0.5924260000000  0.4754810000000 1.0
C      1  0.5363250000000  0.4271120000000  0.5614250000000 1.0
C      1  0.4627070000000  0.5670200000000  0.5518060000000 1.0
C      1  0.4340540000000  0.4268620000000  0.4982230000000 1.0
C      1  0.4657670000000  0.5684260000000  0.4434950000000 1.0
C      1  0.5347020000000  0.4368770000000  0.4374210000000 1.0
C      1  0.5644690000000  0.5675200000000  0.4973420000000 1.0
C      1  0.5004710000000  0.5976930000000  0.5029350000000 1.0
C      1  0.5059760000000  0.4077200000000  0.4965450000000 1.0
END
