TITL C-3623284-6838-28 3.53593550230836e-06 125000 -779.911115414656 0 0 128 (C1) n - 1
REM
REM in /home/nfs/bkarasulu/CARBON/AIRSS/Generating-Clusters/LCBOP/Higher-Symm/SD-CG/FIRE-CG
REM
REM
REM
REM
REM
REM ./C.cell (b20cbc046b6831c77cfcea5457e17084)
REM AIRSS Version 0.9.1 bugfix July 2018 build 013d7b7c2542+ Fri, 06 Jul 2018 19:26:36 +0100
REM compiler GCC version 9.2.1 20190827 (Red Hat 9.2.1-1)
REM options -cpp -mtune=generic -march=x86-64 -g -O0 -fpre-include=/usr/include/finclude/math-vector-fortran.h
REM seed 480368201 -684471400 -1596331613 181562650 697930847 -538006365 -64946537 -2069542092 -526855326 885790106 -1657387488 1168422444 1970577080 -997936832 -1828962333 -1842402722 269481022 -1190473704 -981757609 -1201997674 1605236442 -1578463214 -738143742 -1696539143 1657447373 -1466391850 -1731696977 -417964173 -342553115 -1317560930 -1353811872 -1643208164 -339981047
REM
CELL 1.54180   50.00000   50.00000   50.00000   90.00000   90.00000   90.00000
LATT -1
SFAC C  
C      1  0.4861830000000  0.5714470000000  0.4154460000000 1.0
C      1  0.4851250000000  0.4437170000000  0.4041370000000 1.0
C      1  0.4786100000000  0.3986930000000  0.5179430000000 1.0
C      1  0.4885410000000  0.4675130000000  0.6070650000000 1.0
C      1  0.4781580000000  0.5927190000000  0.5493820000000 1.0
C      1  0.5163830000000  0.5709230000000  0.4155450000000 1.0
C      1  0.5159500000000  0.4422310000000  0.4055990000000 1.0
C      1  0.5077240000000  0.3939310000000  0.5249200000000 1.0
C      1  0.5187810000000  0.4646700000000  0.6072610000000 1.0
C      1  0.5060860000000  0.6056570000000  0.5500180000000 1.0
C      1  0.5290730000000  0.4672530000000  0.4085320000000 1.0
C      1  0.5265710000000  0.4135480000000  0.5136340000000 1.0
C      1  0.5336500000000  0.4698030000000  0.5838100000000 1.0
C      1  0.5284270000000  0.5864310000000  0.5487560000000 1.0
C      1  0.5304320000000  0.5716560000000  0.4398970000000 1.0
C      1  0.4718290000000  0.4693900000000  0.4075900000000 1.0
C      1  0.4718950000000  0.4204770000000  0.5022460000000 1.0
C      1  0.4737160000000  0.4725110000000  0.5833690000000 1.0
C      1  0.4777050000000  0.5649730000000  0.5563260000000 1.0
C      1  0.4739570000000  0.5685430000000  0.4407450000000 1.0
C      1  0.5581050000000  0.4283640000000  0.4713880000000 1.0
C      1  0.5775830000000  0.4683350000000  0.5530940000000 1.0
C      1  0.5722070000000  0.5573030000000  0.5500160000000 1.0
C      1  0.5807940000000  0.5685430000000  0.4549140000000 1.0
C      1  0.5570830000000  0.5075170000000  0.4147620000000 1.0
C      1  0.4391790000000  0.4324270000000  0.4632560000000 1.0
C      1  0.4390870000000  0.4488720000000  0.5507380000000 1.0
C      1  0.4300860000000  0.5409200000000  0.5603000000000 1.0
C      1  0.4394740000000  0.5789590000000  0.4798510000000 1.0
C      1  0.4431420000000  0.5111880000000  0.4130850000000 1.0
C      1  0.5241250000000  0.4202550000000  0.4244250000000 1.0
C      1  0.5053220000000  0.3823520000000  0.5523230000000 1.0
C      1  0.5265210000000  0.4584070000000  0.6348090000000 1.0
C      1  0.5020100000000  0.6299510000000  0.5333180000000 1.0
C      1  0.5257030000000  0.5529820000000  0.3945120000000 1.0
C      1  0.4747220000000  0.4215550000000  0.4212230000000 1.0
C      1  0.4611270000000  0.3956500000000  0.5411200000000 1.0
C      1  0.4797860000000  0.4632250000000  0.6347720000000 1.0
C      1  0.4613500000000  0.6056380000000  0.5277480000000 1.0
C      1  0.4766600000000  0.5546120000000  0.3934760000000 1.0
C      1  0.4564640000000  0.5964990000000  0.4987380000000 1.0
C      1  0.4650680000000  0.5276810000000  0.3978940000000 1.0
C      1  0.4626790000000  0.4315110000000  0.4457630000000 1.0
C      1  0.4528560000000  0.4211840000000  0.5548670000000 1.0
C      1  0.4744670000000  0.4859060000000  0.6509870000000 1.0
C      1  0.5151480000000  0.6311640000000  0.5081310000000 1.0
C      1  0.5357810000000  0.5253790000000  0.3997250000000 1.0
C      1  0.5354780000000  0.4281290000000  0.4511460000000 1.0
C      1  0.5135430000000  0.3979950000000  0.5746160000000 1.0
C      1  0.5364130000000  0.4794020000000  0.6511550000000 1.0
C      1  0.4597510000000  0.4815190000000  0.4625940000000 1.0
C      1  0.4588410000000  0.4781940000000  0.4922580000000 1.0
C      1  0.4575890000000  0.5041030000000  0.5292270000000 1.0
C      1  0.4524870000000  0.5515780000000  0.5165590000000 1.0
C      1  0.4564850000000  0.5242070000000  0.4779630000000 1.0
C      1  0.5413870000000  0.4777330000000  0.4665000000000 1.0
C      1  0.5427980000000  0.4777230000000  0.4957960000000 1.0
C      1  0.5437840000000  0.5083340000000  0.5295170000000 1.0
C      1  0.5624510000000  0.5750990000000  0.5053710000000 1.0
C      1  0.5445240000000  0.5259000000000  0.4814690000000 1.0
C      1  0.4541480000000  0.5524620000000  0.5663220000000 1.0
C      1  0.4510510000000  0.5792870000000  0.4530050000000 1.0
C      1  0.4470160000000  0.4830640000000  0.4022400000000 1.0
C      1  0.4481800000000  0.4187750000000  0.4869880000000 1.0
C      1  0.4476760000000  0.4639000000000  0.5752000000000 1.0
C      1  0.5543700000000  0.5770520000000  0.5576920000000 1.0
C      1  0.5580280000000  0.5771610000000  0.4428920000000 1.0
C      1  0.5534800000000  0.4804580000000  0.4023600000000 1.0
C      1  0.5495010000000  0.4132510000000  0.4956430000000 1.0
C      1  0.5607590000000  0.4651660000000  0.5746990000000 1.0
C      1  0.4894580000000  0.4815330000000  0.5614930000000 1.0
C      1  0.4958450000000  0.5536060000000  0.5359680000000 1.0
C      1  0.4897160000000  0.5495780000000  0.4555420000000 1.0
C      1  0.4868920000000  0.4861720000000  0.4251370000000 1.0
C      1  0.4880570000000  0.4426710000000  0.5094060000000 1.0
C      1  0.5175000000000  0.4809480000000  0.5632420000000 1.0
C      1  0.5199340000000  0.5666950000000  0.5290220000000 1.0
C      1  0.5160880000000  0.5582170000000  0.4606120000000 1.0
C      1  0.5139480000000  0.4833370000000  0.4262560000000 1.0
C      1  0.5155200000000  0.4400530000000  0.5159250000000 1.0
C      1  0.5351620000000  0.5667500000000  0.5051520000000 1.0
C      1  0.5300100000000  0.5503060000000  0.4829600000000 1.0
C      1  0.5235290000000  0.4904730000000  0.4507760000000 1.0
C      1  0.5294910000000  0.4640130000000  0.5191560000000 1.0
C      1  0.5309470000000  0.4845560000000  0.5395920000000 1.0
C      1  0.4786770000000  0.5472290000000  0.5149630000000 1.0
C      1  0.4784210000000  0.5243750000000  0.4596180000000 1.0
C      1  0.4769020000000  0.4982720000000  0.4480780000000 1.0
C      1  0.4773130000000  0.4676110000000  0.5131380000000 1.0
C      1  0.4770420000000  0.4846600000000  0.5365750000000 1.0
C      1  0.4857460000000  0.4412220000000  0.4601160000000 1.0
C      1  0.4701570000000  0.4213500000000  0.5787860000000 1.0
C      1  0.4936750000000  0.5009090000000  0.6631130000000 1.0
C      1  0.4792700000000  0.6079050000000  0.4838530000000 1.0
C      1  0.4865530000000  0.5107070000000  0.3861180000000 1.0
C      1  0.5118330000000  0.4386530000000  0.4639310000000 1.0
C      1  0.4952680000000  0.4144480000000  0.5863070000000 1.0
C      1  0.5206830000000  0.4980720000000  0.6632060000000 1.0
C      1  0.5030070000000  0.6205870000000  0.4861920000000 1.0
C      1  0.5138440000000  0.5095650000000  0.3871710000000 1.0
C      1  0.4306620000000  0.5310580000000  0.4651830000000 1.0
C      1  0.4314310000000  0.4810980000000  0.4538400000000 1.0
C      1  0.4307930000000  0.4647740000000  0.4988670000000 1.0
C      1  0.4289540000000  0.4989730000000  0.5356280000000 1.0
C      1  0.4247690000000  0.5444230000000  0.5123890000000 1.0
C      1  0.5685060000000  0.5240050000000  0.4651060000000 1.0
C      1  0.5682270000000  0.4757070000000  0.4554550000000 1.0
C      1  0.5730950000000  0.4689530000000  0.5013770000000 1.0
C      1  0.5727340000000  0.5113210000000  0.5299880000000 1.0
C      1  0.5821830000000  0.5537440000000  0.5020650000000 1.0
C      1  0.5844830000000  0.5468660000000  0.4733490000000 1.0
C      1  0.5701910000000  0.5039570000000  0.4432210000000 1.0
C      1  0.5773930000000  0.4537050000000  0.4743630000000 1.0
C      1  0.5814210000000  0.4823290000000  0.5275900000000 1.0
C      1  0.5810550000000  0.5391860000000  0.5282700000000 1.0
C      1  0.4222520000000  0.5534070000000  0.4840300000000 1.0
C      1  0.4287410000000  0.5099920000000  0.4419350000000 1.0
C      1  0.4231240000000  0.4568660000000  0.4698660000000 1.0
C      1  0.4268280000000  0.4683520000000  0.5288660000000 1.0
C      1  0.4192500000000  0.5272730000000  0.5367620000000 1.0
C      1  0.4765290000000  0.3753260000000  0.5556010000000 1.0
C      1  0.5016680000000  0.4465070000000  0.6454010000000 1.0
C      1  0.4727740000000  0.6328490000000  0.5297260000000 1.0
C      1  0.5016090000000  0.5539450000000  0.3765060000000 1.0
C      1  0.4988520000000  0.4044530000000  0.4249680000000 1.0
C      1  0.4574640000000  0.5073670000000  0.5004380000000 1.0
C      1  0.5345060000000  0.5068360000000  0.5010240000000 1.0
C      1  0.5048340000000  0.5084250000000  0.5003910000000 1.0
END
