TITL C-3623286-7563-139 2.34838012288398e-05 125000 -696.701513658022 0 0 116 (C1) n - 1
REM
REM in /home/nfs/bkarasulu/CARBON/AIRSS/Generating-Clusters/LCBOP/Higher-Symm/SD-CG/FIRE-CG
REM
REM
REM
REM
REM
REM ./C.cell (b20cbc046b6831c77cfcea5457e17084)
REM AIRSS Version 0.9.1 bugfix July 2018 build 013d7b7c2542+ Fri, 06 Jul 2018 19:26:36 +0100
REM compiler GCC version 9.2.1 20190827 (Red Hat 9.2.1-1)
REM options -cpp -mtune=generic -march=x86-64 -g -O0 -fpre-include=/usr/include/finclude/math-vector-fortran.h
REM seed 1692150410 -1608822426 238901113 1033845353 896886995 -1864027973 407675423 412717274 -1963822999 -1137114491 -1193689856 309056287 -1607272953 -1643191787 -1998560238 1138677478 1825061198 1440988066 472862831 43822815 1193027542 -734883092 394659343 1066193950 -269561336 -1488723061 -1420208259 1744171862 -661961593 -987746020 936587047 658975004 -1487420767
REM
CELL 1.54180   50.00000   50.00000   50.00000   90.00000   90.00000   90.00000
LATT -1
SFAC C  
C      1  0.4281940000000  0.4780320000000  0.6026820000000 1.0
C      1  0.6497180000000  0.4419310000000  0.4901220000000 1.0
C      1  0.4909220000000  0.5862130000000  0.4279530000000 1.0
C      1  0.5735570000000  0.5024300000000  0.5985430000000 1.0
C      1  0.5689020000000  0.4917320000000  0.4027760000000 1.0
C      1  0.4218030000000  0.5050830000000  0.3959500000000 1.0
C      1  0.4080800000000  0.5760160000000  0.4846580000000 1.0
C      1  0.3959910000000  0.4391650000000  0.5177000000000 1.0
C      1  0.5904690000000  0.5664490000000  0.5156170000000 1.0
C      1  0.5145210000000  0.4068880000000  0.4209800000000 1.0
C      1  0.5101680000000  0.6461790000000  0.5506180000000 1.0
C      1  0.4740310000000  0.3934120000000  0.5638830000000 1.0
C      1  0.4236710000000  0.4790680000000  0.4036580000000 1.0
C      1  0.6496900000000  0.4426440000000  0.5173760000000 1.0
C      1  0.4835540000000  0.6471190000000  0.5476960000000 1.0
C      1  0.5671160000000  0.5187970000000  0.4031150000000 1.0
C      1  0.5733360000000  0.4755130000000  0.5951130000000 1.0
C      1  0.4281600000000  0.5051680000000  0.6024590000000 1.0
C      1  0.3968910000000  0.5768420000000  0.5094000000000 1.0
C      1  0.3953720000000  0.4383790000000  0.4908970000000 1.0
C      1  0.5921890000000  0.5662000000000  0.4885790000000 1.0
C      1  0.5010630000000  0.3921170000000  0.5657290000000 1.0
C      1  0.5178470000000  0.5887320000000  0.4296080000000 1.0
C      1  0.4883300000000  0.4000450000000  0.4183680000000 1.0
C      1  0.5497560000000  0.5073770000000  0.5260460000000 1.0
C      1  0.5167450000000  0.5419660000000  0.5149380000000 1.0
C      1  0.5150810000000  0.5197570000000  0.5576960000000 1.0
C      1  0.4453410000000  0.4837900000000  0.5312170000000 1.0
C      1  0.4458960000000  0.5124930000000  0.4900400000000 1.0
C      1  0.5401590000000  0.4840400000000  0.4858700000000 1.0
C      1  0.4693470000000  0.4448920000000  0.5130650000000 1.0
C      1  0.4770650000000  0.5507550000000  0.4903820000000 1.0
C      1  0.5083670000000  0.4451580000000  0.4832280000000 1.0
C      1  0.4834010000000  0.4663940000000  0.5551580000000 1.0
C      1  0.4855630000000  0.5155540000000  0.4573280000000 1.0
C      1  0.5119110000000  0.4769740000000  0.4468120000000 1.0
C      1  0.5504900000000  0.5091510000000  0.4761670000000 1.0
C      1  0.5267850000000  0.5501400000000  0.4892630000000 1.0
C      1  0.5120320000000  0.5249750000000  0.4497540000000 1.0
C      1  0.4423750000000  0.4850150000000  0.4763310000000 1.0
C      1  0.4543700000000  0.5081790000000  0.5191750000000 1.0
C      1  0.5403400000000  0.4828890000000  0.5145570000000 1.0
C      1  0.4792650000000  0.4541290000000  0.4874410000000 1.0
C      1  0.4881160000000  0.5429450000000  0.5155400000000 1.0
C      1  0.5174960000000  0.4408760000000  0.5131010000000 1.0
C      1  0.4817880000000  0.4863490000000  0.4483850000000 1.0
C      1  0.4857270000000  0.5188730000000  0.5570580000000 1.0
C      1  0.5125950000000  0.4673690000000  0.5529820000000 1.0
C      1  0.6333230000000  0.4600820000000  0.5304230000000 1.0
C      1  0.5301210000000  0.5849220000000  0.4534230000000 1.0
C      1  0.4497800000000  0.5190710000000  0.5936530000000 1.0
C      1  0.3949730000000  0.5540980000000  0.5240900000000 1.0
C      1  0.4030650000000  0.4549790000000  0.4713090000000 1.0
C      1  0.5868990000000  0.5433750000000  0.4750200000000 1.0
C      1  0.4719380000000  0.3997000000000  0.4400410000000 1.0
C      1  0.4656960000000  0.6350390000000  0.5318700000000 1.0
C      1  0.5167810000000  0.4008810000000  0.5453970000000 1.0
C      1  0.5508900000000  0.4627370000000  0.5866800000000 1.0
C      1  0.5442240000000  0.5311090000000  0.4109460000000 1.0
C      1  0.4469160000000  0.4691770000000  0.4138720000000 1.0
C      1  0.6333820000000  0.4586630000000  0.4761450000000 1.0
C      1  0.5301610000000  0.6328070000000  0.5389280000000 1.0
C      1  0.4433240000000  0.5215800000000  0.3977550000000 1.0
C      1  0.4173220000000  0.5524900000000  0.4746520000000 1.0
C      1  0.4047030000000  0.4567040000000  0.5359950000000 1.0
C      1  0.5837050000000  0.5438230000000  0.5288420000000 1.0
C      1  0.4620660000000  0.4036340000000  0.5417600000000 1.0
C      1  0.4767210000000  0.5803130000000  0.4502120000000 1.0
C      1  0.5247310000000  0.4139900000000  0.4452210000000 1.0
C      1  0.5477410000000  0.4763840000000  0.4101200000000 1.0
C      1  0.5513790000000  0.5172870000000  0.5934900000000 1.0
C      1  0.4497650000000  0.4640460000000  0.5938860000000 1.0
C      1  0.5077790000000  0.4125570000000  0.5198740000000 1.0
C      1  0.5191120000000  0.5182210000000  0.4205490000000 1.0
C      1  0.4040020000000  0.5282950000000  0.5163380000000 1.0
C      1  0.4637090000000  0.6171830000000  0.5121910000000 1.0
C      1  0.4799810000000  0.4057440000000  0.4664580000000 1.0
C      1  0.5183000000000  0.5782200000000  0.4804870000000 1.0
C      1  0.4715490000000  0.4850820000000  0.4182980000000 1.0
C      1  0.4752420000000  0.5076060000000  0.5837920000000 1.0
C      1  0.5248620000000  0.4752920000000  0.5801850000000 1.0
C      1  0.6158100000000  0.4780440000000  0.5173060000000 1.0
C      1  0.5786490000000  0.5162570000000  0.4855250000000 1.0
C      1  0.4151150000000  0.4799930000000  0.4693590000000 1.0
C      1  0.5089540000000  0.4161840000000  0.4702290000000 1.0
C      1  0.5253890000000  0.5072770000000  0.5835140000000 1.0
C      1  0.4167400000000  0.5257820000000  0.4883730000000 1.0
C      1  0.4859970000000  0.5774770000000  0.4789740000000 1.0
C      1  0.4753960000000  0.4150550000000  0.5176830000000 1.0
C      1  0.5351990000000  0.6148310000000  0.5199150000000 1.0
C      1  0.4749290000000  0.4754060000000  0.5832200000000 1.0
C      1  0.4689220000000  0.5137550000000  0.4068450000000 1.0
C      1  0.5213300000000  0.4858580000000  0.4191170000000 1.0
C      1  0.6158570000000  0.4773020000000  0.4882640000000 1.0
C      1  0.5777010000000  0.5162510000000  0.5179910000000 1.0
C      1  0.4175010000000  0.4816250000000  0.5363680000000 1.0
C      1  0.4029820000000  0.5055020000000  0.5327770000000 1.0
C      1  0.5175460000000  0.3989250000000  0.4943890000000 1.0
C      1  0.4942210000000  0.5267260000000  0.4050810000000 1.0
C      1  0.5980650000000  0.4966410000000  0.5283480000000 1.0
C      1  0.5982670000000  0.4954260000000  0.4762250000000 1.0
C      1  0.4014500000000  0.5049090000000  0.4721730000000 1.0
C      1  0.4737820000000  0.5996350000000  0.4950080000000 1.0
C      1  0.4667400000000  0.4020420000000  0.4914250000000 1.0
C      1  0.5280460000000  0.5981650000000  0.5005320000000 1.0
C      1  0.4971210000000  0.4759270000000  0.4034650000000 1.0
C      1  0.5005490000000  0.5129800000000  0.6013090000000 1.0
C      1  0.5008370000000  0.4676140000000  0.5984210000000 1.0
C      1  0.4674720000000  0.5283590000000  0.4754950000000 1.0
C      1  0.4646720000000  0.4632940000000  0.5341910000000 1.0
C      1  0.5257490000000  0.4629640000000  0.5283970000000 1.0
C      1  0.5317560000000  0.5297830000000  0.4697490000000 1.0
C      1  0.5238100000000  0.4670330000000  0.4701520000000 1.0
C      1  0.4736230000000  0.5248610000000  0.5321210000000 1.0
C      1  0.5297060000000  0.5257090000000  0.5343310000000 1.0
C      1  0.4662990000000  0.4717430000000  0.4693430000000 1.0
END
