TITL C-3623284-6838-224 -4.35297218790507e-07 125000 -1213.17065200291 0 0 193 (C1) n - 1
REM
REM in /home/nfs/bkarasulu/CARBON/AIRSS/Generating-Clusters/LCBOP/Higher-Symm/SD-CG/FIRE-CG
REM
REM
REM
REM
REM
REM ./C.cell (b20cbc046b6831c77cfcea5457e17084)
REM AIRSS Version 0.9.1 bugfix July 2018 build 013d7b7c2542+ Fri, 06 Jul 2018 19:26:36 +0100
REM compiler GCC version 9.2.1 20190827 (Red Hat 9.2.1-1)
REM options -cpp -mtune=generic -march=x86-64 -g -O0 -fpre-include=/usr/include/finclude/math-vector-fortran.h
REM seed 1954211008 -541156174 143218662 1709576396 -1035416401 -95452231 -915457439 -535475106 -1380264884 2085355784 781545731 -784442068 -1981331327 1514245515 -499400260 -1712909591 -680117291 1053448778 822685619 -1639460918 -1204255338 -229535043 1305500645 1632374465 307442708 1630964488 -1202618418 -948760212 375587698 -1244148279 -1199057430 -443060677 -402765774
REM
CELL 1.54180   50.00000   50.00000   50.00000   90.00000   90.00000   90.00000
LATT -1
SFAC C  
C      1  0.4255340000000  0.5385870000000  0.5389580000000 1.0
C      1  0.5650740000000  0.4636670000000  0.5334810000000 1.0
C      1  0.5726640000000  0.5349540000000  0.5305950000000 1.0
C      1  0.4280270000000  0.4645390000000  0.5344100000000 1.0
C      1  0.6197590000000  0.5293540000000  0.4638280000000 1.0
C      1  0.3798140000000  0.4719220000000  0.4565730000000 1.0
C      1  0.3823330000000  0.5225930000000  0.4571600000000 1.0
C      1  0.6193840000000  0.4812830000000  0.4644480000000 1.0
C      1  0.4741390000000  0.4805030000000  0.6124240000000 1.0
C      1  0.5264750000000  0.5218620000000  0.6099780000000 1.0
C      1  0.5277060000000  0.4952840000000  0.6156950000000 1.0
C      1  0.4727350000000  0.5072430000000  0.6171250000000 1.0
C      1  0.4822220000000  0.3798560000000  0.5285670000000 1.0
C      1  0.5170710000000  0.6185380000000  0.5285000000000 1.0
C      1  0.5114800000000  0.3791110000000  0.5289830000000 1.0
C      1  0.4878690000000  0.6195620000000  0.5297220000000 1.0
C      1  0.4872680000000  0.5898670000000  0.5693800000000 1.0
C      1  0.5126230000000  0.4093280000000  0.5684570000000 1.0
C      1  0.5222590000000  0.5903180000000  0.5693820000000 1.0
C      1  0.4820700000000  0.4080150000000  0.5698290000000 1.0
C      1  0.5281540000000  0.4863610000000  0.4097130000000 1.0
C      1  0.4731590000000  0.5120380000000  0.4096420000000 1.0
C      1  0.4739420000000  0.4844330000000  0.4106890000000 1.0
C      1  0.5272730000000  0.5141030000000  0.4103320000000 1.0
C      1  0.4211730000000  0.4236570000000  0.4578250000000 1.0
C      1  0.5776160000000  0.5786510000000  0.4569620000000 1.0
C      1  0.5782490000000  0.4275530000000  0.4602450000000 1.0
C      1  0.4222300000000  0.5715440000000  0.4593380000000 1.0
C      1  0.5956350000000  0.5724160000000  0.5691660000000 1.0
C      1  0.4134340000000  0.4181250000000  0.5758560000000 1.0
C      1  0.4195730000000  0.5837390000000  0.5806730000000 1.0
C      1  0.5809650000000  0.4198450000000  0.5757440000000 1.0
C      1  0.4060790000000  0.4712990000000  0.4473180000000 1.0
C      1  0.5952290000000  0.5301670000000  0.4503610000000 1.0
C      1  0.5949200000000  0.4804050000000  0.4511010000000 1.0
C      1  0.4088900000000  0.5210230000000  0.4490190000000 1.0
C      1  0.5557930000000  0.4165810000000  0.4765340000000 1.0
C      1  0.4434360000000  0.5821120000000  0.4771890000000 1.0
C      1  0.4466310000000  0.4270220000000  0.4744730000000 1.0
C      1  0.5519700000000  0.5744350000000  0.4726940000000 1.0
C      1  0.5711550000000  0.5094740000000  0.5198080000000 1.0
C      1  0.4366720000000  0.4892900000000  0.5236690000000 1.0
C      1  0.4226940000000  0.5120230000000  0.5308070000000 1.0
C      1  0.5554860000000  0.4866760000000  0.5201630000000 1.0
C      1  0.5121140000000  0.4630520000000  0.5808040000000 1.0
C      1  0.4860100000000  0.5369210000000  0.5793830000000 1.0
C      1  0.4870430000000  0.4595290000000  0.5681550000000 1.0
C      1  0.5105150000000  0.5402970000000  0.5661520000000 1.0
C      1  0.4366520000000  0.4342770000000  0.5745890000000 1.0
C      1  0.5684080000000  0.5635850000000  0.5707220000000 1.0
C      1  0.5572960000000  0.4351290000000  0.5738080000000 1.0
C      1  0.4419530000000  0.5667980000000  0.5775270000000 1.0
C      1  0.5127140000000  0.5262790000000  0.4309020000000 1.0
C      1  0.4875050000000  0.4727270000000  0.4321780000000 1.0
C      1  0.4846260000000  0.5254230000000  0.4312310000000 1.0
C      1  0.5155800000000  0.4718590000000  0.4302760000000 1.0
C      1  0.4359840000000  0.5406100000000  0.5654400000000 1.0
C      1  0.5606820000000  0.4616680000000  0.5613760000000 1.0
C      1  0.5665420000000  0.5372520000000  0.5579910000000 1.0
C      1  0.4323150000000  0.4611450000000  0.5622860000000 1.0
C      1  0.6281090000000  0.4706270000000  0.5353560000000 1.0
C      1  0.3753790000000  0.5114810000000  0.5282710000000 1.0
C      1  0.3757940000000  0.4839380000000  0.5281140000000 1.0
C      1  0.6281650000000  0.5486120000000  0.5358860000000 1.0
C      1  0.4655580000000  0.4260130000000  0.5289970000000 1.0
C      1  0.5310410000000  0.5718930000000  0.5265270000000 1.0
C      1  0.5299400000000  0.4236220000000  0.5243310000000 1.0
C      1  0.4662960000000  0.5763680000000  0.5262050000000 1.0
C      1  0.4846450000000  0.5544600000000  0.5263850000000 1.0
C      1  0.5108300000000  0.4448810000000  0.5271260000000 1.0
C      1  0.5105140000000  0.5539170000000  0.5400650000000 1.0
C      1  0.4856340000000  0.4446230000000  0.5422640000000 1.0
C      1  0.5774840000000  0.5678460000000  0.4286980000000 1.0
C      1  0.4237430000000  0.4326510000000  0.4286680000000 1.0
C      1  0.4255510000000  0.5611890000000  0.4310790000000 1.0
C      1  0.5777430000000  0.4389820000000  0.4326340000000 1.0
C      1  0.6249350000000  0.5204150000000  0.4910050000000 1.0
C      1  0.3722210000000  0.4832050000000  0.4811600000000 1.0
C      1  0.3730900000000  0.5121260000000  0.4813400000000 1.0
C      1  0.6232340000000  0.4910030000000  0.4911960000000 1.0
C      1  0.5229320000000  0.4016300000000  0.5421320000000 1.0
C      1  0.4761150000000  0.5976590000000  0.5436190000000 1.0
C      1  0.4710980000000  0.4011470000000  0.5435770000000 1.0
C      1  0.5284680000000  0.5965050000000  0.5421070000000 1.0
C      1  0.5231920000000  0.3743430000000  0.5034410000000 1.0
C      1  0.4756690000000  0.6241800000000  0.5043900000000 1.0
C      1  0.4714600000000  0.3776670000000  0.5023570000000 1.0
C      1  0.5272990000000  0.6218890000000  0.5021660000000 1.0
C      1  0.4757780000000  0.4620020000000  0.4553910000000 1.0
C      1  0.5248150000000  0.5395780000000  0.4520060000000 1.0
C      1  0.5300670000000  0.4601090000000  0.4518440000000 1.0
C      1  0.4702860000000  0.5372290000000  0.4529200000000 1.0
C      1  0.5716860000000  0.4921000000000  0.4635680000000 1.0
C      1  0.4302510000000  0.5084510000000  0.4632330000000 1.0
C      1  0.4288580000000  0.4802000000000  0.4625680000000 1.0
C      1  0.5712050000000  0.5204390000000  0.4633180000000 1.0
C      1  0.5120140000000  0.5999600000000  0.4365390000000 1.0
C      1  0.4858940000000  0.4031500000000  0.4374740000000 1.0
C      1  0.4835450000000  0.6010860000000  0.4374010000000 1.0
C      1  0.5141890000000  0.4005280000000  0.4372360000000 1.0
C      1  0.6177200000000  0.5629080000000  0.5564720000000 1.0
C      1  0.3921250000000  0.4031520000000  0.5750000000000 1.0
C      1  0.3989700000000  0.5996520000000  0.5818140000000 1.0
C      1  0.6030050000000  0.4059480000000  0.5754540000000 1.0
C      1  0.5215390000000  0.5058800000000  0.4899670000000 1.0
C      1  0.4606200000000  0.4940130000000  0.5097730000000 1.0
C      1  0.4639570000000  0.5189190000000  0.4967220000000 1.0
C      1  0.5301680000000  0.4867710000000  0.5083740000000 1.0
C      1  0.5406870000000  0.5573300000000  0.3951420000000 1.0
C      1  0.4617940000000  0.4412470000000  0.3955510000000 1.0
C      1  0.4596950000000  0.5546290000000  0.3939490000000 1.0
C      1  0.5438260000000  0.4444850000000  0.3951510000000 1.0
C      1  0.5753620000000  0.5570900000000  0.5132250000000 1.0
C      1  0.4219690000000  0.4443400000000  0.5157250000000 1.0
C      1  0.4207810000000  0.5573140000000  0.5176970000000 1.0
C      1  0.5744740000000  0.4433850000000  0.5160840000000 1.0
C      1  0.4734620000000  0.4143720000000  0.4643700000000 1.0
C      1  0.5253680000000  0.5871570000000  0.4621990000000 1.0
C      1  0.5283780000000  0.4098620000000  0.4638970000000 1.0
C      1  0.4704470000000  0.5896420000000  0.4641020000000 1.0
C      1  0.5331080000000  0.4219900000000  0.5847350000000 1.0
C      1  0.4675340000000  0.5782940000000  0.5870030000000 1.0
C      1  0.4613170000000  0.4214050000000  0.5859580000000 1.0
C      1  0.5455970000000  0.5786320000000  0.5832660000000 1.0
C      1  0.5743570000000  0.5199030000000  0.4073220000000 1.0
C      1  0.4278290000000  0.4794540000000  0.4049330000000 1.0
C      1  0.4276170000000  0.5152500000000  0.4050340000000 1.0
C      1  0.5750620000000  0.4845170000000  0.4072010000000 1.0
C      1  0.4530750000000  0.5262550000000  0.3959740000000 1.0
C      1  0.5498570000000  0.4729540000000  0.3977300000000 1.0
C      1  0.5480510000000  0.5295190000000  0.3990520000000 1.0
C      1  0.4541410000000  0.4692020000000  0.3980220000000 1.0
C      1  0.3977140000000  0.5510310000000  0.5006990000000 1.0
C      1  0.5992040000000  0.4484650000000  0.5021980000000 1.0
C      1  0.6001740000000  0.5609690000000  0.4995700000000 1.0
C      1  0.3977410000000  0.4453390000000  0.5001810000000 1.0
C      1  0.4429710000000  0.5744750000000  0.5075110000000 1.0
C      1  0.5537390000000  0.4252010000000  0.5060860000000 1.0
C      1  0.5512850000000  0.5699860000000  0.5047580000000 1.0
C      1  0.4455070000000  0.4296980000000  0.5068980000000 1.0
C      1  0.3796550000000  0.4681260000000  0.5045230000000 1.0
C      1  0.6208810000000  0.5426490000000  0.5091130000000 1.0
C      1  0.6170030000000  0.4703090000000  0.5103020000000 1.0
C      1  0.3801210000000  0.5274320000000  0.5048960000000 1.0
C      1  0.5470770000000  0.5827560000000  0.6110840000000 1.0
C      1  0.4632740000000  0.4196040000000  0.6139490000000 1.0
C      1  0.4717690000000  0.5800460000000  0.6146850000000 1.0
C      1  0.5312400000000  0.4194750000000  0.6126430000000 1.0
C      1  0.5167000000000  0.4367500000000  0.3882740000000 1.0
C      1  0.4865270000000  0.5621010000000  0.3868180000000 1.0
C      1  0.4893710000000  0.4354670000000  0.3887190000000 1.0
C      1  0.5136660000000  0.5632690000000  0.3874380000000 1.0
C      1  0.4429820000000  0.5709220000000  0.4106270000000 1.0
C      1  0.5611880000000  0.4288240000000  0.4115620000000 1.0
C      1  0.5583110000000  0.5751900000000  0.4087680000000 1.0
C      1  0.4438050000000  0.4241190000000  0.4099430000000 1.0
C      1  0.4505500000000  0.4630000000000  0.4656980000000 1.0
C      1  0.5494040000000  0.5382070000000  0.4634700000000 1.0
C      1  0.5502040000000  0.4746070000000  0.4642980000000 1.0
C      1  0.4536750000000  0.5223990000000  0.4706260000000 1.0
C      1  0.5107700000000  0.5290570000000  0.4994960000000 1.0
C      1  0.4830730000000  0.4779070000000  0.5097560000000 1.0
C      1  0.4845090000000  0.5353000000000  0.5064830000000 1.0
C      1  0.5095070000000  0.4692340000000  0.5139800000000 1.0
C      1  0.4167340000000  0.5335180000000  0.4253890000000 1.0
C      1  0.5876020000000  0.4668170000000  0.4274280000000 1.0
C      1  0.5879300000000  0.5401230000000  0.4248770000000 1.0
C      1  0.4141820000000  0.4602770000000  0.4227880000000 1.0
C      1  0.4683670000000  0.4725180000000  0.5857910000000 1.0
C      1  0.5305280000000  0.5287190000000  0.5826810000000 1.0
C      1  0.5317420000000  0.4782250000000  0.5935600000000 1.0
C      1  0.4671490000000  0.5231250000000  0.5944900000000 1.0
C      1  0.4842830000000  0.3929080000000  0.4824370000000 1.0
C      1  0.5144060000000  0.6070150000000  0.4819950000000 1.0
C      1  0.5134470000000  0.3906520000000  0.4824790000000 1.0
C      1  0.4853190000000  0.6082500000000  0.4831430000000 1.0
C      1  0.5996930000000  0.5763790000000  0.4754170000000 1.0
C      1  0.3988130000000  0.4290600000000  0.4759500000000 1.0
C      1  0.3992320000000  0.5641690000000  0.4751250000000 1.0
C      1  0.6003800000000  0.4350430000000  0.4770730000000 1.0
C      1  0.4819220000000  0.5616030000000  0.4617870000000 1.0
C      1  0.5174600000000  0.4380780000000  0.4638740000000 1.0
C      1  0.5097690000000  0.5615030000000  0.4614500000000 1.0
C      1  0.4898760000000  0.4396960000000  0.4656750000000 1.0
C      1  0.4765120000000  0.5801450000000  0.6403070000000 1.0
C      1  0.5314360000000  0.4185310000000  0.6386840000000 1.0
C      1  0.5482070000000  0.5857550000000  0.6369440000000 1.0
C      1  0.4628610000000  0.4175280000000  0.6399210000000 1.0
C      1  0.5529700000000  0.4861200000000  0.5753240000000 1.0
C      1  0.4443640000000  0.5147520000000  0.5782810000000 1.0
C      1  0.4442980000000  0.4845840000000  0.5750850000000 1.0
C      1  0.5532250000000  0.5154040000000  0.5708460000000 1.0
C      1  0.5095740000000  0.4970890000000  0.4674020000000 1.0
END
