TITL C-3623282-6910-402 6.69428206969905e-07 125000 -561.252939970308 0 0 92 (C1) n - 1
REM
REM in /home/nfs/bkarasulu/CARBON/AIRSS/Generating-Clusters/LCBOP/Higher-Symm/SD-CG/FIRE-CG
REM
REM
REM
REM
REM
REM ./C.cell (b20cbc046b6831c77cfcea5457e17084)
REM AIRSS Version 0.9.1 bugfix July 2018 build 013d7b7c2542+ Fri, 06 Jul 2018 19:26:36 +0100
REM compiler GCC version 9.2.1 20190827 (Red Hat 9.2.1-1)
REM options -cpp -mtune=generic -march=x86-64 -g -O0 -fpre-include=/usr/include/finclude/math-vector-fortran.h
REM seed -176180249 76866349 339804443 566900499 2078728113 516343014 -1475513647 -1182535013 1891751917 710108993 2078360898 267271226 -1821235691 2021346675 889078153 -841311764 -1439411605 -1715618988 -549955561 1640928061 1494583096 860693750 1755714723 394979806 -638781065 -1409371856 1378244322 -19386538 -1856869128 -1170395868 182373675 862603777 -99954701
REM
CELL 1.54180   50.00000   50.00000   50.00000   90.00000   90.00000   90.00000
LATT -1
SFAC C  
C      1  0.4683630000000  0.4599610000000  0.5939360000000 1.0
C      1  0.4979350000000  0.5968610000000  0.5558400000000 1.0
C      1  0.5504870000000  0.4670560000000  0.5538820000000 1.0
C      1  0.5203060000000  0.5143940000000  0.5319850000000 1.0
C      1  0.4742210000000  0.5466960000000  0.4313540000000 1.0
C      1  0.5187300000000  0.4733200000000  0.4898420000000 1.0
C      1  0.4171410000000  0.4730040000000  0.5326080000000 1.0
C      1  0.5813620000000  0.5085990000000  0.5624870000000 1.0
C      1  0.4771460000000  0.4947960000000  0.5224500000000 1.0
C      1  0.4599280000000  0.4249120000000  0.4661630000000 1.0
C      1  0.5665090000000  0.5344130000000  0.5598050000000 1.0
C      1  0.5179940000000  0.5529360000000  0.5669890000000 1.0
C      1  0.4928840000000  0.5159820000000  0.5306310000000 1.0
C      1  0.4931790000000  0.4658670000000  0.4803090000000 1.0
C      1  0.4674730000000  0.5154390000000  0.5759040000000 1.0
C      1  0.5018750000000  0.4781240000000  0.4180720000000 1.0
C      1  0.4772170000000  0.4943940000000  0.4184380000000 1.0
C      1  0.5398640000000  0.5338810000000  0.5709980000000 1.0
C      1  0.5182860000000  0.5952280000000  0.4747950000000 1.0
C      1  0.5140750000000  0.4385050000000  0.5669430000000 1.0
C      1  0.4937140000000  0.4629880000000  0.6027370000000 1.0
C      1  0.4638210000000  0.4264170000000  0.4964090000000 1.0
C      1  0.5373990000000  0.5874980000000  0.5268370000000 1.0
C      1  0.5110500000000  0.5565310000000  0.5061700000000 1.0
C      1  0.5222240000000  0.5807080000000  0.5542420000000 1.0
C      1  0.5386770000000  0.4399440000000  0.5508610000000 1.0
C      1  0.5335190000000  0.5075620000000  0.5807930000000 1.0
C      1  0.5577320000000  0.5223760000000  0.4273350000000 1.0
C      1  0.5373790000000  0.4600010000000  0.5080020000000 1.0
C      1  0.4431080000000  0.4750370000000  0.4736330000000 1.0
C      1  0.5346950000000  0.5117870000000  0.5098160000000 1.0
C      1  0.4749240000000  0.5096410000000  0.4759500000000 1.0
C      1  0.4925790000000  0.4192170000000  0.4991090000000 1.0
C      1  0.4283200000000  0.4995460000000  0.4221800000000 1.0
C      1  0.4191990000000  0.4848880000000  0.4661030000000 1.0
C      1  0.5336120000000  0.4516760000000  0.4466360000000 1.0
C      1  0.4346190000000  0.4947210000000  0.5385100000000 1.0
C      1  0.5557080000000  0.4147860000000  0.4707690000000 1.0
C      1  0.5233770000000  0.4961910000000  0.4136280000000 1.0
C      1  0.5313440000000  0.4357480000000  0.5229060000000 1.0
C      1  0.5572290000000  0.4735330000000  0.5261310000000 1.0
C      1  0.4462330000000  0.4556790000000  0.4272750000000 1.0
C      1  0.5352140000000  0.4798200000000  0.5757790000000 1.0
C      1  0.5372810000000  0.5393110000000  0.4190830000000 1.0
C      1  0.4706490000000  0.4813060000000  0.4734320000000 1.0
C      1  0.5101540000000  0.4532630000000  0.4287290000000 1.0
C      1  0.4597300000000  0.4647280000000  0.5672970000000 1.0
C      1  0.5326140000000  0.4282820000000  0.4645500000000 1.0
C      1  0.5643850000000  0.5477220000000  0.5113870000000 1.0
C      1  0.4849330000000  0.5388500000000  0.5673950000000 1.0
C      1  0.5021980000000  0.5193010000000  0.4759810000000 1.0
C      1  0.4934910000000  0.4304020000000  0.4293040000000 1.0
C      1  0.5135290000000  0.5243870000000  0.4124830000000 1.0
C      1  0.4501310000000  0.5026850000000  0.5160200000000 1.0
C      1  0.4963020000000  0.5828520000000  0.5115600000000 1.0
C      1  0.4857850000000  0.4185360000000  0.4537100000000 1.0
C      1  0.4538950000000  0.5201020000000  0.4932140000000 1.0
C      1  0.5078080000000  0.5469450000000  0.4795090000000 1.0
C      1  0.5191890000000  0.6000450000000  0.5048420000000 1.0
C      1  0.5697770000000  0.4829100000000  0.4688510000000 1.0
C      1  0.4515190000000  0.4384050000000  0.5210010000000 1.0
C      1  0.5030940000000  0.5711900000000  0.4633390000000 1.0
C      1  0.6043040000000  0.5295120000000  0.5304170000000 1.0
C      1  0.5489840000000  0.4945990000000  0.4272660000000 1.0
C      1  0.5067130000000  0.4181290000000  0.4735890000000 1.0
C      1  0.4808260000000  0.5931300000000  0.5334650000000 1.0
C      1  0.4251720000000  0.4493620000000  0.5217310000000 1.0
C      1  0.5526520000000  0.4745330000000  0.4473750000000 1.0
C      1  0.4667010000000  0.4445380000000  0.5462030000000 1.0
C      1  0.5796450000000  0.4887380000000  0.5173840000000 1.0
C      1  0.4102690000000  0.4999980000000  0.4439780000000 1.0
C      1  0.4924630000000  0.4319870000000  0.5482860000000 1.0
C      1  0.4430200000000  0.4371580000000  0.4469200000000 1.0
C      1  0.3863590000000  0.5140550000000  0.4437070000000 1.0
C      1  0.5155900000000  0.4605990000000  0.5855420000000 1.0
C      1  0.5799600000000  0.5456160000000  0.5353650000000 1.0
C      1  0.3640440000000  0.5275190000000  0.4436830000000 1.0
C      1  0.4784350000000  0.5391020000000  0.5391090000000 1.0
C      1  0.4515220000000  0.4926590000000  0.5627640000000 1.0
C      1  0.5223110000000  0.5015510000000  0.4869780000000 1.0
C      1  0.5770070000000  0.5001670000000  0.4905820000000 1.0
C      1  0.4760180000000  0.5655560000000  0.4530560000000 1.0
C      1  0.4511380000000  0.4828690000000  0.4197470000000 1.0
C      1  0.4522550000000  0.5478560000000  0.4975530000000 1.0
C      1  0.5396290000000  0.5604080000000  0.5145120000000 1.0
C      1  0.4578050000000  0.5541600000000  0.5251530000000 1.0
C      1  0.5051970000000  0.4246880000000  0.5230950000000 1.0
C      1  0.4558080000000  0.5807540000000  0.5342850000000 1.0
C      1  0.4562820000000  0.5640980000000  0.4742340000000 1.0
C      1  0.4851210000000  0.5235760000000  0.4187980000000 1.0
C      1  0.5953840000000  0.5023520000000  0.5374780000000 1.0
C      1  0.5722710000000  0.5288470000000  0.4908150000000 1.0
END
