TITL C-3623286-7563-1394 0.300336999673331 125000 -720.158762254211 0 0 121 (C1) n - 1
REM
REM in /home/nfs/bkarasulu/CARBON/AIRSS/Generating-Clusters/LCBOP/Higher-Symm/SD-CG/FIRE-CG
REM
REM
REM
REM
REM
REM ./C.cell (b20cbc046b6831c77cfcea5457e17084)
REM AIRSS Version 0.9.1 bugfix July 2018 build 013d7b7c2542+ Fri, 06 Jul 2018 19:26:36 +0100
REM compiler GCC version 9.2.1 20190827 (Red Hat 9.2.1-1)
REM options -cpp -mtune=generic -march=x86-64 -g -O0 -fpre-include=/usr/include/finclude/math-vector-fortran.h
REM seed 126974493 1507050163 1190176308 -409336288 1212511712 1105558826 1061525229 -820490744 1766043346 -1171312849 211193499 53789111 1428125222 -1861957710 913896424 -865711178 229938774 147602081 770396265 1053114843 -1248960610 -159352786 -1220905872 799727253 856727625 1148277750 1866727462 -1343104536 240132158 1697002117 -1070803632 -537130288 1801308357
REM
CELL 1.54180   50.00000   50.00000   50.00000   90.00000   90.00000   90.00000
LATT -1
SFAC C  
C      1  0.5770390000000  0.5576970000000  0.5134360000000 1.0
C      1  0.4814970000000  0.4598980000000  0.4876020000000 1.0
C      1  0.5487240000000  0.4115870000000  0.4918080000000 1.0
C      1  0.6243080000000  0.4605270000000  0.5103790000000 1.0
C      1  0.4864160000000  0.6138510000000  0.4813050000000 1.0
C      1  0.5629270000000  0.5089300000000  0.4584530000000 1.0
C      1  0.4838930000000  0.5630550000000  0.5225240000000 1.0
C      1  0.4604820000000  0.5028130000000  0.5556520000000 1.0
C      1  0.4722150000000  0.5306090000000  0.2877590000000 1.0
C      1  0.6176490000000  0.5242840000000  0.5490630000000 1.0
C      1  0.4279680000000  0.5686750000000  0.5524820000000 1.0
C      1  0.4477850000000  0.4330950000000  0.5588010000000 1.0
C      1  0.4810420000000  0.5330910000000  0.3121630000000 1.0
C      1  0.4790570000000  0.4526910000000  0.5326220000000 1.0
C      1  0.4886470000000  0.6404680000000  0.4747730000000 1.0
C      1  0.5536810000000  0.5056730000000  0.5790050000000 1.0
C      1  0.3812560000000  0.4260280000000  0.4986240000000 1.0
C      1  0.5839870000000  0.4934970000000  0.5403290000000 1.0
C      1  0.5097540000000  0.5770230000000  0.5334030000000 1.0
C      1  0.3657270000000  0.4486370000000  0.4583600000000 1.0
C      1  0.4557940000000  0.4827470000000  0.5753420000000 1.0
C      1  0.5243660000000  0.5784320000000  0.4687210000000 1.0
C      1  0.4543880000000  0.3719610000000  0.3841030000000 1.0
C      1  0.4684390000000  0.4515470000000  0.4637720000000 1.0
C      1  0.4706820000000  0.6071700000000  0.5043390000000 1.0
C      1  0.5177880000000  0.5510420000000  0.4752940000000 1.0
C      1  0.4989880000000  0.5381400000000  0.3617820000000 1.0
C      1  0.4228010000000  0.4785330000000  0.4968700000000 1.0
C      1  0.4641100000000  0.5040180000000  0.4515040000000 1.0
C      1  0.5528290000000  0.4365690000000  0.5046850000000 1.0
C      1  0.4836370000000  0.5195260000000  0.5533950000000 1.0
C      1  0.5222470000000  0.4205780000000  0.4516210000000 1.0
C      1  0.5278970000000  0.5200900000000  0.4259690000000 1.0
C      1  0.5079100000000  0.5406960000000  0.3865890000000 1.0
C      1  0.4034860000000  0.4181730000000  0.5440220000000 1.0
C      1  0.4193130000000  0.4345920000000  0.5601810000000 1.0
C      1  0.5751490000000  0.5113250000000  0.5620810000000 1.0
C      1  0.5076590000000  0.5451980000000  0.6171450000000 1.0
C      1  0.4164780000000  0.5571770000000  0.5756440000000 1.0
C      1  0.4887690000000  0.4549070000000  0.5595020000000 1.0
C      1  0.4782950000000  0.5467980000000  0.5486730000000 1.0
C      1  0.4757490000000  0.5707580000000  0.5666180000000 1.0
C      1  0.5137880000000  0.5696000000000  0.4254820000000 1.0
C      1  0.3825820000000  0.4473490000000  0.4804980000000 1.0
C      1  0.6066870000000  0.4825230000000  0.4431120000000 1.0
C      1  0.5887190000000  0.4999490000000  0.4521110000000 1.0
C      1  0.5407510000000  0.4998260000000  0.4420020000000 1.0
C      1  0.4016160000000  0.4672980000000  0.4855080000000 1.0
C      1  0.5011980000000  0.4175360000000  0.4964040000000 1.0
C      1  0.5571370000000  0.4855090000000  0.5982610000000 1.0
C      1  0.5052400000000  0.4466320000000  0.4961580000000 1.0
C      1  0.5492140000000  0.4602460000000  0.6016910000000 1.0
C      1  0.4900170000000  0.5356160000000  0.3369760000000 1.0
C      1  0.5756620000000  0.4495300000000  0.5159370000000 1.0
C      1  0.5296480000000  0.4546230000000  0.5081860000000 1.0
C      1  0.5389750000000  0.4428080000000  0.4426970000000 1.0
C      1  0.5231270000000  0.4097860000000  0.4787630000000 1.0
C      1  0.4628980000000  0.4551830000000  0.5735330000000 1.0
C      1  0.5333210000000  0.5323050000000  0.4897850000000 1.0
C      1  0.4718360000000  0.5860030000000  0.6746120000000 1.0
C      1  0.4649940000000  0.4263050000000  0.5344500000000 1.0
C      1  0.4369420000000  0.3606970000000  0.3683420000000 1.0
C      1  0.5671090000000  0.4740970000000  0.5291210000000 1.0
C      1  0.4960590000000  0.5586310000000  0.6368210000000 1.0
C      1  0.6025630000000  0.4450150000000  0.5107050000000 1.0
C      1  0.6302610000000  0.4872110000000  0.5167360000000 1.0
C      1  0.5667990000000  0.3912220000000  0.4917860000000 1.0
C      1  0.5964440000000  0.5303450000000  0.5656720000000 1.0
C      1  0.4470200000000  0.4344530000000  0.4655050000000 1.0
C      1  0.5180560000000  0.5129210000000  0.5038100000000 1.0
C      1  0.5639450000000  0.4346560000000  0.4322050000000 1.0
C      1  0.5383930000000  0.4767170000000  0.5251760000000 1.0
C      1  0.5113630000000  0.5107670000000  0.5525620000000 1.0
C      1  0.5167070000000  0.5434740000000  0.4130440000000 1.0
C      1  0.4684550000000  0.4684920000000  0.5113860000000 1.0
C      1  0.5365960000000  0.5790490000000  0.4418530000000 1.0
C      1  0.5062400000000  0.4074110000000  0.4327710000000 1.0
C      1  0.5117970000000  0.4456590000000  0.5715350000000 1.0
C      1  0.4525770000000  0.5839400000000  0.5525050000000 1.0
C      1  0.5175390000000  0.5327250000000  0.5959700000000 1.0
C      1  0.6046440000000  0.5464980000000  0.4761310000000 1.0
C      1  0.4740290000000  0.5589430000000  0.4527730000000 1.0
C      1  0.4295590000000  0.5678930000000  0.4774310000000 1.0
C      1  0.5233130000000  0.5004090000000  0.5284920000000 1.0
C      1  0.4154780000000  0.5773570000000  0.4560730000000 1.0
C      1  0.4072090000000  0.4565120000000  0.5734920000000 1.0
C      1  0.4999430000000  0.5949370000000  0.4646860000000 1.0
C      1  0.4013350000000  0.4814320000000  0.5813220000000 1.0
C      1  0.5020950000000  0.5833710000000  0.5606570000000 1.0
C      1  0.5900820000000  0.4385020000000  0.4288460000000 1.0
C      1  0.4853800000000  0.5135250000000  0.4655340000000 1.0
C      1  0.4721240000000  0.3834160000000  0.4001280000000 1.0
C      1  0.4838760000000  0.5724140000000  0.6559030000000 1.0
C      1  0.4074720000000  0.5339530000000  0.5857000000000 1.0
C      1  0.4179660000000  0.5657840000000  0.5030820000000 1.0
C      1  0.6117810000000  0.5008820000000  0.5330240000000 1.0
C      1  0.4897010000000  0.3949970000000  0.4162230000000 1.0
C      1  0.6527900000000  0.4993230000000  0.5071890000000 1.0
C      1  0.4650020000000  0.5894270000000  0.5255280000000 1.0
C      1  0.5595420000000  0.5273220000000  0.4801540000000 1.0
C      1  0.5314480000000  0.4446490000000  0.5893550000000 1.0
C      1  0.3500280000000  0.4498340000000  0.4375910000000 1.0
C      1  0.3893930000000  0.4154640000000  0.5216350000000 1.0
C      1  0.6272960000000  0.5516230000000  0.4643000000000 1.0
C      1  0.5276910000000  0.5166500000000  0.5754040000000 1.0
C      1  0.4426490000000  0.5040010000000  0.5331950000000 1.0
C      1  0.5806900000000  0.5435350000000  0.4902430000000 1.0
C      1  0.4891390000000  0.5802090000000  0.4404290000000 1.0
C      1  0.6081390000000  0.4576850000000  0.4333780000000 1.0
C      1  0.4968620000000  0.5026700000000  0.4884420000000 1.0
C      1  0.5344360000000  0.4714700000000  0.4426460000000 1.0
C      1  0.4798960000000  0.4097600000000  0.5150630000000 1.0
C      1  0.4705410000000  0.5515280000000  0.4989700000000 1.0
C      1  0.4945640000000  0.5397580000000  0.4610320000000 1.0
C      1  0.4019620000000  0.5077490000000  0.5862090000000 1.0
C      1  0.4448170000000  0.4838390000000  0.5133060000000 1.0
C      1  0.4260520000000  0.5262450000000  0.5294330000000 1.0
C      1  0.5615500000000  0.5862370000000  0.4343570000000 1.0
C      1  0.4217720000000  0.5541260000000  0.5282840000000 1.0
C      1  0.4565560000000  0.5597230000000  0.4752830000000 1.0
C      1  0.4780960000000  0.4581270000000  0.4390070000000 1.0
END
