TITL C-3623284-6838-417 -6.3600349444277e-07 125000 -802.556667650804 0 0 132 (C1) n - 1
REM
REM in /home/nfs/bkarasulu/CARBON/AIRSS/Generating-Clusters/LCBOP/Higher-Symm/SD-CG/FIRE-CG
REM
REM
REM
REM
REM
REM ./C.cell (b20cbc046b6831c77cfcea5457e17084)
REM AIRSS Version 0.9.1 bugfix July 2018 build 013d7b7c2542+ Fri, 06 Jul 2018 19:26:36 +0100
REM compiler GCC version 9.2.1 20190827 (Red Hat 9.2.1-1)
REM options -cpp -mtune=generic -march=x86-64 -g -O0 -fpre-include=/usr/include/finclude/math-vector-fortran.h
REM seed -950398424 1491185037 1668502824 955535386 409433328 -429302642 -1260335441 1131440558 -308455239 -1536496324 -431552905 -572371671 -1288007152 1490758600 137047163 -181078793 750743750 1810162288 -597535162 -2125464841 -1027774938 -322372896 -1985656923 -817236979 -1011993729 2086954817 727233384 1124307919 812269150 -745262729 656639038 930180722 846013552
REM
CELL 1.54180   50.00000   50.00000   50.00000   90.00000   90.00000   90.00000
LATT -1
SFAC C  
C      1  0.4646130000000  0.5841020000000  0.4405460000000 1.0
C      1  0.5943220000000  0.4856470000000  0.4404300000000 1.0
C      1  0.4457410000000  0.4288450000000  0.4392780000000 1.0
C      1  0.4657490000000  0.5883180000000  0.5592280000000 1.0
C      1  0.5913490000000  0.4877440000000  0.5595680000000 1.0
C      1  0.4349150000000  0.4137590000000  0.5569590000000 1.0
C      1  0.5237540000000  0.5131410000000  0.4315900000000 1.0
C      1  0.4985720000000  0.4724560000000  0.4312930000000 1.0
C      1  0.4761750000000  0.5146950000000  0.4327890000000 1.0
C      1  0.5269320000000  0.5131590000000  0.5692190000000 1.0
C      1  0.4954280000000  0.4770230000000  0.5644380000000 1.0
C      1  0.4804070000000  0.5211030000000  0.5719600000000 1.0
C      1  0.4353850000000  0.4268940000000  0.4844730000000 1.0
C      1  0.4705390000000  0.5923400000000  0.4857440000000 1.0
C      1  0.5950280000000  0.4789290000000  0.4863150000000 1.0
C      1  0.4341370000000  0.4249350000000  0.5121170000000 1.0
C      1  0.4713290000000  0.5922190000000  0.5134390000000 1.0
C      1  0.5944710000000  0.4793890000000  0.5140580000000 1.0
C      1  0.4128070000000  0.5666430000000  0.4443760000000 1.0
C      1  0.6019000000000  0.5405690000000  0.4415360000000 1.0
C      1  0.4856670000000  0.3916850000000  0.4421090000000 1.0
C      1  0.4157060000000  0.5651050000000  0.5585120000000 1.0
C      1  0.6021720000000  0.5416230000000  0.5567530000000 1.0
C      1  0.4874340000000  0.3898900000000  0.5583890000000 1.0
C      1  0.5383250000000  0.4791510000000  0.4631820000000 1.0
C      1  0.4632790000000  0.4769510000000  0.4648020000000 1.0
C      1  0.4988770000000  0.5432210000000  0.4657630000000 1.0
C      1  0.5370040000000  0.4806140000000  0.5343020000000 1.0
C      1  0.4633300000000  0.5003710000000  0.5307870000000 1.0
C      1  0.5028320000000  0.5468370000000  0.5380500000000 1.0
C      1  0.5448400000000  0.5203880000000  0.5111710000000 1.0
C      1  0.4864850000000  0.4547640000000  0.5217780000000 1.0
C      1  0.4664370000000  0.5258190000000  0.5186920000000 1.0
C      1  0.5452250000000  0.5198620000000  0.4847380000000 1.0
C      1  0.4903030000000  0.4541940000000  0.4955960000000 1.0
C      1  0.4625930000000  0.5288790000000  0.4915490000000 1.0
C      1  0.5011410000000  0.5275860000000  0.4418100000000 1.0
C      1  0.5227930000000  0.4849670000000  0.4400380000000 1.0
C      1  0.4752100000000  0.4871700000000  0.4411230000000 1.0
C      1  0.5061970000000  0.5317760000000  0.5623470000000 1.0
C      1  0.5217180000000  0.4865410000000  0.5576010000000 1.0
C      1  0.4748710000000  0.4965370000000  0.5569410000000 1.0
C      1  0.4009310000000  0.4429620000000  0.4219090000000 1.0
C      1  0.4997810000000  0.6149140000000  0.4226610000000 1.0
C      1  0.6026670000000  0.4384490000000  0.4258580000000 1.0
C      1  0.3901530000000  0.4320520000000  0.5700440000000 1.0
C      1  0.5009950000000  0.6208000000000  0.5737230000000 1.0
C      1  0.5987660000000  0.4411390000000  0.5763420000000 1.0
C      1  0.5942400000000  0.5303970000000  0.4669980000000 1.0
C      1  0.4805630000000  0.4037470000000  0.4672490000000 1.0
C      1  0.4264570000000  0.5643140000000  0.4692120000000 1.0
C      1  0.5937060000000  0.5313240000000  0.5316210000000 1.0
C      1  0.4793050000000  0.3983570000000  0.5322670000000 1.0
C      1  0.4284330000000  0.5629810000000  0.5331230000000 1.0
C      1  0.4717840000000  0.5469870000000  0.4729360000000 1.0
C      1  0.5563570000000  0.5001630000000  0.4688440000000 1.0
C      1  0.4741510000000  0.4521420000000  0.4731650000000 1.0
C      1  0.4752870000000  0.5485600000000  0.5318010000000 1.0
C      1  0.5551520000000  0.5014860000000  0.5284530000000 1.0
C      1  0.4690060000000  0.4432370000000  0.5381770000000 1.0
C      1  0.5743710000000  0.4341340000000  0.5154190000000 1.0
C      1  0.4041220000000  0.4644330000000  0.5133770000000 1.0
C      1  0.5204450000000  0.6011000000000  0.5133430000000 1.0
C      1  0.5751210000000  0.4336420000000  0.4858090000000 1.0
C      1  0.4042920000000  0.4654910000000  0.4836550000000 1.0
C      1  0.5196920000000  0.5997530000000  0.4836260000000 1.0
C      1  0.4447020000000  0.4871830000000  0.4838030000000 1.0
C      1  0.5171770000000  0.5538480000000  0.4854650000000 1.0
C      1  0.5365320000000  0.4593710000000  0.4839140000000 1.0
C      1  0.4447160000000  0.4871270000000  0.5137250000000 1.0
C      1  0.5190890000000  0.5554780000000  0.5161170000000 1.0
C      1  0.5359540000000  0.4599580000000  0.5143490000000 1.0
C      1  0.4671670000000  0.5297590000000  0.5953890000000 1.0
C      1  0.5439640000000  0.5169690000000  0.5916190000000 1.0
C      1  0.4914580000000  0.4586200000000  0.5859430000000 1.0
C      1  0.4613610000000  0.5242300000000  0.4104420000000 1.0
C      1  0.5386930000000  0.5215390000000  0.4089090000000 1.0
C      1  0.4975610000000  0.4553400000000  0.4086300000000 1.0
C      1  0.5862440000000  0.5008060000000  0.4659740000000 1.0
C      1  0.4605510000000  0.4262130000000  0.4662430000000 1.0
C      1  0.4559440000000  0.5718150000000  0.4674570000000 1.0
C      1  0.5847910000000  0.5020830000000  0.5330910000000 1.0
C      1  0.4548780000000  0.4169530000000  0.5338660000000 1.0
C      1  0.4576290000000  0.5728020000000  0.5337260000000 1.0
C      1  0.4169830000000  0.4887730000000  0.5235350000000 1.0
C      1  0.5366810000000  0.5782100000000  0.5230930000000 1.0
C      1  0.5460850000000  0.4338050000000  0.5241220000000 1.0
C      1  0.4169380000000  0.4908340000000  0.4748080000000 1.0
C      1  0.5346530000000  0.5756110000000  0.4750230000000 1.0
C      1  0.5473760000000  0.4330010000000  0.4758870000000 1.0
C      1  0.5027320000000  0.4041940000000  0.4855670000000 1.0
C      1  0.4161430000000  0.5434230000000  0.4866710000000 1.0
C      1  0.5819660000000  0.5502930000000  0.4845450000000 1.0
C      1  0.5019520000000  0.4033860000000  0.5143160000000 1.0
C      1  0.4169060000000  0.5425220000000  0.5155990000000 1.0
C      1  0.5824410000000  0.5511830000000  0.5134700000000 1.0
C      1  0.4883580000000  0.6060360000000  0.5547860000000 1.0
C      1  0.5942970000000  0.4590640000000  0.5564990000000 1.0
C      1  0.4104080000000  0.4287100000000  0.5522980000000 1.0
C      1  0.4872560000000  0.6020550000000  0.4429900000000 1.0
C      1  0.5971150000000  0.4570900000000  0.4447530000000 1.0
C      1  0.4184820000000  0.4382880000000  0.4420320000000 1.0
C      1  0.5282440000000  0.4122210000000  0.4744090000000 1.0
C      1  0.4089410000000  0.5180810000000  0.4741700000000 1.0
C      1  0.5621420000000  0.5683660000000  0.4727090000000 1.0
C      1  0.5265640000000  0.4133090000000  0.5264540000000 1.0
C      1  0.4091820000000  0.5163330000000  0.5267840000000 1.0
C      1  0.5641670000000  0.5710270000000  0.5247670000000 1.0
C      1  0.4412350000000  0.5402910000000  0.5940170000000 1.0
C      1  0.5657770000000  0.5345300000000  0.5905060000000 1.0
C      1  0.4989750000000  0.4315630000000  0.5847300000000 1.0
C      1  0.4357770000000  0.5353530000000  0.4128970000000 1.0
C      1  0.5621490000000  0.5366710000000  0.4111030000000 1.0
C      1  0.5008990000000  0.4276060000000  0.4106860000000 1.0
C      1  0.4218540000000  0.5542500000000  0.5822290000000 1.0
C      1  0.5886180000000  0.5432460000000  0.5798630000000 1.0
C      1  0.4961510000000  0.4057650000000  0.5783520000000 1.0
C      1  0.4175630000000  0.5525640000000  0.4219940000000 1.0
C      1  0.5865290000000  0.5431400000000  0.4196750000000 1.0
C      1  0.4953950000000  0.4032080000000  0.4198990000000 1.0
C      1  0.4798940000000  0.5285330000000  0.6196080000000 1.0
C      1  0.5392320000000  0.5029590000000  0.6146990000000 1.0
C      1  0.4795550000000  0.4675460000000  0.6090270000000 1.0
C      1  0.4724480000000  0.5229240000000  0.3853870000000 1.0
C      1  0.5304220000000  0.5141220000000  0.3838320000000 1.0
C      1  0.4927690000000  0.4660460000000  0.3838420000000 1.0
C      1  0.4938690000000  0.6034710000000  0.4710920000000 1.0
C      1  0.5927700000000  0.4524860000000  0.4729470000000 1.0
C      1  0.4139110000000  0.4417280000000  0.4703320000000 1.0
C      1  0.4948900000000  0.6048950000000  0.5266070000000 1.0
C      1  0.5914390000000  0.4534840000000  0.5283150000000 1.0
C      1  0.4116880000000  0.4393090000000  0.5254140000000 1.0
END
