TITL C-3623282-6910-1855 -7.55684606724004e-08 125000 -833.535751712992 0 0 128 (D3) n - 1
REM
REM in /home/nfs/bkarasulu/CARBON/AIRSS/Generating-Clusters/LCBOP/Higher-Symm/SD-CG/FIRE-CG
REM
REM
REM
REM
REM
REM ./C.cell (b20cbc046b6831c77cfcea5457e17084)
REM AIRSS Version 0.9.1 bugfix July 2018 build 013d7b7c2542+ Fri, 06 Jul 2018 19:26:36 +0100
REM compiler GCC version 9.2.1 20190827 (Red Hat 9.2.1-1)
REM options -cpp -mtune=generic -march=x86-64 -g -O0 -fpre-include=/usr/include/finclude/math-vector-fortran.h
REM seed 1339424550 -576498237 -2107504331 1143314743 610907813 1210484005 1312134907 1131063514 -211853541 1996955795 705258648 209972112 -164245529 -752251857 1902016728 1988608166 1274061711 -774458244 -978404047 -1651419410 -283824932 1713591521 -1409912720 -2137409366 -1915853353 -874070133 124457438 -277603572 931780142 1256600334 2076129257 1422203396 799795544
REM
CELL 1.54180   50.00000   50.00000   50.00000   90.00000   90.00000   90.00000
LATT -1
SFAC C  
C      1  0.4293100000000  0.4854050000000  0.4995890000000 1.0
C      1  0.5353270000000  0.4854010000000  0.5612060000000 1.0
C      1  0.5356810000000  0.4854010000000  0.4385850000000 1.0
C      1  0.4293110000000  0.5135360000000  0.4999960000000 1.0
C      1  0.5353290000000  0.5135320000000  0.4383810000000 1.0
C      1  0.5356800000000  0.5135330000000  0.5610030000000 1.0
C      1  0.4921920000000  0.4717820000000  0.4477200000000 1.0
C      1  0.4589660000000  0.4717830000000  0.5326830000000 1.0
C      1  0.5491590000000  0.4717800000000  0.5189760000000 1.0
C      1  0.4921920000000  0.5271540000000  0.5518660000000 1.0
C      1  0.4589680000000  0.5271550000000  0.4669020000000 1.0
C      1  0.5491610000000  0.5271520000000  0.4806110000000 1.0
C      1  0.4313900000000  0.5255070000000  0.4739790000000 1.0
C      1  0.5121090000000  0.5255040000000  0.5722110000000 1.0
C      1  0.5568210000000  0.5255020000000  0.4531900000000 1.0
C      1  0.4313880000000  0.4734340000000  0.5256070000000 1.0
C      1  0.5121090000000  0.4734310000000  0.4273760000000 1.0
C      1  0.5568190000000  0.4734300000000  0.5463980000000 1.0
C      1  0.5382490000000  0.4677500000000  0.3887060000000 1.0
C      1  0.3848290000000  0.4677550000000  0.5223030000000 1.0
C      1  0.5772380000000  0.4677490000000  0.5883710000000 1.0
C      1  0.5382490000000  0.5311830000000  0.6108810000000 1.0
C      1  0.3848310000000  0.5311880000000  0.4772810000000 1.0
C      1  0.5772410000000  0.5311820000000  0.4112170000000 1.0
C      1  0.4094990000000  0.5426660000000  0.4684560000000 1.0
C      1  0.5182730000000  0.5426630000000  0.5939310000000 1.0
C      1  0.5725510000000  0.5426610000000  0.4369930000000 1.0
C      1  0.4094960000000  0.4562760000000  0.5311290000000 1.0
C      1  0.5182720000000  0.4562720000000  0.4056560000000 1.0
C      1  0.5725470000000  0.4562700000000  0.5625950000000 1.0
C      1  0.5127260000000  0.5320950000000  0.4367530000000 1.0
C      1  0.4392040000000  0.5320980000000  0.5203850000000 1.0
C      1  0.5483920000000  0.5320940000000  0.5422410000000 1.0
C      1  0.5127230000000  0.4668400000000  0.5628340000000 1.0
C      1  0.4392020000000  0.4668420000000  0.4792000000000 1.0
C      1  0.5483910000000  0.4668380000000  0.4573460000000 1.0
C      1  0.4956330000000  0.4135600000000  0.4284880000000 1.0
C      1  0.4405860000000  0.4135630000000  0.5393180000000 1.0
C      1  0.5640910000000  0.4135580000000  0.5315750000000 1.0
C      1  0.4956370000000  0.5853760000000  0.5710990000000 1.0
C      1  0.4405920000000  0.5853770000000  0.4602680000000 1.0
C      1  0.5640980000000  0.5853730000000  0.4680130000000 1.0
C      1  0.4635090000000  0.5878000000000  0.4792830000000 1.0
C      1  0.5006470000000  0.5877990000000  0.5417440000000 1.0
C      1  0.5361710000000  0.5877980000000  0.4783520000000 1.0
C      1  0.4635030000000  0.4111380000000  0.5203030000000 1.0
C      1  0.5006420000000  0.4111360000000  0.4578420000000 1.0
C      1  0.5361650000000  0.4111350000000  0.5212360000000 1.0
C      1  0.4746110000000  0.4061630000000  0.4714420000000 1.0
C      1  0.4882960000000  0.4061630000000  0.5360460000000 1.0
C      1  0.5374030000000  0.4061610000000  0.4918920000000 1.0
C      1  0.4746160000000  0.5927750000000  0.5281440000000 1.0
C      1  0.4883030000000  0.5927740000000  0.4635400000000 1.0
C      1  0.5374080000000  0.5927720000000  0.5076950000000 1.0
C      1  0.4743210000000  0.5354430000000  0.4896120000000 1.0
C      1  0.5041830000000  0.5354420000000  0.5272160000000 1.0
C      1  0.5218180000000  0.5354410000000  0.4825520000000 1.0
C      1  0.4743180000000  0.4634950000000  0.5099740000000 1.0
C      1  0.5041820000000  0.4634930000000  0.4723710000000 1.0
C      1  0.5218150000000  0.4634930000000  0.5170350000000 1.0
C      1  0.4297310000000  0.4593450000000  0.4307190000000 1.0
C      1  0.4754710000000  0.4593440000000  0.5952760000000 1.0
C      1  0.5951120000000  0.4593400000000  0.4733850000000 1.0
C      1  0.4297330000000  0.5395950000000  0.5688660000000 1.0
C      1  0.4754760000000  0.5395930000000  0.4043100000000 1.0
C      1  0.5951140000000  0.5395900000000  0.5262030000000 1.0
C      1  0.4778250000000  0.3964380000000  0.5611580000000 1.0
C      1  0.5643850000000  0.3964350000000  0.4884040000000 1.0
C      1  0.4580980000000  0.3964380000000  0.4498180000000 1.0
C      1  0.4778330000000  0.6024990000000  0.4384280000000 1.0
C      1  0.5643910000000  0.6024970000000  0.5111830000000 1.0
C      1  0.4581040000000  0.6025000000000  0.5497680000000 1.0
C      1  0.5285640000000  0.4482620000000  0.4675840000000 1.0
C      1  0.4579800000000  0.4482640000000  0.4912510000000 1.0
C      1  0.5137690000000  0.4482620000000  0.5405450000000 1.0
C      1  0.5285670000000  0.5506720000000  0.5320030000000 1.0
C      1  0.4579840000000  0.5506740000000  0.5083350000000 1.0
C      1  0.5137730000000  0.5506720000000  0.4590420000000 1.0
C      1  0.5818580000000  0.4056370000000  0.5095340000000 1.0
C      1  0.4676610000000  0.4056410000000  0.4241210000000 1.0
C      1  0.4507900000000  0.4056420000000  0.5657250000000 1.0
C      1  0.5818640000000  0.5932930000000  0.4900540000000 1.0
C      1  0.4676660000000  0.5932970000000  0.5754650000000 1.0
C      1  0.4507970000000  0.5932970000000  0.4338610000000 1.0
C      1  0.4456930000000  0.4193670000000  0.5895520000000 1.0
C      1  0.6050420000000  0.4193610000000  0.5020360000000 1.0
C      1  0.4495760000000  0.4193660000000  0.4077930000000 1.0
C      1  0.4457000000000  0.5795730000000  0.4100340000000 1.0
C      1  0.6050470000000  0.5795680000000  0.4975530000000 1.0
C      1  0.4495790000000  0.5795730000000  0.5917930000000 1.0
C      1  0.4333960000000  0.4403050000000  0.4122600000000 1.0
C      1  0.4576520000000  0.4403050000000  0.6013310000000 1.0
C      1  0.6092650000000  0.4403000000000  0.4857890000000 1.0
C      1  0.4333980000000  0.5586350000000  0.5873260000000 1.0
C      1  0.4576580000000  0.5586330000000  0.3982550000000 1.0
C      1  0.6092680000000  0.5586290000000  0.5138000000000 1.0
C      1  0.5729820000000  0.4295280000000  0.5532120000000 1.0
C      1  0.5099260000000  0.4295300000000  0.4099700000000 1.0
C      1  0.4174040000000  0.4295330000000  0.5361990000000 1.0
C      1  0.5729870000000  0.5694030000000  0.4463760000000 1.0
C      1  0.5099290000000  0.5694050000000  0.5896160000000 1.0
C      1  0.4174090000000  0.5694080000000  0.4633870000000 1.0
C      1  0.5128200000000  0.4203370000000  0.5347660000000 1.0
C      1  0.5240330000000  0.4203360000000  0.4712950000000 1.0
C      1  0.4634580000000  0.4203380000000  0.4933200000000 1.0
C      1  0.5128260000000  0.5785980000000  0.4648210000000 1.0
C      1  0.5240370000000  0.5785980000000  0.5282920000000 1.0
C      1  0.4634630000000  0.5786000000000  0.5062660000000 1.0
C      1  0.4677560000000  0.5135680000000  0.5539920000000 1.0
C      1  0.5632200000000  0.5135650000000  0.5007100000000 1.0
C      1  0.4693440000000  0.5135670000000  0.4446770000000 1.0
C      1  0.4677560000000  0.4853700000000  0.4455940000000 1.0
C      1  0.5632190000000  0.4853670000000  0.4988780000000 1.0
C      1  0.4693420000000  0.4853700000000  0.5549090000000 1.0
C      1  0.3749460000000  0.4884160000000  0.5076280000000 1.0
C      1  0.5694710000000  0.4884090000000  0.6042670000000 1.0
C      1  0.5559000000000  0.4884090000000  0.3874850000000 1.0
C      1  0.3749470000000  0.5105280000000  0.4919560000000 1.0
C      1  0.5694730000000  0.5105220000000  0.3953210000000 1.0
C      1  0.5558990000000  0.5105230000000  0.6121030000000 1.0
C      1  0.4432700000000  0.4720820000000  0.4516350000000 1.0
C      1  0.4868170000000  0.4720810000000  0.5730940000000 1.0
C      1  0.5702290000000  0.4720780000000  0.4746510000000 1.0
C      1  0.4432710000000  0.5268570000000  0.5479500000000 1.0
C      1  0.4868200000000  0.5268560000000  0.4264930000000 1.0
C      1  0.5702300000000  0.5268530000000  0.5249370000000 1.0
C      1  0.5001070000000  0.5305790000000  0.4997930000000 1.0
C      1  0.5001050000000  0.4683570000000  0.4997930000000 1.0
END
