TITL C-3623286-7563-896 4420.77886275303 125000 -402.361370224288 0 0 67 (C1) n - 1
REM
REM in /home/nfs/bkarasulu/CARBON/AIRSS/Generating-Clusters/LCBOP/Higher-Symm/SD-CG/FIRE-CG
REM
REM
REM
REM
REM
REM ./C.cell (b20cbc046b6831c77cfcea5457e17084)
REM AIRSS Version 0.9.1 bugfix July 2018 build 013d7b7c2542+ Fri, 06 Jul 2018 19:26:36 +0100
REM compiler GCC version 9.2.1 20190827 (Red Hat 9.2.1-1)
REM options -cpp -mtune=generic -march=x86-64 -g -O0 -fpre-include=/usr/include/finclude/math-vector-fortran.h
REM seed 1266071215 -995512964 -203410041 1159053097 -1803143332 -1022449726 636139683 -245958995 -1290289016 1664995566 1511704705 1456325255 551075914 -280326687 -1929481827 279844784 -1962999977 226125260 -615442370 579897465 4345667 -744762652 1923153462 456444841 -665883539 559477094 1366799340 97797502 -617223731 -1403872429 341159953 1330356052 -1603388634
REM
CELL 1.54180   50.00000   50.00000   50.00000   90.00000   90.00000   90.00000
LATT -1
SFAC C  
C      1  0.5544990000000  0.5280850000000  0.4687590000000 1.0
C      1  0.5163050000000  0.4438150000000  0.4471510000000 1.0
C      1  0.4859970000000  0.5197390000000  0.5313610000000 1.0
C      1  0.5382940000000  0.4876260000000  0.4251020000000 1.0
C      1  0.5041210000000  0.4801190000000  0.5692280000000 1.0
C      1  0.4595220000000  0.5122310000000  0.4640150000000 1.0
C      1  0.5232320000000  0.5011750000000  0.5114000000000 1.0
C      1  0.5360940000000  0.5479130000000  0.5453720000000 1.0
C      1  0.4727930000000  0.5287690000000  0.5552220000000 1.0
C      1  0.4320990000000  0.4932810000000  0.5176330000000 1.0
C      1  0.5566350000000  0.5000130000000  0.4672110000000 1.0
C      1  0.5320910000000  0.5154720000000  0.4292940000000 1.0
C      1  0.4812560000000  0.4838320000000  0.4974000000000 1.0
C      1  0.5466580000000  0.4880770000000  0.5186940000000 1.0
C      1  0.5364520000000  0.4464670000000  0.5335270000000 1.0
C      1  0.4633970000000  0.4350350000000  0.5230070000000 1.0
C      1  0.4734720000000  0.4585550000000  0.4863670000000 1.0
C      1  0.4648510000000  0.5091350000000  0.5739340000000 1.0
C      1  0.5983450000000  0.5469310000000  0.5218150000000 1.0
C      1  0.5258070000000  0.5289400000000  0.5059700000000 1.0
C      1  0.4863760000000  0.4948950000000  0.5855080000000 1.0
C      1  0.5441970000000  0.4731970000000  0.5427230000000 1.0
C      1  0.5123090000000  0.4236450000000  0.4673150000000 1.0
C      1  0.4659460000000  0.5373520000000  0.4514350000000 1.0
C      1  0.5594410000000  0.4388060000000  0.4848280000000 1.0
C      1  0.4560310000000  0.5443220000000  0.4263880000000 1.0
C      1  0.5520230000000  0.5361280000000  0.4956670000000 1.0
C      1  0.5345580000000  0.5220360000000  0.5574810000000 1.0
C      1  0.4752140000000  0.5742670000000  0.5381960000000 1.0
C      1  0.4694220000000  0.4556240000000  0.4573730000000 1.0
C      1  0.4955540000000  0.4953470000000  0.5183650000000 1.0
C      1  0.4838870000000  0.5550810000000  0.4662440000000 1.0
C      1  0.5325760000000  0.5374100000000  0.4511720000000 1.0
C      1  0.4441490000000  0.4794950000000  0.5408600000000 1.0
C      1  0.6209670000000  0.5505770000000  0.5342460000000 1.0
C      1  0.4704200000000  0.5661630000000  0.4894180000000 1.0
C      1  0.5268410000000  0.5715260000000  0.4955040000000 1.0
C      1  0.4833860000000  0.5001170000000  0.4736170000000 1.0
C      1  0.5002150000000  0.5403580000000  0.5159240000000 1.0
C      1  0.5509170000000  0.4367220000000  0.5105580000000 1.0
C      1  0.4914320000000  0.4266880000000  0.5173050000000 1.0
C      1  0.5752560000000  0.4793690000000  0.4644490000000 1.0
C      1  0.4425240000000  0.5626660000000  0.4928340000000 1.0
C      1  0.4467910000000  0.5504060000000  0.4027940000000 1.0
C      1  0.5294320000000  0.4902770000000  0.4675960000000 1.0
C      1  0.5297230000000  0.4916000000000  0.5609870000000 1.0
C      1  0.4283260000000  0.4802490000000  0.4922470000000 1.0
C      1  0.4426380000000  0.4938190000000  0.5654920000000 1.0
C      1  0.5626890000000  0.4539750000000  0.4606150000000 1.0
C      1  0.5414860000000  0.4564530000000  0.4402260000000 1.0
C      1  0.5138240000000  0.5563040000000  0.4667370000000 1.0
C      1  0.4456740000000  0.4689260000000  0.4489160000000 1.0
C      1  0.5032940000000  0.4883660000000  0.4574540000000 1.0
C      1  0.5018830000000  0.4185300000000  0.4919750000000 1.0
C      1  0.4641870000000  0.4580780000000  0.5414870000000 1.0
C      1  0.4850820000000  0.5644960000000  0.5135040000000 1.0
C      1  0.5750590000000  0.5430550000000  0.5097820000000 1.0
C      1  0.4383300000000  0.4912130000000  0.4662520000000 1.0
C      1  0.5338610000000  0.5675770000000  0.5239390000000 1.0
C      1  0.4950180000000  0.4627690000000  0.4464680000000 1.0
C      1  0.4256810000000  0.5207930000000  0.5177090000000 1.0
C      1  0.4273590000000  0.5447990000000  0.5060020000000 1.0
C      1  0.4247940000000  0.4518270000000  0.4949240000000 1.0
C      1  0.4689530000000  0.5566390000000  0.5578780000000 1.0
C      1  0.5086210000000  0.4406300000000  0.5368090000000 1.0
C      1  0.4396680000000  0.4328870000000  0.5076300000000 1.0
C      1  0.4920660000000  0.4593330000000  0.5527090000000 1.0
END
