TITL C-3623288-6813-1550 -8.63817682518465e-08 125000 -31.9927089344688 0 0 7 (D2h) n - 1
REM
REM in /home/nfs/bkarasulu/CARBON/AIRSS/Generating-Clusters/LCBOP/Higher-Symm/SD-CG/FIRE-CG
REM
REM
REM
REM
REM
REM ./C.cell (b20cbc046b6831c77cfcea5457e17084)
REM AIRSS Version 0.9.1 bugfix July 2018 build 013d7b7c2542+ Fri, 06 Jul 2018 19:26:36 +0100
REM compiler GCC version 9.2.1 20190827 (Red Hat 9.2.1-1)
REM options -cpp -mtune=generic -march=x86-64 -g -O0 -fpre-include=/usr/include/finclude/math-vector-fortran.h
REM seed -2011875853 108126357 566172139 -1747040741 -1578502524 -865277403 -562782566 1711653394 -958619470 681226580 850092021 490430254 38404107 597077859 334292425 -451515488 1536577310 -1090701712 -770479198 -631848976 271739749 -728577835 -1081695192 -14416912 -1637782233 1229100838 336800557 -1812304967 770768310 1090318538 259802159 -2145759875 724294098
REM
CELL 1.54180   50.00000   50.00000   50.00000   90.00000   90.00000   90.00000
LATT -1
SFAC C  
C      1  0.5063090000000  0.4723730000000  0.5414280000000 1.0
C      1  0.5063100000000  0.5199760000000  0.4584030000000 1.0
C      1  0.5063100000000  0.5199760000000  0.5414280000000 1.0
C      1  0.5063090000000  0.4723730000000  0.4584030000000 1.0
C      1  0.5063090000000  0.4961740000000  0.5278930000000 1.0
C      1  0.5063100000000  0.4961740000000  0.4719380000000 1.0
C      1  0.5063090000000  0.4961740000000  0.4999160000000 1.0
END
