TITL C-3623284-6838-309 -0.42261561682989 125000 -966.018835484503 0 0 161 (C2) n - 1
REM
REM in /home/nfs/bkarasulu/CARBON/AIRSS/Generating-Clusters/LCBOP/Higher-Symm/SD-CG/FIRE-CG
REM
REM
REM
REM
REM
REM ./C.cell (b20cbc046b6831c77cfcea5457e17084)
REM AIRSS Version 0.9.1 bugfix July 2018 build 013d7b7c2542+ Fri, 06 Jul 2018 19:26:36 +0100
REM compiler GCC version 9.2.1 20190827 (Red Hat 9.2.1-1)
REM options -cpp -mtune=generic -march=x86-64 -g -O0 -fpre-include=/usr/include/finclude/math-vector-fortran.h
REM seed -952740103 1851451732 1006851431 433465924 585055538 -1513283700 492401640 -1313523685 289292746 1352560263 20415018 -278051587 1427892952 -1850777959 1381438202 1713444001 -988335911 1096351601 778991580 1726162899 1382279677 2000826859 -440067272 -1232520935 -498832863 -134892118 1065408390 837073218 1975713634 -579726321 -894689939 485660353 1167540027
REM
CELL 1.54180   50.00000   50.00000   50.00000   90.00000   90.00000   90.00000
LATT -1
SFAC C  
C      1  0.5372870000000  0.5925750000000  0.4515740000000 1.0
C      1  0.5412280000000  0.4012280000000  0.4427200000000 1.0
C      1  0.5394250000000  0.5024290000000  0.6136770000000 1.0
C      1  0.4582320000000  0.5991290000000  0.5569770000000 1.0
C      1  0.4600390000000  0.4004760000000  0.5548170000000 1.0
C      1  0.4621700000000  0.4957840000000  0.3956940000000 1.0
C      1  0.5534410000000  0.5052880000000  0.4971740000000 1.0
C      1  0.5538620000000  0.4827030000000  0.4803090000000 1.0
C      1  0.5528620000000  0.5001210000000  0.5248560000000 1.0
C      1  0.4455980000000  0.5258370000000  0.5052140000000 1.0
C      1  0.4465990000000  0.4785490000000  0.5124040000000 1.0
C      1  0.4460190000000  0.4999390000000  0.4940880000000 1.0
C      1  0.4284200000000  0.5032650000000  0.5633780000000 1.0
C      1  0.4268420000000  0.5582680000000  0.4651240000000 1.0
C      1  0.4295950000000  0.4415940000000  0.4684030000000 1.0
C      1  0.5726160000000  0.5012060000000  0.4321770000000 1.0
C      1  0.5698660000000  0.5567050000000  0.5348580000000 1.0
C      1  0.5710420000000  0.4436190000000  0.5289400000000 1.0
C      1  0.4025910000000  0.4937430000000  0.5683780000000 1.0
C      1  0.4002130000000  0.5647480000000  0.4707870000000 1.0
C      1  0.4032070000000  0.4423780000000  0.4590880000000 1.0
C      1  0.5992460000000  0.4930620000000  0.4293960000000 1.0
C      1  0.5962530000000  0.5643800000000  0.5295200000000 1.0
C      1  0.5968710000000  0.4440510000000  0.5396850000000 1.0
C      1  0.3922320000000  0.4206450000000  0.4455000000000 1.0
C      1  0.3927350000000  0.4919300000000  0.5943790000000 1.0
C      1  0.3886840000000  0.5879920000000  0.4606060000000 1.0
C      1  0.6067280000000  0.4224410000000  0.5542560000000 1.0
C      1  0.6107740000000  0.4902560000000  0.4041760000000 1.0
C      1  0.6072290000000  0.5870150000000  0.5415470000000 1.0
C      1  0.4947390000000  0.5266740000000  0.4834580000000 1.0
C      1  0.4958190000000  0.4746100000000  0.4840280000000 1.0
C      1  0.4949230000000  0.5011820000000  0.5283730000000 1.0
C      1  0.5036420000000  0.5266650000000  0.5140800000000 1.0
C      1  0.5045380000000  0.4749740000000  0.5132420000000 1.0
C      1  0.5047200000000  0.5011240000000  0.4687070000000 1.0
C      1  0.5960860000000  0.4310600000000  0.4823260000000 1.0
C      1  0.5943800000000  0.5221560000000  0.5685570000000 1.0
C      1  0.5963080000000  0.5496640000000  0.4470610000000 1.0
C      1  0.4050830000000  0.4296850000000  0.5151750000000 1.0
C      1  0.4031510000000  0.5211480000000  0.4306010000000 1.0
C      1  0.4033750000000  0.5499120000000  0.5509470000000 1.0
C      1  0.3603240000000  0.6570840000000  0.4346740000000 1.0
C      1  0.3652030000000  0.3593510000000  0.4035140000000 1.0
C      1  0.3696990000000  0.4830170000000  0.6694800000000 1.0
C      1  0.6342570000000  0.6540240000000  0.5736330000000 1.0
C      1  0.6297670000000  0.3618590000000  0.5995270000000 1.0
C      1  0.6391320000000  0.4781660000000  0.3313740000000 1.0
C      1  0.6125480000000  0.4667180000000  0.5350940000000 1.0
C      1  0.6114770000000  0.5485620000000  0.5122300000000 1.0
C      1  0.6139990000000  0.4879420000000  0.4525900000000 1.0
C      1  0.3879830000000  0.4652610000000  0.4641420000000 1.0
C      1  0.3854610000000  0.5472220000000  0.4868180000000 1.0
C      1  0.3869140000000  0.4863840000000  0.5464520000000 1.0
C      1  0.5469690000000  0.5392750000000  0.5731050000000 1.0
C      1  0.5493910000000  0.5433500000000  0.4303280000000 1.0
C      1  0.5487740000000  0.4188140000000  0.4945670000000 1.0
C      1  0.4500670000000  0.5387960000000  0.4277010000000 1.0
C      1  0.4506870000000  0.5454360000000  0.5676720000000 1.0
C      1  0.4524930000000  0.4171880000000  0.5026220000000 1.0
C      1  0.4769530000000  0.4474680000000  0.4437190000000 1.0
C      1  0.4765000000000  0.4806950000000  0.5724300000000 1.0
C      1  0.4775180000000  0.5762040000000  0.4791150000000 1.0
C      1  0.5229630000000  0.4470650000000  0.5530130000000 1.0
C      1  0.5219400000000  0.4801200000000  0.4236420000000 1.0
C      1  0.5225070000000  0.5751440000000  0.5174290000000 1.0
C      1  0.5400520000000  0.5944820000000  0.5106060000000 1.0
C      1  0.5385800000000  0.4632040000000  0.4106660000000 1.0
C      1  0.5394480000000  0.4443540000000  0.5742000000000 1.0
C      1  0.4608780000000  0.5958990000000  0.4872770000000 1.0
C      1  0.4600160000000  0.4637020000000  0.5853720000000 1.0
C      1  0.4594080000000  0.4437070000000  0.4235610000000 1.0
C      1  0.5628040000000  0.6017620000000  0.4981470000000 1.0
C      1  0.5602850000000  0.4473060000000  0.4117940000000 1.0
C      1  0.5604800000000  0.4534470000000  0.5882790000000 1.0
C      1  0.4391740000000  0.6028710000000  0.5016090000000 1.0
C      1  0.4389840000000  0.4469630000000  0.5845380000000 1.0
C      1  0.4366550000000  0.4508570000000  0.4110280000000 1.0
C      1  0.4506480000000  0.5471270000000  0.4550830000000 1.0
C      1  0.4538420000000  0.4376480000000  0.4825020000000 1.0
C      1  0.4523010000000  0.5179210000000  0.5596470000000 1.0
C      1  0.5456190000000  0.5464680000000  0.5453260000000 1.0
C      1  0.5471610000000  0.4395220000000  0.5143830000000 1.0
C      1  0.5488100000000  0.5154710000000  0.4368060000000 1.0
C      1  0.3830140000000  0.4000740000000  0.4315970000000 1.0
C      1  0.3848120000000  0.4891370000000  0.6194970000000 1.0
C      1  0.3790120000000  0.6110160000000  0.4517840000000 1.0
C      1  0.6146520000000  0.4020850000000  0.5692340000000 1.0
C      1  0.6204450000000  0.4863830000000  0.3798250000000 1.0
C      1  0.6164470000000  0.6093420000000  0.5524090000000 1.0
C      1  0.5235890000000  0.5008830000000  0.4439440000000 1.0
C      1  0.5231090000000  0.4535870000000  0.5247340000000 1.0
C      1  0.5219780000000  0.5477320000000  0.5270970000000 1.0
C      1  0.4763530000000  0.5019230000000  0.5526410000000 1.0
C      1  0.4774820000000  0.4528030000000  0.4722920000000 1.0
C      1  0.4758700000000  0.5482400000000  0.4712850000000 1.0
C      1  0.4515070000000  0.4959050000000  0.4664830000000 1.0
C      1  0.4581440000000  0.4614880000000  0.5294450000000 1.0
C      1  0.4567500000000  0.5477980000000  0.5156450000000 1.0
C      1  0.5413190000000  0.4938950000000  0.5481530000000 1.0
C      1  0.5427100000000  0.4626890000000  0.4665070000000 1.0
C      1  0.5479530000000  0.5312110000000  0.4868640000000 1.0
C      1  0.5769070000000  0.5977860000000  0.4752830000000 1.0
C      1  0.5748790000000  0.4298010000000  0.4263700000000 1.0
C      1  0.5740850000000  0.4749500000000  0.5973620000000 1.0
C      1  0.4245810000000  0.5990000000000  0.5240580000000 1.0
C      1  0.4253790000000  0.4283450000000  0.5704580000000 1.0
C      1  0.4225510000000  0.4726450000000  0.4030380000000 1.0
C      1  0.4767080000000  0.5330360000000  0.4179880000000 1.0
C      1  0.4778730000000  0.4065670000000  0.5120190000000 1.0
C      1  0.4758880000000  0.5589300000000  0.5729680000000 1.0
C      1  0.5215900000000  0.5364470000000  0.5870020000000 1.0
C      1  0.5235730000000  0.4074790000000  0.4855300000000 1.0
C      1  0.5227500000000  0.5546410000000  0.4304610000000 1.0
C      1  0.6222850000000  0.3818000000000  0.5844920000000 1.0
C      1  0.6254350000000  0.6318600000000  0.5631180000000 1.0
C      1  0.6298760000000  0.4822510000000  0.3554010000000 1.0
C      1  0.3740250000000  0.3795400000000  0.4174500000000 1.0
C      1  0.3695810000000  0.6342340000000  0.4431510000000 1.0
C      1  0.3771800000000  0.4860660000000  0.6446930000000 1.0
C      1  0.4336800000000  0.4104750000000  0.5500220000000 1.0
C      1  0.4320600000000  0.5899240000000  0.5499150000000 1.0
C      1  0.4340090000000  0.4984330000000  0.4000320000000 1.0
C      1  0.5674000000000  0.4119470000000  0.4471600000000 1.0
C      1  0.5654480000000  0.5874950000000  0.4514470000000 1.0
C      1  0.5657840000000  0.5015830000000  0.6026190000000 1.0
C      1  0.4274420000000  0.5622620000000  0.5589570000000 1.0
C      1  0.4278040000000  0.5218840000000  0.4168720000000 1.0
C      1  0.4291520000000  0.4163270000000  0.5215120000000 1.0
C      1  0.5716540000000  0.5611860000000  0.4395590000000 1.0
C      1  0.5703110000000  0.5233460000000  0.5832950000000 1.0
C      1  0.5720190000000  0.4179480000000  0.4756370000000 1.0
C      1  0.3852560000000  0.4922080000000  0.4713940000000 1.0
C      1  0.3853180000000  0.4790830000000  0.5194240000000 1.0
C      1  0.3844150000000  0.5273820000000  0.5066450000000 1.0
C      1  0.6141430000000  0.4937760000000  0.5279020000000 1.0
C      1  0.6150450000000  0.4806930000000  0.4796850000000 1.0
C      1  0.6142030000000  0.5288080000000  0.4925190000000 1.0
C      1  0.4745890000000  0.4431450000000  0.5404830000000 1.0
C      1  0.4733360000000  0.5657890000000  0.5270580000000 1.0
C      1  0.4659860000000  0.4945770000000  0.4436350000000 1.0
C      1  0.5261240000000  0.4438080000000  0.4566340000000 1.0
C      1  0.5334730000000  0.5516610000000  0.4765900000000 1.0
C      1  0.5248740000000  0.4935070000000  0.5695580000000 1.0
C      1  0.4764800000000  0.5043440000000  0.4185020000000 1.0
C      1  0.4789040000000  0.4149240000000  0.5394310000000 1.0
C      1  0.4772690000000  0.5787000000000  0.5522440000000 1.0
C      1  0.5205590000000  0.5085290000000  0.5934710000000 1.0
C      1  0.5221920000000  0.4155410000000  0.4580470000000 1.0
C      1  0.5229780000000  0.5685430000000  0.4555650000000 1.0
C      1  0.3886960000000  0.5107030000000  0.4504700000000 1.0
C      1  0.3902040000000  0.4518490000000  0.5141030000000 1.0
C      1  0.3888710000000  0.5367000000000  0.5328380000000 1.0
C      1  0.6092580000000  0.5120020000000  0.5488270000000 1.0
C      1  0.6105900000000  0.4533500000000  0.4847120000000 1.0
C      1  0.6107630000000  0.5376800000000  0.4660400000000 1.0
C      1  0.4997290000000  0.5482460000000  0.4165900000000 1.0
C      1  0.4985410000000  0.5517240000000  0.5870780000000 1.0
C      1  0.5009210000000  0.3988630000000  0.4988270000000 1.0
C      1  0.3837710000000  0.4995440000000  0.4991930000000 1.0
C      1  0.6156900000000  0.5010650000000  0.5000670000000 1.0
END
