TITL C-3623289-7120-101 0.556482712377729 125000 -831.585641586129 0 0 135 (C1) n - 1
REM
REM in /home/nfs/bkarasulu/CARBON/AIRSS/Generating-Clusters/LCBOP/Higher-Symm/SD-CG/FIRE-CG
REM
REM
REM
REM
REM
REM ./C.cell (b20cbc046b6831c77cfcea5457e17084)
REM AIRSS Version 0.9.1 bugfix July 2018 build 013d7b7c2542+ Fri, 06 Jul 2018 19:26:36 +0100
REM compiler GCC version 9.2.1 20190827 (Red Hat 9.2.1-1)
REM options -cpp -mtune=generic -march=x86-64 -g -O0 -fpre-include=/usr/include/finclude/math-vector-fortran.h
REM seed -1744130522 -2102050606 -793600972 -2106853922 -253435693 -483594838 1262599046 1406917209 1193300367 2062668094 1319257546 1945814328 -246873694 -1621957087 1498450032 1923889572 344632348 175646316 1065734142 -403849325 -274908048 374691709 -479938242 1691549851 1430585787 283174915 -1215587565 359147973 -1354424369 -1125954679 -593918247 -1164842958 -621160083
REM
CELL 1.54180   50.00000   50.00000   50.00000   90.00000   90.00000   90.00000
LATT -1
SFAC C  
C      1  0.5646470000000  0.4768230000000  0.5724480000000 1.0
C      1  0.4363260000000  0.4262980000000  0.4826620000000 1.0
C      1  0.5950590000000  0.5215320000000  0.4399220000000 1.0
C      1  0.3925260000000  0.5581320000000  0.5259750000000 1.0
C      1  0.4129330000000  0.4600140000000  0.4522900000000 1.0
C      1  0.5976060000000  0.5511120000000  0.4777640000000 1.0
C      1  0.4014030000000  0.5198230000000  0.5554250000000 1.0
C      1  0.5882010000000  0.4464380000000  0.5370990000000 1.0
C      1  0.4398310000000  0.4992840000000  0.3628280000000 1.0
C      1  0.5591000000000  0.6442720000000  0.4914600000000 1.0
C      1  0.4884390000000  0.4857390000000  0.6052970000000 1.0
C      1  0.5109550000000  0.3915570000000  0.4954900000000 1.0
C      1  0.5216360000000  0.4218410000000  0.4192460000000 1.0
C      1  0.4884300000000  0.5695350000000  0.4198160000000 1.0
C      1  0.5012120000000  0.5771220000000  0.5807850000000 1.0
C      1  0.4852350000000  0.4124320000000  0.5718480000000 1.0
C      1  0.5149000000000  0.4831590000000  0.5983330000000 1.0
C      1  0.4847500000000  0.3989260000000  0.4916530000000 1.0
C      1  0.4420630000000  0.5136890000000  0.3406910000000 1.0
C      1  0.5539400000000  0.6693750000000  0.4982280000000 1.0
C      1  0.5500750000000  0.4441930000000  0.4864860000000 1.0
C      1  0.4520590000000  0.5112860000000  0.4435630000000 1.0
C      1  0.5477220000000  0.5645970000000  0.5206680000000 1.0
C      1  0.4511330000000  0.4855840000000  0.5516130000000 1.0
C      1  0.5507520000000  0.5744990000000  0.5678590000000 1.0
C      1  0.4475440000000  0.4423110000000  0.5729090000000 1.0
C      1  0.5637180000000  0.4330170000000  0.4418880000000 1.0
C      1  0.4406810000000  0.5561050000000  0.4322650000000 1.0
C      1  0.5214730000000  0.5390020000000  0.5595300000000 1.0
C      1  0.4752620000000  0.4438510000000  0.5346150000000 1.0
C      1  0.5283390000000  0.4648440000000  0.4402360000000 1.0
C      1  0.4759470000000  0.5576460000000  0.4644350000000 1.0
C      1  0.4544080000000  0.4375400000000  0.4369400000000 1.0
C      1  0.5588160000000  0.5592410000000  0.4446240000000 1.0
C      1  0.4247520000000  0.5653820000000  0.5628610000000 1.0
C      1  0.5483060000000  0.4315990000000  0.5616750000000 1.0
C      1  0.5570990000000  0.4854210000000  0.5115950000000 1.0
C      1  0.4419860000000  0.5016650000000  0.4883220000000 1.0
C      1  0.5567480000000  0.5284950000000  0.4862360000000 1.0
C      1  0.4397800000000  0.5296850000000  0.5241470000000 1.0
C      1  0.5641450000000  0.6191280000000  0.4848440000000 1.0
C      1  0.4615930000000  0.4924680000000  0.6055980000000 1.0
C      1  0.5376510000000  0.3920210000000  0.5027830000000 1.0
C      1  0.4378420000000  0.4854520000000  0.3853260000000 1.0
C      1  0.4124380000000  0.4562480000000  0.5447610000000 1.0
C      1  0.5951340000000  0.4570050000000  0.4716890000000 1.0
C      1  0.4072880000000  0.5276330000000  0.4588980000000 1.0
C      1  0.5837010000000  0.5432430000000  0.5461650000000 1.0
C      1  0.3940710000000  0.5027390000000  0.5298400000000 1.0
C      1  0.5999780000000  0.4710080000000  0.5238220000000 1.0
C      1  0.4017150000000  0.4751890000000  0.4744000000000 1.0
C      1  0.6042520000000  0.5278230000000  0.4966560000000 1.0
C      1  0.5215610000000  0.4417610000000  0.4920110000000 1.0
C      1  0.4806700000000  0.5072870000000  0.4381110000000 1.0
C      1  0.5207990000000  0.5657630000000  0.5089430000000 1.0
C      1  0.4784850000000  0.4941650000000  0.5547600000000 1.0
C      1  0.5150080000000  0.5652270000000  0.4152690000000 1.0
C      1  0.4744510000000  0.5807770000000  0.5770640000000 1.0
C      1  0.5086970000000  0.4116910000000  0.5847110000000 1.0
C      1  0.4967860000000  0.4120790000000  0.4216820000000 1.0
C      1  0.4426970000000  0.5109910000000  0.5925450000000 1.0
C      1  0.5557580000000  0.4073470000000  0.5196930000000 1.0
C      1  0.4370000000000  0.4734860000000  0.4103090000000 1.0
C      1  0.5682290000000  0.5922760000000  0.4791100000000 1.0
C      1  0.4957810000000  0.5405830000000  0.5469600000000 1.0
C      1  0.5017890000000  0.4539820000000  0.5373250000000 1.0
C      1  0.5012460000000  0.4622950000000  0.4495600000000 1.0
C      1  0.5042100000000  0.5502410000000  0.4625460000000 1.0
C      1  0.4461150000000  0.4925620000000  0.4638470000000 1.0
C      1  0.5609350000000  0.5495190000000  0.5012960000000 1.0
C      1  0.4390610000000  0.5069890000000  0.5381750000000 1.0
C      1  0.5582010000000  0.4595070000000  0.5084870000000 1.0
C      1  0.5172500000000  0.4991620000000  0.5278570000000 1.0
C      1  0.4859040000000  0.4737330000000  0.4946760000000 1.0
C      1  0.5180440000000  0.5043720000000  0.4693430000000 1.0
C      1  0.4893740000000  0.5303070000000  0.5013120000000 1.0
C      1  0.5481510000000  0.5756070000000  0.4665940000000 1.0
C      1  0.4602070000000  0.5302800000000  0.5803080000000 1.0
C      1  0.5386150000000  0.4238860000000  0.5360940000000 1.0
C      1  0.4599100000000  0.4628170000000  0.4237320000000 1.0
C      1  0.4997390000000  0.5488660000000  0.5199830000000 1.0
C      1  0.5015460000000  0.4814470000000  0.5437190000000 1.0
C      1  0.5006460000000  0.4558630000000  0.4776190000000 1.0
C      1  0.5027180000000  0.5220170000000  0.4525420000000 1.0
C      1  0.4783850000000  0.5229370000000  0.5600850000000 1.0
C      1  0.5195550000000  0.4390760000000  0.5217470000000 1.0
C      1  0.4823910000000  0.4775080000000  0.4341400000000 1.0
C      1  0.5227280000000  0.5664830000000  0.4784930000000 1.0
C      1  0.4132240000000  0.4703610000000  0.4257080000000 1.0
C      1  0.5928590000000  0.5785230000000  0.4849420000000 1.0
C      1  0.4160470000000  0.5105600000000  0.5799370000000 1.0
C      1  0.5823780000000  0.4202650000000  0.5232460000000 1.0
C      1  0.4309820000000  0.5309810000000  0.4414870000000 1.0
C      1  0.5637460000000  0.5647320000000  0.5445030000000 1.0
C      1  0.4347510000000  0.4639080000000  0.5603820000000 1.0
C      1  0.5713050000000  0.4411820000000  0.4677350000000 1.0
C      1  0.3973000000000  0.5507730000000  0.4744020000000 1.0
C      1  0.5810560000000  0.5257700000000  0.5696560000000 1.0
C      1  0.4156790000000  0.4310270000000  0.5304410000000 1.0
C      1  0.6039040000000  0.4722960000000  0.4484290000000 1.0
C      1  0.5337890000000  0.4211610000000  0.5832150000000 1.0
C      1  0.4717210000000  0.4165180000000  0.4301290000000 1.0
C      1  0.5405590000000  0.5588980000000  0.4225280000000 1.0
C      1  0.4484740000000  0.5765960000000  0.5700580000000 1.0
C      1  0.4171320000000  0.4354420000000  0.5020480000000 1.0
C      1  0.6066260000000  0.5001320000000  0.4540710000000 1.0
C      1  0.3896520000000  0.5446760000000  0.5014940000000 1.0
C      1  0.5821960000000  0.4977080000000  0.5637260000000 1.0
C      1  0.3897090000000  0.5155310000000  0.5034920000000 1.0
C      1  0.5966840000000  0.4966050000000  0.5378100000000 1.0
C      1  0.4030500000000  0.4617570000000  0.4995290000000 1.0
C      1  0.6090120000000  0.5020240000000  0.4834690000000 1.0
C      1  0.4667250000000  0.4596030000000  0.5115150000000 1.0
C      1  0.5367700000000  0.4883120000000  0.4542390000000 1.0
C      1  0.4670870000000  0.5415250000000  0.4864400000000 1.0
C      1  0.5330770000000  0.5172740000000  0.5442610000000 1.0
C      1  0.5488620000000  0.6940630000000  0.5048870000000 1.0
C      1  0.5402190000000  0.4811310000000  0.5879010000000 1.0
C      1  0.4598450000000  0.4099840000000  0.4883070000000 1.0
C      1  0.4442750000000  0.5279080000000  0.3189520000000 1.0
C      1  0.4044450000000  0.5491960000000  0.5503580000000 1.0
C      1  0.5694690000000  0.4509930000000  0.5601840000000 1.0
C      1  0.4335090000000  0.4389620000000  0.4568530000000 1.0
C      1  0.5842870000000  0.5450550000000  0.4514610000000 1.0
C      1  0.6039700000000  0.4741850000000  0.4950560000000 1.0
C      1  0.3973640000000  0.5039970000000  0.4762130000000 1.0
C      1  0.5975180000000  0.5250880000000  0.5255220000000 1.0
C      1  0.3996590000000  0.4746370000000  0.5264280000000 1.0
C      1  0.4675050000000  0.4292300000000  0.5580560000000 1.0
C      1  0.5395350000000  0.4408660000000  0.4298650000000 1.0
C      1  0.4667410000000  0.5654380000000  0.4384350000000 1.0
C      1  0.5255930000000  0.5633000000000  0.5741290000000 1.0
C      1  0.4449590000000  0.5281500000000  0.4970950000000 1.0
C      1  0.5578370000000  0.5034510000000  0.4927730000000 1.0
C      1  0.5035110000000  0.5022970000000  0.4986100000000 1.0
END
