TITL C-3623287-7182-961 10840.8818725882 125000 -920.998993052508 0 0 153 (C1) n - 1
REM
REM in /home/nfs/bkarasulu/CARBON/AIRSS/Generating-Clusters/LCBOP/Higher-Symm/SD-CG/FIRE-CG
REM
REM
REM
REM
REM
REM ./C.cell (b20cbc046b6831c77cfcea5457e17084)
REM AIRSS Version 0.9.1 bugfix July 2018 build 013d7b7c2542+ Fri, 06 Jul 2018 19:26:36 +0100
REM compiler GCC version 9.2.1 20190827 (Red Hat 9.2.1-1)
REM options -cpp -mtune=generic -march=x86-64 -g -O0 -fpre-include=/usr/include/finclude/math-vector-fortran.h
REM seed -1009656334 -2051889124 640874138 1265769118 331508404 -1405371810 1040127829 186071897 1121208895 1023697175 -892259847 838192384 1773305780 -870840611 614569599 -1180654780 1915412966 1864409462 -1659652685 -1654582030 -1261008173 2095794154 299144165 175947117 -1200314882 -507244381 -1725356245 -501921937 209147554 364597237 -699227611 460556445 1646625409
REM
CELL 1.54180   50.00000   50.00000   50.00000   90.00000   90.00000   90.00000
LATT -1
SFAC C  
C      1  0.6075480000000  0.5048050000000  0.4800190000000 1.0
C      1  0.3850460000000  0.4802000000000  0.5198650000000 1.0
C      1  0.6292990000000  0.4861270000000  0.5411020000000 1.0
C      1  0.3931580000000  0.5026090000000  0.4468090000000 1.0
C      1  0.6039680000000  0.5489220000000  0.5057350000000 1.0
C      1  0.3995630000000  0.4396080000000  0.4949560000000 1.0
C      1  0.4694890000000  0.4313820000000  0.4219460000000 1.0
C      1  0.5329590000000  0.5627110000000  0.5812000000000 1.0
C      1  0.5239970000000  0.4096190000000  0.4778760000000 1.0
C      1  0.4712420000000  0.5753280000000  0.5078960000000 1.0
C      1  0.5448300000000  0.4973290000000  0.5458160000000 1.0
C      1  0.4593250000000  0.5010250000000  0.4467690000000 1.0
C      1  0.5997890000000  0.4894460000000  0.5040270000000 1.0
C      1  0.3857010000000  0.4957280000000  0.4949710000000 1.0
C      1  0.4146590000000  0.4281750000000  0.5424210000000 1.0
C      1  0.5838290000000  0.5651580000000  0.4629230000000 1.0
C      1  0.5876310000000  0.5733500000000  0.5105820000000 1.0
C      1  0.4199010000000  0.4180890000000  0.4952200000000 1.0
C      1  0.5458140000000  0.4662020000000  0.4225900000000 1.0
C      1  0.4464570000000  0.5239140000000  0.5715610000000 1.0
C      1  0.5250750000000  0.5389090000000  0.5688040000000 1.0
C      1  0.4708560000000  0.4599150000000  0.4229410000000 1.0
C      1  0.4014750000000  0.4806670000000  0.5641700000000 1.0
C      1  0.5809500000000  0.5149560000000  0.4466770000000 1.0
C      1  0.4516830000000  0.5050200000000  0.4747700000000 1.0
C      1  0.5453470000000  0.4823400000000  0.5195480000000 1.0
C      1  0.4229600000000  0.4408830000000  0.4555980000000 1.0
C      1  0.5970000000000  0.5499720000000  0.5502600000000 1.0
C      1  0.3942650000000  0.4508290000000  0.5209460000000 1.0
C      1  0.6043740000000  0.5398200000000  0.4796180000000 1.0
C      1  0.5171360000000  0.4893100000000  0.5544860000000 1.0
C      1  0.4859680000000  0.5126590000000  0.4448380000000 1.0
C      1  0.4011150000000  0.4552260000000  0.4696820000000 1.0
C      1  0.6066230000000  0.5317540000000  0.5296740000000 1.0
C      1  0.4285820000000  0.4115630000000  0.5215390000000 1.0
C      1  0.5730880000000  0.5820550000000  0.4867640000000 1.0
C      1  0.4251650000000  0.5087610000000  0.4795570000000 1.0
C      1  0.5570720000000  0.4562730000000  0.5190460000000 1.0
C      1  0.5850000000000  0.4617830000000  0.5080870000000 1.0
C      1  0.4023300000000  0.5205910000000  0.4920600000000 1.0
C      1  0.5885310000000  0.4704120000000  0.4487650000000 1.0
C      1  0.4045660000000  0.5201680000000  0.5422780000000 1.0
C      1  0.4934410000000  0.5845780000000  0.4393800000000 1.0
C      1  0.5077090000000  0.4189670000000  0.5608910000000 1.0
C      1  0.4979390000000  0.6137750000000  0.4781950000000 1.0
C      1  0.5033140000000  0.3879370000000  0.5242800000000 1.0
C      1  0.4656100000000  0.5101800000000  0.4994300000000 1.0
C      1  0.5334800000000  0.4899040000000  0.4955840000000 1.0
C      1  0.4984110000000  0.4897360000000  0.6129090000000 1.0
C      1  0.4999480000000  0.5208650000000  0.3821070000000 1.0
C      1  0.5522610000000  0.4095100000000  0.5013360000000 1.0
C      1  0.4468440000000  0.5821280000000  0.4944330000000 1.0
C      1  0.4722430000000  0.5016370000000  0.6078310000000 1.0
C      1  0.5261850000000  0.5190400000000  0.3701070000000 1.0
C      1  0.5203390000000  0.4541510000000  0.4153720000000 1.0
C      1  0.4714630000000  0.5223150000000  0.5878470000000 1.0
C      1  0.4628580000000  0.4546870000000  0.5414540000000 1.0
C      1  0.5337210000000  0.5474400000000  0.4677940000000 1.0
C      1  0.4222020000000  0.5685570000000  0.5007860000000 1.0
C      1  0.5812480000000  0.4136930000000  0.5005970000000 1.0
C      1  0.5242000000000  0.4550930000000  0.4669780000000 1.0
C      1  0.4710800000000  0.5417130000000  0.5356770000000 1.0
C      1  0.4118420000000  0.5525880000000  0.4567450000000 1.0
C      1  0.6104750000000  0.4394290000000  0.5387890000000 1.0
C      1  0.4675840000000  0.4268910000000  0.5417230000000 1.0
C      1  0.5317820000000  0.5749120000000  0.4651590000000 1.0
C      1  0.5453030000000  0.5925390000000  0.4831730000000 1.0
C      1  0.4564350000000  0.4064120000000  0.5259600000000 1.0
C      1  0.3882850000000  0.4963900000000  0.5440620000000 1.0
C      1  0.6007370000000  0.4949380000000  0.4547010000000 1.0
C      1  0.5441370000000  0.4751870000000  0.4719790000000 1.0
C      1  0.4521500000000  0.5242190000000  0.5227780000000 1.0
C      1  0.4788160000000  0.6009230000000  0.4596200000000 1.0
C      1  0.5209520000000  0.4059870000000  0.5382250000000 1.0
C      1  0.5654150000000  0.4866150000000  0.5641890000000 1.0
C      1  0.4276940000000  0.5915390000000  0.3969770000000 1.0
C      1  0.4550470000000  0.4840040000000  0.4230810000000 1.0
C      1  0.5396200000000  0.5282760000000  0.5428730000000 1.0
C      1  0.5127710000000  0.4459790000000  0.5539570000000 1.0
C      1  0.4823340000000  0.5583720000000  0.4417110000000 1.0
C      1  0.4044420000000  0.4813750000000  0.5917950000000 1.0
C      1  0.5799460000000  0.5209860000000  0.4195580000000 1.0
C      1  0.4764170000000  0.3873140000000  0.5190430000000 1.0
C      1  0.5239820000000  0.6121320000000  0.4883180000000 1.0
C      1  0.5354200000000  0.5370090000000  0.5139510000000 1.0
C      1  0.4454560000000  0.4644740000000  0.5005210000000 1.0
C      1  0.5925130000000  0.4424600000000  0.5609150000000 1.0
C      1  0.4299440000000  0.5754990000000  0.4487000000000 1.0
C      1  0.4929970000000  0.4517730000000  0.5037020000000 1.0
C      1  0.4879900000000  0.5565950000000  0.4936080000000 1.0
C      1  0.4815770000000  0.5876070000000  0.5544520000000 1.0
C      1  0.5401890000000  0.4192700000000  0.4360990000000 1.0
C      1  0.3899080000000  0.4821820000000  0.4681150000000 1.0
C      1  0.6111440000000  0.5032490000000  0.5275330000000 1.0
C      1  0.5418600000000  0.4230630000000  0.5238000000000 1.0
C      1  0.4503150000000  0.5897270000000  0.4663110000000 1.0
C      1  0.5072660000000  0.5372590000000  0.5032480000000 1.0
C      1  0.4698130000000  0.4571670000000  0.4913350000000 1.0
C      1  0.5862250000000  0.5748650000000  0.5394200000000 1.0
C      1  0.4370470000000  0.4197190000000  0.4713560000000 1.0
C      1  0.4975090000000  0.4655120000000  0.5964330000000 1.0
C      1  0.5047280000000  0.5389610000000  0.4045930000000 1.0
C      1  0.5316320000000  0.5518870000000  0.4030650000000 1.0
C      1  0.4688360000000  0.4544060000000  0.5990960000000 1.0
C      1  0.4926060000000  0.4160190000000  0.4311670000000 1.0
C      1  0.5291000000000  0.5898330000000  0.5744920000000 1.0
C      1  0.4981820000000  0.4661040000000  0.4287500000000 1.0
C      1  0.4969350000000  0.5300290000000  0.5735390000000 1.0
C      1  0.5668340000000  0.5196260000000  0.4719730000000 1.0
C      1  0.4231740000000  0.4709160000000  0.5489450000000 1.0
C      1  0.5189910000000  0.4989850000000  0.6287480000000 1.0
C      1  0.4751830000000  0.5076500000000  0.3817960000000 1.0
C      1  0.4773590000000  0.5519150000000  0.4683700000000 1.0
C      1  0.5075370000000  0.4513020000000  0.5261120000000 1.0
C      1  0.5497890000000  0.5354500000000  0.4884540000000 1.0
C      1  0.4403260000000  0.4643780000000  0.5278200000000 1.0
C      1  0.4721860000000  0.4737900000000  0.5580960000000 1.0
C      1  0.5296060000000  0.5303050000000  0.4468840000000 1.0
C      1  0.5028840000000  0.5970600000000  0.5675630000000 1.0
C      1  0.5182090000000  0.4248220000000  0.4188950000000 1.0
C      1  0.4071530000000  0.5493170000000  0.4858780000000 1.0
C      1  0.5974960000000  0.4352850000000  0.5125970000000 1.0
C      1  0.5742700000000  0.5956190000000  0.5534160000000 1.0
C      1  0.4639960000000  0.4092940000000  0.4699980000000 1.0
C      1  0.4558600000000  0.4973630000000  0.3977620000000 1.0
C      1  0.5395970000000  0.5088250000000  0.6413030000000 1.0
C      1  0.5521160000000  0.6034060000000  0.5661750000000 1.0
C      1  0.4913510000000  0.4072820000000  0.4603250000000 1.0
C      1  0.4328580000000  0.5217390000000  0.5450780000000 1.0
C      1  0.5603140000000  0.4714270000000  0.4472810000000 1.0
C      1  0.5036260000000  0.4711660000000  0.4560980000000 1.0
C      1  0.4894180000000  0.5245640000000  0.5466140000000 1.0
C      1  0.5427230000000  0.5708170000000  0.4219370000000 1.0
C      1  0.4582910000000  0.4309580000000  0.5848800000000 1.0
C      1  0.5784890000000  0.4637450000000  0.5699890000000 1.0
C      1  0.4275890000000  0.5847050000000  0.4221220000000 1.0
C      1  0.5340200000000  0.4290000000000  0.4619140000000 1.0
C      1  0.4719060000000  0.5699180000000  0.5353770000000 1.0
C      1  0.4789230000000  0.4184840000000  0.5671290000000 1.0
C      1  0.5223310000000  0.5833850000000  0.4393510000000 1.0
C      1  0.5461210000000  0.5340920000000  0.3847920000000 1.0
C      1  0.4536790000000  0.4785850000000  0.6074920000000 1.0
C      1  0.4998220000000  0.5014620000000  0.5353780000000 1.0
C      1  0.4999360000000  0.4977180000000  0.4647300000000 1.0
C      1  0.5703590000000  0.5247050000000  0.3949140000000 1.0
C      1  0.4257890000000  0.4803020000000  0.6080230000000 1.0
C      1  0.4896630000000  0.5354360000000  0.4279520000000 1.0
C      1  0.5119970000000  0.4673220000000  0.5717370000000 1.0
C      1  0.4299760000000  0.4290670000000  0.5702690000000 1.0
C      1  0.5694870000000  0.5682850000000  0.4367380000000 1.0
C      1  0.4016480000000  0.5288900000000  0.4423930000000 1.0
C      1  0.6314630000000  0.4589370000000  0.5400970000000 1.0
C      1  0.4999070000000  0.5063040000000  0.5000600000000 1.0
END
