TITL C-3623285-6872-510 0.00104642980721486 125000 -274.090635665545 0 0 47 (C1) n - 1
REM
REM in /home/nfs/bkarasulu/CARBON/AIRSS/Generating-Clusters/LCBOP/Higher-Symm/SD-CG/FIRE-CG
REM
REM
REM
REM
REM
REM ./C.cell (b20cbc046b6831c77cfcea5457e17084)
REM AIRSS Version 0.9.1 bugfix July 2018 build 013d7b7c2542+ Fri, 06 Jul 2018 19:26:36 +0100
REM compiler GCC version 9.2.1 20190827 (Red Hat 9.2.1-1)
REM options -cpp -mtune=generic -march=x86-64 -g -O0 -fpre-include=/usr/include/finclude/math-vector-fortran.h
REM seed -645464697 -1570890024 -1087533970 1605389720 -522117377 -1109933596 -572383650 -1644522844 1250957879 -512414577 -1804181197 -1961319454 -718625263 1566551442 1242161852 -1547035195 2095528894 -1952686650 190780885 -1768583927 116492811 -287302544 364639084 -1943075771 1118782490 -1458416719 -1595260953 -1761732560 764319431 420840534 -78369772 -1746706414 -1397749562
REM
CELL 1.54180   50.00000   50.00000   50.00000   90.00000   90.00000   90.00000
LATT -1
SFAC C  
C      1  0.4737270000000  0.4429440000000  0.5283060000000 1.0
C      1  0.4201540000000  0.4863320000000  0.5041880000000 1.0
C      1  0.5050860000000  0.6076890000000  0.5435190000000 1.0
C      1  0.5535550000000  0.4693450000000  0.4953630000000 1.0
C      1  0.4860550000000  0.6131620000000  0.4958020000000 1.0
C      1  0.4336590000000  0.4742190000000  0.4587910000000 1.0
C      1  0.5174810000000  0.4324920000000  0.5092830000000 1.0
C      1  0.5516620000000  0.5156610000000  0.4823180000000 1.0
C      1  0.5113910000000  0.4866070000000  0.4737760000000 1.0
C      1  0.4905020000000  0.4694840000000  0.4884440000000 1.0
C      1  0.4668440000000  0.4873550000000  0.4912490000000 1.0
C      1  0.4968240000000  0.5120440000000  0.4674600000000 1.0
C      1  0.5199850000000  0.4994410000000  0.5173140000000 1.0
C      1  0.4961360000000  0.5181580000000  0.5162340000000 1.0
C      1  0.4910350000000  0.4885460000000  0.5530060000000 1.0
C      1  0.5087290000000  0.4770520000000  0.5325880000000 1.0
C      1  0.5576310000000  0.5311940000000  0.4614730000000 1.0
C      1  0.5302850000000  0.4095300000000  0.5060450000000 1.0
C      1  0.4404860000000  0.4793960000000  0.4335180000000 1.0
C      1  0.4782670000000  0.5990830000000  0.4746770000000 1.0
C      1  0.5745970000000  0.4533200000000  0.4969140000000 1.0
C      1  0.5098990000000  0.5878560000000  0.5605590000000 1.0
C      1  0.4160480000000  0.5012050000000  0.5259590000000 1.0
C      1  0.4640700000000  0.4499150000000  0.5525760000000 1.0
C      1  0.5443860000000  0.3873440000000  0.5026580000000 1.0
C      1  0.4576060000000  0.4944170000000  0.4196150000000 1.0
C      1  0.4753050000000  0.5779380000000  0.4589090000000 1.0
C      1  0.5450980000000  0.5381960000000  0.4388990000000 1.0
C      1  0.5083430000000  0.5621470000000  0.5671510000000 1.0
C      1  0.4306660000000  0.5167480000000  0.5419690000000 1.0
C      1  0.4734960000000  0.4717910000000  0.5678060000000 1.0
C      1  0.5950630000000  0.4365570000000  0.4985320000000 1.0
C      1  0.4791840000000  0.5538290000000  0.4485660000000 1.0
C      1  0.5199180000000  0.5350140000000  0.4304660000000 1.0
C      1  0.5592000000000  0.3661700000000  0.4992240000000 1.0
C      1  0.4770780000000  0.5123520000000  0.4226520000000 1.0
C      1  0.4667880000000  0.4761140000000  0.5938090000000 1.0
C      1  0.6144270000000  0.4191840000000  0.5002190000000 1.0
C      1  0.5001600000000  0.5373480000000  0.5622260000000 1.0
C      1  0.4559010000000  0.5235410000000  0.5469040000000 1.0
C      1  0.4399870000000  0.4812460000000  0.4851590000000 1.0
C      1  0.4960600000000  0.6166220000000  0.5201690000000 1.0
C      1  0.5357280000000  0.4926670000000  0.4920900000000 1.0
C      1  0.4979110000000  0.4539930000000  0.5142200000000 1.0
C      1  0.4849640000000  0.5180640000000  0.5456100000000 1.0
C      1  0.4932400000000  0.5282140000000  0.4420180000000 1.0
C      1  0.4802000000000  0.5141490000000  0.4921090000000 1.0
END
