TITL C-3623287-7182-1472 1.35179296658319e-07 125000 -821.413276504055 0 0 132 (C1) n - 1
REM
REM in /home/nfs/bkarasulu/CARBON/AIRSS/Generating-Clusters/LCBOP/Higher-Symm/SD-CG/FIRE-CG
REM
REM
REM
REM
REM
REM ./C.cell (b20cbc046b6831c77cfcea5457e17084)
REM AIRSS Version 0.9.1 bugfix July 2018 build 013d7b7c2542+ Fri, 06 Jul 2018 19:26:36 +0100
REM compiler GCC version 9.2.1 20190827 (Red Hat 9.2.1-1)
REM options -cpp -mtune=generic -march=x86-64 -g -O0 -fpre-include=/usr/include/finclude/math-vector-fortran.h
REM seed -103292451 741798828 -362511891 564920173 84975134 -1475713708 48247439 -368417754 -1331844786 1072832202 2103587827 1002973234 713387510 -1186010708 1674288323 125183578 -1108167959 -1846211411 1164798301 -531773179 -1031558613 -1545131768 -970775307 860067390 -1810662005 915094387 2119885911 163248441 271370883 -473670578 353410570 102604673 1199370292
REM
CELL 1.54180   50.00000   50.00000   50.00000   90.00000   90.00000   90.00000
LATT -1
SFAC C  
C      1  0.4673970000000  0.4603760000000  0.4662330000000 1.0
C      1  0.5023550000000  0.5274950000000  0.5201290000000 1.0
C      1  0.5032330000000  0.4843600000000  0.4400650000000 1.0
C      1  0.4896680000000  0.5153080000000  0.5425760000000 1.0
C      1  0.5327840000000  0.4945430000000  0.3918140000000 1.0
C      1  0.4645230000000  0.5044220000000  0.5967470000000 1.0
C      1  0.5218760000000  0.5974920000000  0.5404230000000 1.0
C      1  0.4887360000000  0.4014530000000  0.4492930000000 1.0
C      1  0.4559210000000  0.4044520000000  0.4907660000000 1.0
C      1  0.5564200000000  0.5734860000000  0.5134540000000 1.0
C      1  0.5204360000000  0.5610640000000  0.5860060000000 1.0
C      1  0.4780190000000  0.4452160000000  0.4231180000000 1.0
C      1  0.4761510000000  0.5465470000000  0.4693570000000 1.0
C      1  0.5294430000000  0.4532920000000  0.5295570000000 1.0
C      1  0.4888880000000  0.5014190000000  0.4573060000000 1.0
C      1  0.5166370000000  0.4885130000000  0.5047730000000 1.0
C      1  0.5992960000000  0.5694350000000  0.5360270000000 1.0
C      1  0.4098630000000  0.4024850000000  0.4771630000000 1.0
C      1  0.5170830000000  0.4227870000000  0.5685720000000 1.0
C      1  0.4926360000000  0.5797930000000  0.4308550000000 1.0
C      1  0.5024880000000  0.5365650000000  0.4018210000000 1.0
C      1  0.4984570000000  0.4643530000000  0.5940390000000 1.0
C      1  0.5492350000000  0.4634840000000  0.5473020000000 1.0
C      1  0.4530530000000  0.5452130000000  0.4521710000000 1.0
C      1  0.4742840000000  0.4334680000000  0.5322350000000 1.0
C      1  0.5355300000000  0.5644100000000  0.4651020000000 1.0
C      1  0.5267650000000  0.4336850000000  0.5094720000000 1.0
C      1  0.4831470000000  0.5636620000000  0.4910550000000 1.0
C      1  0.4964180000000  0.5288370000000  0.4603310000000 1.0
C      1  0.5066810000000  0.4706830000000  0.5246730000000 1.0
C      1  0.4426340000000  0.4527410000000  0.5051960000000 1.0
C      1  0.5444370000000  0.5293510000000  0.4927870000000 1.0
C      1  0.4573750000000  0.4459320000000  0.4434700000000 1.0
C      1  0.5450810000000  0.5454170000000  0.5828800000000 1.0
C      1  0.4452590000000  0.4987090000000  0.5307530000000 1.0
C      1  0.5508870000000  0.4985450000000  0.4506680000000 1.0
C      1  0.5215410000000  0.4065750000000  0.5176500000000 1.0
C      1  0.4875500000000  0.5911100000000  0.4829230000000 1.0
C      1  0.4457170000000  0.4972570000000  0.6162330000000 1.0
C      1  0.5557840000000  0.5083210000000  0.3831730000000 1.0
C      1  0.4648070000000  0.4301750000000  0.5033930000000 1.0
C      1  0.5450140000000  0.5585330000000  0.4925620000000 1.0
C      1  0.4557890000000  0.5221180000000  0.5746570000000 1.0
C      1  0.5380460000000  0.4732050000000  0.4113580000000 1.0
C      1  0.6099740000000  0.4118290000000  0.4753410000000 1.0
C      1  0.3813330000000  0.5976620000000  0.5386760000000 1.0
C      1  0.4594480000000  0.5452710000000  0.4238770000000 1.0
C      1  0.5430100000000  0.4644950000000  0.5753230000000 1.0
C      1  0.3980230000000  0.4688950000000  0.5770970000000 1.0
C      1  0.6056740000000  0.5345940000000  0.4343410000000 1.0
C      1  0.4290190000000  0.3959520000000  0.4956210000000 1.0
C      1  0.5848210000000  0.5764390000000  0.5141050000000 1.0
C      1  0.3541430000000  0.5249520000000  0.5483500000000 1.0
C      1  0.6421250000000  0.4829710000000  0.4777030000000 1.0
C      1  0.5016310000000  0.5250670000000  0.5657260000000 1.0
C      1  0.4884750000000  0.4714440000000  0.4182040000000 1.0
C      1  0.5194400000000  0.4486670000000  0.5820830000000 1.0
C      1  0.4858210000000  0.5556420000000  0.4166240000000 1.0
C      1  0.4083650000000  0.6025300000000  0.5416860000000 1.0
C      1  0.5853050000000  0.4076530000000  0.4636920000000 1.0
C      1  0.4624350000000  0.5114070000000  0.5485810000000 1.0
C      1  0.5309040000000  0.4846640000000  0.4369250000000 1.0
C      1  0.5185190000000  0.4059520000000  0.5466040000000 1.0
C      1  0.4910910000000  0.5936910000000  0.4544390000000 1.0
C      1  0.6635520000000  0.4965100000000  0.4877300000000 1.0
C      1  0.3311180000000  0.5109520000000  0.5525010000000 1.0
C      1  0.4027130000000  0.5562750000000  0.5401750000000 1.0
C      1  0.5943940000000  0.4531490000000  0.4603980000000 1.0
C      1  0.4739040000000  0.5868550000000  0.5458660000000 1.0
C      1  0.5262120000000  0.4265140000000  0.4620230000000 1.0
C      1  0.4571100000000  0.4244390000000  0.5527480000000 1.0
C      1  0.5524670000000  0.5792880000000  0.4483740000000 1.0
C      1  0.5584200000000  0.5610070000000  0.5615630000000 1.0
C      1  0.4441490000000  0.4212190000000  0.4485470000000 1.0
C      1  0.4120080000000  0.4464820000000  0.5673760000000 1.0
C      1  0.5983630000000  0.5615970000000  0.4347140000000 1.0
C      1  0.4407350000000  0.5020050000000  0.4689660000000 1.0
C      1  0.5494530000000  0.5092950000000  0.5329590000000 1.0
C      1  0.4584890000000  0.5033130000000  0.3953700000000 1.0
C      1  0.5400300000000  0.5157110000000  0.5896130000000 1.0
C      1  0.4214690000000  0.4865770000000  0.6191720000000 1.0
C      1  0.5772220000000  0.5167030000000  0.3969430000000 1.0
C      1  0.5281680000000  0.5148670000000  0.5125380000000 1.0
C      1  0.4653360000000  0.4885320000000  0.4671750000000 1.0
C      1  0.5738080000000  0.4326530000000  0.4542810000000 1.0
C      1  0.4231270000000  0.5777770000000  0.5446230000000 1.0
C      1  0.5228260000000  0.5387750000000  0.4560680000000 1.0
C      1  0.4803990000000  0.4626620000000  0.5316950000000 1.0
C      1  0.5438250000000  0.5774820000000  0.5398710000000 1.0
C      1  0.4630990000000  0.4030380000000  0.4623510000000 1.0
C      1  0.3800540000000  0.5128830000000  0.5493310000000 1.0
C      1  0.6217780000000  0.4954350000000  0.4622410000000 1.0
C      1  0.5141160000000  0.4409720000000  0.4841970000000 1.0
C      1  0.4898090000000  0.5634150000000  0.5433250000000 1.0
C      1  0.6239710000000  0.5217560000000  0.4516870000000 1.0
C      1  0.3849020000000  0.4876290000000  0.5607590000000 1.0
C      1  0.3541670000000  0.5526340000000  0.5425380000000 1.0
C      1  0.6383580000000  0.4553840000000  0.4820640000000 1.0
C      1  0.4902640000000  0.4188240000000  0.4252550000000 1.0
C      1  0.5014330000000  0.5530710000000  0.5668080000000 1.0
C      1  0.5973800000000  0.4809270000000  0.4552980000000 1.0
C      1  0.4021040000000  0.5277820000000  0.5380660000000 1.0
C      1  0.5424080000000  0.5196630000000  0.4662600000000 1.0
C      1  0.4543880000000  0.4739070000000  0.5218650000000 1.0
C      1  0.4336070000000  0.5269550000000  0.4614790000000 1.0
C      1  0.5627730000000  0.4865160000000  0.5383610000000 1.0
C      1  0.4924080000000  0.5534130000000  0.5161440000000 1.0
C      1  0.4847650000000  0.4449710000000  0.4841850000000 1.0
C      1  0.5128030000000  0.4002740000000  0.4654760000000 1.0
C      1  0.4934240000000  0.6055290000000  0.5330200000000 1.0
C      1  0.5112990000000  0.5103650000000  0.5870660000000 1.0
C      1  0.4838470000000  0.4910540000000  0.3977470000000 1.0
C      1  0.4894790000000  0.6095010000000  0.5046440000000 1.0
C      1  0.5157230000000  0.3907220000000  0.4934800000000 1.0
C      1  0.4485520000000  0.5258760000000  0.4063840000000 1.0
C      1  0.5516710000000  0.4890790000000  0.5887100000000 1.0
C      1  0.5773410000000  0.5777090000000  0.4385570000000 1.0
C      1  0.4332250000000  0.4307610000000  0.5632150000000 1.0
C      1  0.4505200000000  0.5507540000000  0.5738700000000 1.0
C      1  0.5441850000000  0.4460370000000  0.4178970000000 1.0
C      1  0.5474070000000  0.4340960000000  0.4441190000000 1.0
C      1  0.4486050000000  0.5748270000000  0.5566620000000 1.0
C      1  0.4217340000000  0.5124910000000  0.5252430000000 1.0
C      1  0.5777070000000  0.4966290000000  0.4420930000000 1.0
C      1  0.5069820000000  0.5086460000000  0.3936960000000 1.0
C      1  0.4913350000000  0.4920940000000  0.5963370000000 1.0
C      1  0.6168930000000  0.4395430000000  0.4742330000000 1.0
C      1  0.3760720000000  0.5695210000000  0.5389070000000 1.0
C      1  0.4023370000000  0.4757550000000  0.6040380000000 1.0
C      1  0.5871020000000  0.5160970000000  0.4230500000000 1.0
C      1  0.4169410000000  0.4154880000000  0.4541610000000 1.0
C      1  0.5868360000000  0.5612750000000  0.5587560000000 1.0
END
