TITL C-3623289-7120-1766 -8.49096889668517 125000 -440.27837630765 0 0 75 (Cs) n - 1
REM
REM in /home/nfs/bkarasulu/CARBON/AIRSS/Generating-Clusters/LCBOP/Higher-Symm/SD-CG/FIRE-CG
REM
REM
REM
REM
REM
REM ./C.cell (b20cbc046b6831c77cfcea5457e17084)
REM AIRSS Version 0.9.1 bugfix July 2018 build 013d7b7c2542+ Fri, 06 Jul 2018 19:26:36 +0100
REM compiler GCC version 9.2.1 20190827 (Red Hat 9.2.1-1)
REM options -cpp -mtune=generic -march=x86-64 -g -O0 -fpre-include=/usr/include/finclude/math-vector-fortran.h
REM seed -2099617844 -1735738739 307423768 305010873 -1124298852 -2142144824 1493455948 2069556729 1528103120 706589186 1633909874 1090531456 492592233 -546260115 1567145753 -1825490410 -463235740 132922424 -833817173 436686118 962251377 -1504642991 1469292873 467547404 2143838177 -1464493258 -1871566382 -609831320 -319171829 1780596438 -1492606957 1275941479 -1776958862
REM
CELL 1.54180   50.00000   50.00000   50.00000   90.00000   90.00000   90.00000
LATT -1
SFAC C  
C      1  0.5767240000000  0.4751800000000  0.4893090000000 1.0
C      1  0.4233520000000  0.5236630000000  0.4844100000000 1.0
C      1  0.5767230000000  0.5246310000000  0.4893430000000 1.0
C      1  0.4233530000000  0.4761480000000  0.4843780000000 1.0
C      1  0.5399160000000  0.4759960000000  0.4561920000000 1.0
C      1  0.4459260000000  0.5241950000000  0.4399040000000 1.0
C      1  0.5399150000000  0.5238580000000  0.4562240000000 1.0
C      1  0.4459270000000  0.4756770000000  0.4398710000000 1.0
C      1  0.4585230000000  0.4503620000000  0.4455350000000 1.0
C      1  0.5380240000000  0.5533310000000  0.4501470000000 1.0
C      1  0.4585210000000  0.5495030000000  0.4456020000000 1.0
C      1  0.5380260000000  0.4465310000000  0.4500740000000 1.0
C      1  0.5672340000000  0.4855810000000  0.4643910000000 1.0
C      1  0.4238490000000  0.5146410000000  0.4568060000000 1.0
C      1  0.5672330000000  0.5142630000000  0.4644100000000 1.0
C      1  0.4238500000000  0.4852070000000  0.4567860000000 1.0
C      1  0.4294730000000  0.4389990000000  0.5145230000000 1.0
C      1  0.5719080000000  0.5627580000000  0.5178100000000 1.0
C      1  0.4294710000000  0.5607720000000  0.5146050000000 1.0
C      1  0.5719100000000  0.4370130000000  0.5177250000000 1.0
C      1  0.5713190000000  0.5529730000000  0.4914670000000 1.0
C      1  0.4301160000000  0.4485700000000  0.4882030000000 1.0
C      1  0.5713220000000  0.4468350000000  0.4913960000000 1.0
C      1  0.4301140000000  0.5512360000000  0.4882720000000 1.0
C      1  0.5197360000000  0.4769600000000  0.4801770000000 1.0
C      1  0.4775300000000  0.5246660000000  0.4908390000000 1.0
C      1  0.5197350000000  0.5228600000000  0.4802080000000 1.0
C      1  0.4775310000000  0.4751380000000  0.4908060000000 1.0
C      1  0.4532990000000  0.5240600000000  0.5382240000000 1.0
C      1  0.5511450000000  0.4757620000000  0.5413100000000 1.0
C      1  0.4533000000000  0.4756790000000  0.5381910000000 1.0
C      1  0.5511440000000  0.5239770000000  0.5413420000000 1.0
C      1  0.4853140000000  0.5564660000000  0.4376640000000 1.0
C      1  0.5124130000000  0.4398280000000  0.4388620000000 1.0
C      1  0.4853160000000  0.4434110000000  0.4375870000000 1.0
C      1  0.5124100000000  0.5600480000000  0.4389440000000 1.0
C      1  0.4450250000000  0.4368130000000  0.4669000000000 1.0
C      1  0.5569070000000  0.5650630000000  0.4691360000000 1.0
C      1  0.4450220000000  0.5630220000000  0.4669860000000 1.0
C      1  0.5569100000000  0.4347740000000  0.4690480000000 1.0
C      1  0.4382490000000  0.5477980000000  0.5364800000000 1.0
C      1  0.5651140000000  0.4513090000000  0.5395920000000 1.0
C      1  0.4382510000000  0.4519430000000  0.5364150000000 1.0
C      1  0.5651120000000  0.5484330000000  0.5396580000000 1.0
C      1  0.4799220000000  0.5251840000000  0.5435110000000 1.0
C      1  0.5241930000000  0.4755300000000  0.5435830000000 1.0
C      1  0.4799230000000  0.4745500000000  0.5434770000000 1.0
C      1  0.5241920000000  0.5242050000000  0.5436150000000 1.0
C      1  0.5022250000000  0.5434530000000  0.5004920000000 1.0
C      1  0.5022270000000  0.4563390000000  0.5004330000000 1.0
C      1  0.5037350000000  0.4126120000000  0.5208940000000 1.0
C      1  0.5037320000000  0.5871530000000  0.5210120000000 1.0
C      1  0.5014180000000  0.4858770000000  0.6313600000000 1.0
C      1  0.5014470000000  0.5137380000000  0.6313790000000 1.0
C      1  0.5040490000000  0.4303700000000  0.5416160000000 1.0
C      1  0.5040460000000  0.5693670000000  0.5417100000000 1.0
C      1  0.5322730000000  0.4999390000000  0.4381350000000 1.0
C      1  0.4607770000000  0.4999400000000  0.4348330000000 1.0
C      1  0.5009070000000  0.4769390000000  0.6048520000000 1.0
C      1  0.5009540000000  0.5227120000000  0.6048820000000 1.0
C      1  0.4421750000000  0.4998770000000  0.5270760000000 1.0
C      1  0.5632450000000  0.4998760000000  0.5317790000000 1.0
C      1  0.5014630000000  0.4259020000000  0.4955270000000 1.0
C      1  0.5014600000000  0.5738970000000  0.4956270000000 1.0
C      1  0.5031560000000  0.5412260000000  0.5319340000000 1.0
C      1  0.5031580000000  0.4585240000000  0.5318780000000 1.0
C      1  0.4270270000000  0.4998930000000  0.5022590000000 1.0
C      1  0.5773080000000  0.4998930000000  0.5066900000000 1.0
C      1  0.4967310000000  0.5894770000000  0.4739380000000 1.0
C      1  0.4967350000000  0.4103510000000  0.4738170000000 1.0
C      1  0.4931990000000  0.4999140000000  0.4742620000000 1.0
C      1  0.5074920000000  0.4999460000000  0.4265710000000 1.0
C      1  0.5005850000000  0.4998380000000  0.5863740000000 1.0
C      1  0.5001110000000  0.4998570000000  0.5581740000000 1.0
C      1  0.4865680000000  0.4999330000000  0.4449690000000 1.0
END
