TITL C-3623284-6838-2030 3.75661014128148e-07 125000 -1110.0010291897 0 0 182 (C1) n - 1
REM
REM in /home/nfs/bkarasulu/CARBON/AIRSS/Generating-Clusters/LCBOP/Higher-Symm/SD-CG/FIRE-CG
REM
REM
REM
REM
REM
REM ./C.cell (b20cbc046b6831c77cfcea5457e17084)
REM AIRSS Version 0.9.1 bugfix July 2018 build 013d7b7c2542+ Fri, 06 Jul 2018 19:26:36 +0100
REM compiler GCC version 9.2.1 20190827 (Red Hat 9.2.1-1)
REM options -cpp -mtune=generic -march=x86-64 -g -O0 -fpre-include=/usr/include/finclude/math-vector-fortran.h
REM seed -528064629 -1260495914 461227467 -1205535001 988376685 -12751980 -282452071 268062312 1800176041 980621441 300346220 -1946576187 -1213354540 774624793 1173390582 -2134430806 907629191 -1881937078 1469122266 709586287 -139251450 -1392281323 737968345 -1940045188 -1774801214 716023331 1866044620 2140045833 -1652160800 636535361 1969420771 1813763314 -670184032
REM
CELL 1.54180   50.00000   50.00000   50.00000   90.00000   90.00000   90.00000
LATT -1
SFAC C  
C      1  0.5272350000000  0.5451550000000  0.3984260000000 1.0
C      1  0.5492410000000  0.4920970000000  0.4055900000000 1.0
C      1  0.5091220000000  0.4486220000000  0.4013660000000 1.0
C      1  0.4561970000000  0.4784210000000  0.3986100000000 1.0
C      1  0.4697620000000  0.5355030000000  0.4027690000000 1.0
C      1  0.5240810000000  0.5408100000000  0.5963600000000 1.0
C      1  0.5467110000000  0.4894650000000  0.5914010000000 1.0
C      1  0.5051770000000  0.4493910000000  0.5974180000000 1.0
C      1  0.4517880000000  0.4797900000000  0.6066100000000 1.0
C      1  0.4655000000000  0.5361760000000  0.6027660000000 1.0
C      1  0.3910150000000  0.4874860000000  0.4715400000000 1.0
C      1  0.4554530000000  0.5942260000000  0.4725580000000 1.0
C      1  0.5787440000000  0.5859670000000  0.4706040000000 1.0
C      1  0.6061290000000  0.4519420000000  0.4703130000000 1.0
C      1  0.4803900000000  0.3970230000000  0.4751710000000 1.0
C      1  0.3937830000000  0.4877260000000  0.5290460000000 1.0
C      1  0.4539430000000  0.5928450000000  0.5284050000000 1.0
C      1  0.5763510000000  0.5825550000000  0.5277270000000 1.0
C      1  0.6046090000000  0.4484050000000  0.5279220000000 1.0
C      1  0.4794030000000  0.3987780000000  0.5320840000000 1.0
C      1  0.4917250000000  0.6033360000000  0.4387930000000 1.0
C      1  0.5951650000000  0.5412240000000  0.4401170000000 1.0
C      1  0.5676180000000  0.4221470000000  0.4394430000000 1.0
C      1  0.4438550000000  0.4111370000000  0.4382370000000 1.0
C      1  0.4020890000000  0.5245730000000  0.4387500000000 1.0
C      1  0.4901580000000  0.6013500000000  0.5617090000000 1.0
C      1  0.5926110000000  0.5378550000000  0.5579150000000 1.0
C      1  0.5655360000000  0.4195670000000  0.5592780000000 1.0
C      1  0.4418700000000  0.4120860000000  0.5648000000000 1.0
C      1  0.3969320000000  0.5247230000000  0.5636270000000 1.0
C      1  0.5888230000000  0.4340960000000  0.4854750000000 1.0
C      1  0.4630890000000  0.4152330000000  0.4896780000000 1.0
C      1  0.4064980000000  0.5084200000000  0.4857460000000 1.0
C      1  0.4794290000000  0.5886470000000  0.4872720000000 1.0
C      1  0.5967220000000  0.5696290000000  0.4854990000000 1.0
C      1  0.5971450000000  0.4263650000000  0.5113610000000 1.0
C      1  0.4640020000000  0.4178790000000  0.5172520000000 1.0
C      1  0.4076500000000  0.5077060000000  0.5134970000000 1.0
C      1  0.4787510000000  0.5876230000000  0.5148120000000 1.0
C      1  0.5865050000000  0.5616230000000  0.5105780000000 1.0
C      1  0.6004420000000  0.5163210000000  0.5398110000000 1.0
C      1  0.5458660000000  0.4062430000000  0.5425240000000 1.0
C      1  0.4222850000000  0.4241910000000  0.5452600000000 1.0
C      1  0.4028040000000  0.5466240000000  0.5441210000000 1.0
C      1  0.5130880000000  0.6052760000000  0.5434720000000 1.0
C      1  0.6044080000000  0.5194910000000  0.4566590000000 1.0
C      1  0.5483320000000  0.4076230000000  0.4576230000000 1.0
C      1  0.4222700000000  0.4224270000000  0.4569700000000 1.0
C      1  0.4057820000000  0.5474260000000  0.4572770000000 1.0
C      1  0.5144870000000  0.6067210000000  0.4574190000000 1.0
C      1  0.4631410000000  0.4430660000000  0.5300670000000 1.0
C      1  0.4338140000000  0.5139190000000  0.5233250000000 1.0
C      1  0.4929990000000  0.5646670000000  0.5249850000000 1.0
C      1  0.5670990000000  0.5405580000000  0.5100160000000 1.0
C      1  0.5443980000000  0.4450290000000  0.5046750000000 1.0
C      1  0.4597480000000  0.4393300000000  0.4757360000000 1.0
C      1  0.4333820000000  0.5112790000000  0.4749510000000 1.0
C      1  0.4943530000000  0.5668940000000  0.4764940000000 1.0
C      1  0.5613720000000  0.5281310000000  0.4852360000000 1.0
C      1  0.5627380000000  0.4453630000000  0.4839600000000 1.0
C      1  0.4519260000000  0.5714670000000  0.5498950000000 1.0
C      1  0.5559970000000  0.5699640000000  0.5470100000000 1.0
C      1  0.5819340000000  0.4622780000000  0.5432240000000 1.0
C      1  0.4910310000000  0.4143760000000  0.5556650000000 1.0
C      1  0.4113650000000  0.4793800000000  0.5526850000000 1.0
C      1  0.4542500000000  0.5732310000000  0.4505080000000 1.0
C      1  0.5580440000000  0.5711870000000  0.4532760000000 1.0
C      1  0.5886440000000  0.4673360000000  0.4500700000000 1.0
C      1  0.4921710000000  0.4122190000000  0.4512560000000 1.0
C      1  0.4110140000000  0.4766100000000  0.4502760000000 1.0
C      1  0.4460820000000  0.5206270000000  0.5876320000000 1.0
C      1  0.5025370000000  0.5465390000000  0.5785830000000 1.0
C      1  0.5489930000000  0.5112980000000  0.5726490000000 1.0
C      1  0.5258940000000  0.4524940000000  0.5752540000000 1.0
C      1  0.4625240000000  0.4610390000000  0.5874070000000 1.0
C      1  0.4591830000000  0.5178170000000  0.4234820000000 1.0
C      1  0.5074110000000  0.5549960000000  0.4167690000000 1.0
C      1  0.5492530000000  0.5151030000000  0.4241390000000 1.0
C      1  0.5326550000000  0.4518450000000  0.4196700000000 1.0
C      1  0.4643140000000  0.4545790000000  0.4125350000000 1.0
C      1  0.5211810000000  0.4066240000000  0.4481460000000 1.0
C      1  0.4099920000000  0.4469950000000  0.4468820000000 1.0
C      1  0.4263470000000  0.5646710000000  0.4474990000000 1.0
C      1  0.5377860000000  0.5928500000000  0.4480130000000 1.0
C      1  0.6006330000000  0.4938280000000  0.4450830000000 1.0
C      1  0.5197980000000  0.4060690000000  0.5545390000000 1.0
C      1  0.4119050000000  0.4495750000000  0.5547170000000 1.0
C      1  0.4240220000000  0.5633240000000  0.5537440000000 1.0
C      1  0.5359670000000  0.5909000000000  0.5527800000000 1.0
C      1  0.5923790000000  0.4901890000000  0.5478730000000 1.0
C      1  0.4691760000000  0.4133840000000  0.5777630000000 1.0
C      1  0.4067430000000  0.4988330000000  0.5771010000000 1.0
C      1  0.4707800000000  0.5814330000000  0.5722330000000 1.0
C      1  0.5697440000000  0.5531180000000  0.5688410000000 1.0
C      1  0.5722880000000  0.4468060000000  0.5679300000000 1.0
C      1  0.4732640000000  0.4112350000000  0.4262590000000 1.0
C      1  0.4134660000000  0.4989120000000  0.4284820000000 1.0
C      1  0.4720980000000  0.5836820000000  0.4278920000000 1.0
C      1  0.5717450000000  0.5556130000000  0.4301490000000 1.0
C      1  0.5777660000000  0.4490370000000  0.4273520000000 1.0
C      1  0.5148260000000  0.4787360000000  0.4567000000000 1.0
C      1  0.4778890000000  0.4798350000000  0.4872210000000 1.0
C      1  0.4796030000000  0.5075720000000  0.4744920000000 1.0
C      1  0.5062570000000  0.5162870000000  0.4837510000000 1.0
C      1  0.5263100000000  0.5030020000000  0.4678270000000 1.0
C      1  0.5091880000000  0.4731690000000  0.5257400000000 1.0
C      1  0.4804700000000  0.4819020000000  0.5167360000000 1.0
C      1  0.4817600000000  0.5101510000000  0.5204500000000 1.0
C      1  0.5081760000000  0.5196220000000  0.5122870000000 1.0
C      1  0.5264490000000  0.5005580000000  0.5249860000000 1.0
C      1  0.5513030000000  0.3989230000000  0.4861550000000 1.0
C      1  0.4167090000000  0.4170190000000  0.4870610000000 1.0
C      1  0.3974340000000  0.5519250000000  0.4863270000000 1.0
C      1  0.5152170000000  0.6155710000000  0.4864960000000 1.0
C      1  0.6117070000000  0.5201820000000  0.4849720000000 1.0
C      1  0.5494830000000  0.3986950000000  0.5140320000000 1.0
C      1  0.4168120000000  0.4179100000000  0.5155570000000 1.0
C      1  0.3960020000000  0.5512530000000  0.5146890000000 1.0
C      1  0.5146760000000  0.6150640000000  0.5147770000000 1.0
C      1  0.6107370000000  0.5188270000000  0.5124770000000 1.0
C      1  0.5053460000000  0.5407810000000  0.4406950000000 1.0
C      1  0.5313690000000  0.5249550000000  0.4479320000000 1.0
C      1  0.5355010000000  0.4612620000000  0.4469530000000 1.0
C      1  0.4764610000000  0.4604780000000  0.4374850000000 1.0
C      1  0.4769680000000  0.5067890000000  0.4437280000000 1.0
C      1  0.4921170000000  0.5283940000000  0.5595710000000 1.0
C      1  0.5400890000000  0.5177550000000  0.5460120000000 1.0
C      1  0.5277890000000  0.4596570000000  0.5464770000000 1.0
C      1  0.4812590000000  0.4713980000000  0.5653710000000 1.0
C      1  0.4540570000000  0.5072690000000  0.5634420000000 1.0
C      1  0.4595480000000  0.5287630000000  0.5172170000000 1.0
C      1  0.5171630000000  0.5491270000000  0.5147610000000 1.0
C      1  0.5513120000000  0.4895170000000  0.5116890000000 1.0
C      1  0.5169360000000  0.4543410000000  0.5014230000000 1.0
C      1  0.4555540000000  0.4702960000000  0.5282380000000 1.0
C      1  0.4591970000000  0.5287190000000  0.4803920000000 1.0
C      1  0.5192850000000  0.5546610000000  0.4847080000000 1.0
C      1  0.5533290000000  0.4973120000000  0.4819080000000 1.0
C      1  0.5010310000000  0.4611370000000  0.4775360000000 1.0
C      1  0.4529130000000  0.4663370000000  0.4791900000000 1.0
C      1  0.5526800000000  0.4617160000000  0.5841500000000 1.0
C      1  0.4774000000000  0.4366010000000  0.5945550000000 1.0
C      1  0.4292940000000  0.4988890000000  0.5984050000000 1.0
C      1  0.4787720000000  0.5596570000000  0.5896700000000 1.0
C      1  0.5507500000000  0.5381410000000  0.5852390000000 1.0
C      1  0.5580430000000  0.4635050000000  0.4094260000000 1.0
C      1  0.4823470000000  0.4320710000000  0.4051250000000 1.0
C      1  0.4392240000000  0.4982730000000  0.4138300000000 1.0
C      1  0.4804970000000  0.5623180000000  0.4098200000000 1.0
C      1  0.5538650000000  0.5416260000000  0.4111200000000 1.0
C      1  0.3739300000000  0.4734790000000  0.5148690000000 1.0
C      1  0.4341290000000  0.6065060000000  0.5138330000000 1.0
C      1  0.5728300000000  0.6073510000000  0.5139030000000 1.0
C      1  0.6252130000000  0.4633360000000  0.5143360000000 1.0
C      1  0.4888130000000  0.3762990000000  0.5178910000000 1.0
C      1  0.3724800000000  0.4735640000000  0.4876720000000 1.0
C      1  0.4348460000000  0.6072240000000  0.4866660000000 1.0
C      1  0.5721060000000  0.6090520000000  0.4864600000000 1.0
C      1  0.6264810000000  0.4634810000000  0.4868280000000 1.0
C      1  0.4899260000000  0.3755010000000  0.4906960000000 1.0
C      1  0.4842020000000  0.5186130000000  0.6179340000000 1.0
C      1  0.5140590000000  0.5205240000000  0.6145780000000 1.0
C      1  0.5252590000000  0.4935680000000  0.6110750000000 1.0
C      1  0.5033070000000  0.4741390000000  0.6140250000000 1.0
C      1  0.4772080000000  0.4897530000000  0.6192700000000 1.0
C      1  0.4857560000000  0.5188990000000  0.3843350000000 1.0
C      1  0.5155820000000  0.5221590000000  0.3839500000000 1.0
C      1  0.5269410000000  0.4949430000000  0.3869230000000 1.0
C      1  0.5052530000000  0.4745270000000  0.3861780000000 1.0
C      1  0.4793120000000  0.4897150000000  0.3842230000000 1.0
C      1  0.4366490000000  0.4836270000000  0.4653690000000 1.0
C      1  0.4736450000000  0.5508800000000  0.4621290000000 1.0
C      1  0.5440230000000  0.5470180000000  0.4679740000000 1.0
C      1  0.5611420000000  0.4699950000000  0.4657790000000 1.0
C      1  0.4852130000000  0.4415250000000  0.4595300000000 1.0
C      1  0.4389650000000  0.4911070000000  0.5429240000000 1.0
C      1  0.4702350000000  0.5487980000000  0.5374780000000 1.0
C      1  0.5439600000000  0.5455860000000  0.5299760000000 1.0
C      1  0.5548650000000  0.4624880000000  0.5276810000000 1.0
C      1  0.4856460000000  0.4451710000000  0.5491730000000 1.0
C      1  0.4922210000000  0.4837570000000  0.4381220000000 1.0
C      1  0.4822120000000  0.5016860000000  0.5616300000000 1.0
END
