TITL C-3623283-6828-282 1.73766328688655e-08 125000 -237.065884036322 0 0 41 (C1) n - 1
REM
REM in /home/nfs/bkarasulu/CARBON/AIRSS/Generating-Clusters/LCBOP/Higher-Symm/SD-CG/FIRE-CG
REM
REM
REM
REM
REM
REM ./C.cell (b20cbc046b6831c77cfcea5457e17084)
REM AIRSS Version 0.9.1 bugfix July 2018 build 013d7b7c2542+ Fri, 06 Jul 2018 19:26:36 +0100
REM compiler GCC version 9.2.1 20190827 (Red Hat 9.2.1-1)
REM options -cpp -mtune=generic -march=x86-64 -g -O0 -fpre-include=/usr/include/finclude/math-vector-fortran.h
REM seed -2052395139 -860750575 69925564 -1445763077 1852934892 -54884940 -340032448 -1467549132 -1975130528 -1764909553 67194476 -1407579479 1662370713 -1547405696 479701411 -397878514 -847876636 277495027 -141786607 136853837 -356955659 -1492840345 -2025396498 -1695154819 1175008386 -1582805228 543556849 -1484197488 -1248181385 -1381089515 2022850105 -401113111 1386927978
REM
CELL 1.54180   50.00000   50.00000   50.00000   90.00000   90.00000   90.00000
LATT -1
SFAC C  
C      1  0.4854560000000  0.4575260000000  0.4746660000000 1.0
C      1  0.5033820000000  0.4621150000000  0.5171000000000 1.0
C      1  0.5140860000000  0.5147700000000  0.4322780000000 1.0
C      1  0.4902890000000  0.5184570000000  0.5618630000000 1.0
C      1  0.5260400000000  0.4888320000000  0.4404470000000 1.0
C      1  0.4769260000000  0.4926340000000  0.5564510000000 1.0
C      1  0.5000380000000  0.4828590000000  0.4740490000000 1.0
C      1  0.5030850000000  0.4943280000000  0.5163320000000 1.0
C      1  0.5475650000000  0.5435790000000  0.4716750000000 1.0
C      1  0.4460050000000  0.5424940000000  0.5285520000000 1.0
C      1  0.4699070000000  0.5155790000000  0.4811300000000 1.0
C      1  0.5508190000000  0.5186030000000  0.5219270000000 1.0
C      1  0.5443990000000  0.4918700000000  0.4641180000000 1.0
C      1  0.4564280000000  0.4923610000000  0.5354380000000 1.0
C      1  0.4724210000000  0.5278120000000  0.4553840000000 1.0
C      1  0.5365490000000  0.5279370000000  0.5431210000000 1.0
C      1  0.4416010000000  0.5167740000000  0.5347140000000 1.0
C      1  0.5548660000000  0.5186180000000  0.4652700000000 1.0
C      1  0.4495980000000  0.4944720000000  0.4853130000000 1.0
C      1  0.5576980000000  0.4919170000000  0.5142700000000 1.0
C      1  0.5191800000000  0.5162990000000  0.5622130000000 1.0
C      1  0.4853260000000  0.5156520000000  0.4328730000000 1.0
C      1  0.4627330000000  0.5610300000000  0.5190930000000 1.0
C      1  0.5302630000000  0.5610010000000  0.4821110000000 1.0
C      1  0.4850990000000  0.5698680000000  0.5075790000000 1.0
C      1  0.5084680000000  0.5696590000000  0.4947720000000 1.0
C      1  0.5283560000000  0.4570810000000  0.4999840000000 1.0
C      1  0.4766780000000  0.4572370000000  0.5023960000000 1.0
C      1  0.5626120000000  0.4759170000000  0.5376260000000 1.0
C      1  0.4410250000000  0.4823090000000  0.4605760000000 1.0
C      1  0.4580350000000  0.4730630000000  0.4394410000000 1.0
C      1  0.5486450000000  0.4761770000000  0.5609780000000 1.0
C      1  0.5017670000000  0.4524440000000  0.5447600000000 1.0
C      1  0.4783670000000  0.4536110000000  0.4480300000000 1.0
C      1  0.5063000000000  0.4695300000000  0.4312740000000 1.0
C      1  0.4985950000000  0.4733400000000  0.5634260000000 1.0
C      1  0.5460750000000  0.4782410000000  0.4908110000000 1.0
C      1  0.4564050000000  0.4777520000000  0.5093950000000 1.0
C      1  0.4750520000000  0.4906870000000  0.4248770000000 1.0
C      1  0.5238280000000  0.4877380000000  0.5684790000000 1.0
C      1  0.4948600000000  0.5052520000000  0.4914710000000 1.0
END
