TITL C-3623283-6828-1518 -2.9043841729213e-07 125000 -638.917159954597 0 0 105 (C1) n - 1
REM
REM in /home/nfs/bkarasulu/CARBON/AIRSS/Generating-Clusters/LCBOP/Higher-Symm/SD-CG/FIRE-CG
REM
REM
REM
REM
REM
REM ./C.cell (b20cbc046b6831c77cfcea5457e17084)
REM AIRSS Version 0.9.1 bugfix July 2018 build 013d7b7c2542+ Fri, 06 Jul 2018 19:26:36 +0100
REM compiler GCC version 9.2.1 20190827 (Red Hat 9.2.1-1)
REM options -cpp -mtune=generic -march=x86-64 -g -O0 -fpre-include=/usr/include/finclude/math-vector-fortran.h
REM seed 2081874214 -698079245 1104426309 -1319217766 979171607 -1182332795 2029184410 900427365 -2097155292 -402019380 -415005094 -865571810 -1501131261 474760526 -11269973 723362112 1995816307 172127740 -664057397 652316448 2029244344 1771405352 785913591 -2023507317 -1622910046 -690500798 1073288394 -562317734 496727477 -842315898 -1757726907 652773762 -570370758
REM
CELL 1.54180   50.00000   50.00000   50.00000   90.00000   90.00000   90.00000
LATT -1
SFAC C  
C      1  0.4060710000000  0.5183900000000  0.4784320000000 1.0
C      1  0.5194320000000  0.4002920000000  0.4712750000000 1.0
C      1  0.5569650000000  0.5705230000000  0.4635830000000 1.0
C      1  0.5493010000000  0.5368940000000  0.5130750000000 1.0
C      1  0.4577500000000  0.5250670000000  0.5222800000000 1.0
C      1  0.4962520000000  0.4495210000000  0.5249280000000 1.0
C      1  0.5688720000000  0.3955460000000  0.4712020000000 1.0
C      1  0.5235480000000  0.6057490000000  0.4829210000000 1.0
C      1  0.3936190000000  0.4700310000000  0.4915030000000 1.0
C      1  0.5269170000000  0.5297230000000  0.4219030000000 1.0
C      1  0.4535560000000  0.4980870000000  0.4110100000000 1.0
C      1  0.5323520000000  0.4722530000000  0.4224300000000 1.0
C      1  0.4427160000000  0.4104180000000  0.4895790000000 1.0
C      1  0.6010130000000  0.5367410000000  0.5056620000000 1.0
C      1  0.4494440000000  0.5845840000000  0.4876450000000 1.0
C      1  0.5025950000000  0.4610850000000  0.4997690000000 1.0
C      1  0.5228310000000  0.5456170000000  0.4994450000000 1.0
C      1  0.4638290000000  0.5162330000000  0.4959070000000 1.0
C      1  0.5436020000000  0.3852940000000  0.4726530000000 1.0
C      1  0.5483180000000  0.5935280000000  0.4797100000000 1.0
C      1  0.3903910000000  0.4973240000000  0.4903050000000 1.0
C      1  0.6134940000000  0.4904510000000  0.5138530000000 1.0
C      1  0.4812740000000  0.5985920000000  0.5213570000000 1.0
C      1  0.4178390000000  0.4281790000000  0.5270580000000 1.0
C      1  0.4928510000000  0.5869760000000  0.4512680000000 1.0
C      1  0.4304370000000  0.4578660000000  0.4636850000000 1.0
C      1  0.5706350000000  0.4464840000000  0.4706150000000 1.0
C      1  0.5364830000000  0.4928170000000  0.4902720000000 1.0
C      1  0.4801000000000  0.5295690000000  0.4755930000000 1.0
C      1  0.4856950000000  0.4755000000000  0.4812890000000 1.0
C      1  0.5254120000000  0.4272510000000  0.4657190000000 1.0
C      1  0.5348860000000  0.5663870000000  0.4465040000000 1.0
C      1  0.4245130000000  0.5062670000000  0.4605640000000 1.0
C      1  0.5702820000000  0.5078130000000  0.5568440000000 1.0
C      1  0.4568220000000  0.5548850000000  0.5696310000000 1.0
C      1  0.4752300000000  0.4242970000000  0.5698060000000 1.0
C      1  0.5282140000000  0.4886140000000  0.6052730000000 1.0
C      1  0.4954810000000  0.5229170000000  0.6053040000000 1.0
C      1  0.4820500000000  0.4774650000000  0.6067080000000 1.0
C      1  0.4415310000000  0.4432440000000  0.4425270000000 1.0
C      1  0.5826010000000  0.4715340000000  0.4631630000000 1.0
C      1  0.4850800000000  0.5861810000000  0.4242940000000 1.0
C      1  0.4872510000000  0.4507800000000  0.4264630000000 1.0
C      1  0.5661690000000  0.5212050000000  0.4522810000000 1.0
C      1  0.4655930000000  0.5437140000000  0.4144400000000 1.0
C      1  0.5372210000000  0.4212160000000  0.5335350000000 1.0
C      1  0.5516940000000  0.5772120000000  0.5439490000000 1.0
C      1  0.4124680000000  0.5070270000000  0.5388540000000 1.0
C      1  0.4817330000000  0.5328910000000  0.5369770000000 1.0
C      1  0.4744850000000  0.4607470000000  0.5402730000000 1.0
C      1  0.5445960000000  0.5058970000000  0.5159840000000 1.0
C      1  0.4217940000000  0.4272910000000  0.4993070000000 1.0
C      1  0.6183600000000  0.5164740000000  0.5087600000000 1.0
C      1  0.4740330000000  0.5980330000000  0.4942150000000 1.0
C      1  0.5033510000000  0.4290400000000  0.5684860000000 1.0
C      1  0.5563460000000  0.5317290000000  0.5631460000000 1.0
C      1  0.4429720000000  0.5299170000000  0.5690500000000 1.0
C      1  0.5747440000000  0.5410500000000  0.4967280000000 1.0
C      1  0.4290860000000  0.5667220000000  0.4865260000000 1.0
C      1  0.4669170000000  0.4001600000000  0.4837570000000 1.0
C      1  0.4657150000000  0.5181980000000  0.4262080000000 1.0
C      1  0.5064320000000  0.4700120000000  0.4340230000000 1.0
C      1  0.5376120000000  0.5195120000000  0.4462330000000 1.0
C      1  0.5229020000000  0.5163800000000  0.6012760000000 1.0
C      1  0.4736190000000  0.5044700000000  0.6031360000000 1.0
C      1  0.5088500000000  0.4679400000000  0.6030670000000 1.0
C      1  0.4498740000000  0.5123010000000  0.5901020000000 1.0
C      1  0.5140530000000  0.4436760000000  0.5900070000000 1.0
C      1  0.5408000000000  0.5320250000000  0.5865030000000 1.0
C      1  0.4587020000000  0.4415390000000  0.5545260000000 1.0
C      1  0.5677420000000  0.4942470000000  0.5318730000000 1.0
C      1  0.4785590000000  0.5572670000000  0.5515280000000 1.0
C      1  0.5808870000000  0.4199420000000  0.4697520000000 1.0
C      1  0.4953200000000  0.6025770000000  0.4752170000000 1.0
C      1  0.4122210000000  0.4493520000000  0.4837950000000 1.0
C      1  0.4399050000000  0.4840430000000  0.4684050000000 1.0
C      1  0.5425800000000  0.4467340000000  0.4764730000000 1.0
C      1  0.5089860000000  0.5639970000000  0.4572060000000 1.0
C      1  0.4123940000000  0.5453530000000  0.4851530000000 1.0
C      1  0.4925880000000  0.3945130000000  0.4778670000000 1.0
C      1  0.5708960000000  0.5454840000000  0.4688670000000 1.0
C      1  0.5119830000000  0.5473450000000  0.4077210000000 1.0
C      1  0.4505380000000  0.4720630000000  0.4058490000000 1.0
C      1  0.5576800000000  0.4817160000000  0.4245170000000 1.0
C      1  0.5521610000000  0.6028950000000  0.5483360000000 1.0
C      1  0.3904670000000  0.4949550000000  0.5460270000000 1.0
C      1  0.5612190000000  0.4111030000000  0.5324980000000 1.0
C      1  0.5214830000000  0.5046380000000  0.5353320000000 1.0
C      1  0.4957100000000  0.5092480000000  0.5438700000000 1.0
C      1  0.4795280000000  0.4867260000000  0.5491830000000 1.0
C      1  0.4608480000000  0.4886940000000  0.4869530000000 1.0
C      1  0.5301490000000  0.4652580000000  0.4931960000000 1.0
C      1  0.5027090000000  0.5469990000000  0.4792120000000 1.0
C      1  0.5522170000000  0.5494730000000  0.5408430000000 1.0
C      1  0.4363470000000  0.5209430000000  0.5419170000000 1.0
C      1  0.5131020000000  0.4325530000000  0.5413860000000 1.0
C      1  0.4594160000000  0.4509130000000  0.4222000000000 1.0
C      1  0.5743650000000  0.4928500000000  0.4457260000000 1.0
C      1  0.4871260000000  0.5612580000000  0.4103400000000 1.0
C      1  0.4861220000000  0.5821400000000  0.5417500000000 1.0
C      1  0.4323240000000  0.4356800000000  0.5481660000000 1.0
C      1  0.5898460000000  0.4802050000000  0.5218420000000 1.0
C      1  0.4994160000000  0.4889000000000  0.4565450000000 1.0
C      1  0.5248470000000  0.5030870000000  0.4657840000000 1.0
C      1  0.4806620000000  0.5135010000000  0.4503150000000 1.0
END
