TITL C-3623289-7120-258 -0.00800211512136081 125000 -1179.0682739696 0 0 192 (C1) n - 1
REM
REM in /home/nfs/bkarasulu/CARBON/AIRSS/Generating-Clusters/LCBOP/Higher-Symm/SD-CG/FIRE-CG
REM
REM
REM
REM
REM
REM ./C.cell (b20cbc046b6831c77cfcea5457e17084)
REM AIRSS Version 0.9.1 bugfix July 2018 build 013d7b7c2542+ Fri, 06 Jul 2018 19:26:36 +0100
REM compiler GCC version 9.2.1 20190827 (Red Hat 9.2.1-1)
REM options -cpp -mtune=generic -march=x86-64 -g -O0 -fpre-include=/usr/include/finclude/math-vector-fortran.h
REM seed -1228397105 -1728945140 1278863095 -2011421797 1180501558 188085675 -95395149 256693571 -1642777397 1892607953 -415154029 820284751 194458017 773031432 -3932690 -277722028 -483828455 498638859 -894579584 1317266762 -2010185450 -1446951448 414582759 313955727 -828715840 -1352468246 -1524196270 257665488 -355753713 -750448738 323233565 16496088 940668896
REM
CELL 1.54180   50.00000   50.00000   50.00000   90.00000   90.00000   90.00000
LATT -1
SFAC C  
C      1  0.4345840000000  0.5604110000000  0.4282940000000 1.0
C      1  0.4634550000000  0.5600970000000  0.5917440000000 1.0
C      1  0.6005570000000  0.5543860000000  0.4956360000000 1.0
C      1  0.5416840000000  0.3499190000000  0.4472110000000 1.0
C      1  0.4769790000000  0.3594220000000  0.4761630000000 1.0
C      1  0.4579410000000  0.3822770000000  0.5385810000000 1.0
C      1  0.5028150000000  0.3504650000000  0.4824860000000 1.0
C      1  0.4610400000000  0.3557330000000  0.5449810000000 1.0
C      1  0.5210820000000  0.3430940000000  0.4626070000000 1.0
C      1  0.5687630000000  0.5114670000000  0.5321340000000 1.0
C      1  0.4822940000000  0.5210390000000  0.4262750000000 1.0
C      1  0.4431690000000  0.5069380000000  0.5521110000000 1.0
C      1  0.4547040000000  0.5268370000000  0.5988950000000 1.0
C      1  0.6039960000000  0.5237660000000  0.4959480000000 1.0
C      1  0.4305960000000  0.5350900000000  0.4114310000000 1.0
C      1  0.5431730000000  0.5647210000000  0.5929140000000 1.0
C      1  0.5576650000000  0.5582510000000  0.4029890000000 1.0
C      1  0.3968730000000  0.5558420000000  0.5004790000000 1.0
C      1  0.4513700000000  0.5268650000000  0.4648410000000 1.0
C      1  0.4855100000000  0.5309420000000  0.5617470000000 1.0
C      1  0.5561630000000  0.5348710000000  0.4861680000000 1.0
C      1  0.5205840000000  0.5958080000000  0.5637830000000 1.0
C      1  0.5698770000000  0.6008190000000  0.4191820000000 1.0
C      1  0.4298930000000  0.5905770000000  0.4931940000000 1.0
C      1  0.4449310000000  0.4760590000000  0.4220550000000 1.0
C      1  0.4555080000000  0.4661180000000  0.5820800000000 1.0
C      1  0.5937490000000  0.4683850000000  0.4931180000000 1.0
C      1  0.5086110000000  0.5594030000000  0.5362980000000 1.0
C      1  0.5186480000000  0.5602730000000  0.4753670000000 1.0
C      1  0.4634380000000  0.5558060000000  0.4997980000000 1.0
C      1  0.4332470000000  0.5825110000000  0.5214460000000 1.0
C      1  0.5451030000000  0.5873910000000  0.5484750000000 1.0
C      1  0.5412200000000  0.5984480000000  0.4178480000000 1.0
C      1  0.6016770000000  0.4849630000000  0.5611640000000 1.0
C      1  0.4832640000000  0.4875410000000  0.3925460000000 1.0
C      1  0.4110080000000  0.4741720000000  0.5662080000000 1.0
C      1  0.4127450000000  0.5654250000000  0.4490990000000 1.0
C      1  0.4895330000000  0.5711140000000  0.6009100000000 1.0
C      1  0.6050290000000  0.5650670000000  0.4216330000000 1.0
C      1  0.5156370000000  0.5780170000000  0.5879950000000 1.0
C      1  0.5802700000000  0.5744170000000  0.4124470000000 1.0
C      1  0.4121380000000  0.5713740000000  0.4782910000000 1.0
C      1  0.4463850000000  0.5712350000000  0.5724470000000 1.0
C      1  0.5863590000000  0.5701460000000  0.5153570000000 1.0
C      1  0.4615330000000  0.5729010000000  0.4295650000000 1.0
C      1  0.6136110000000  0.6652800000000  0.4380820000000 1.0
C      1  0.4641460000000  0.6565480000000  0.4633420000000 1.0
C      1  0.4707250000000  0.6544600000000  0.5426360000000 1.0
C      1  0.3806330000000  0.5028910000000  0.5096580000000 1.0
C      1  0.5586750000000  0.5130640000000  0.6072690000000 1.0
C      1  0.5526580000000  0.5080480000000  0.3860000000000 1.0
C      1  0.4113170000000  0.5066630000000  0.4791550000000 1.0
C      1  0.5179100000000  0.5188220000000  0.5941640000000 1.0
C      1  0.5612390000000  0.5156140000000  0.4397610000000 1.0
C      1  0.5892050000000  0.4280420000000  0.4197230000000 1.0
C      1  0.4102580000000  0.4247250000000  0.4587470000000 1.0
C      1  0.5025930000000  0.4331930000000  0.6038540000000 1.0
C      1  0.5570520000000  0.4615400000000  0.4019260000000 1.0
C      1  0.3943220000000  0.4520580000000  0.4953320000000 1.0
C      1  0.5412400000000  0.4614950000000  0.5988820000000 1.0
C      1  0.5076430000000  0.5606740000000  0.4158420000000 1.0
C      1  0.4135400000000  0.5484620000000  0.5467660000000 1.0
C      1  0.5758410000000  0.5536900000000  0.5584240000000 1.0
C      1  0.5426960000000  0.5602500000000  0.4942960000000 1.0
C      1  0.4602990000000  0.5521220000000  0.4711350000000 1.0
C      1  0.4812370000000  0.5543240000000  0.5460410000000 1.0
C      1  0.6161530000000  0.4623610000000  0.5521140000000 1.0
C      1  0.4639620000000  0.4674720000000  0.4017810000000 1.0
C      1  0.4309200000000  0.4552710000000  0.5745770000000 1.0
C      1  0.4922430000000  0.4796730000000  0.6059380000000 1.0
C      1  0.6015980000000  0.4678660000000  0.4438920000000 1.0
C      1  0.4012530000000  0.4690590000000  0.4418110000000 1.0
C      1  0.4506780000000  0.5270930000000  0.3924710000000 1.0
C      1  0.4256470000000  0.5164420000000  0.5959960000000 1.0
C      1  0.6159890000000  0.5141870000000  0.5221480000000 1.0
C      1  0.5589800000000  0.4465090000000  0.5207150000000 1.0
C      1  0.4821670000000  0.4259030000000  0.4522830000000 1.0
C      1  0.4619030000000  0.4408910000000  0.5242510000000 1.0
C      1  0.5230300000000  0.4688580000000  0.4388710000000 1.0
C      1  0.4450990000000  0.4635060000000  0.5184820000000 1.0
C      1  0.5465650000000  0.4630000000000  0.5408790000000 1.0
C      1  0.3990900000000  0.4513480000000  0.4642910000000 1.0
C      1  0.5125580000000  0.4601630000000  0.6081470000000 1.0
C      1  0.5866180000000  0.4563540000000  0.4225070000000 1.0
C      1  0.5207370000000  0.4247090000000  0.4029100000000 1.0
C      1  0.4132750000000  0.4077820000000  0.5272820000000 1.0
C      1  0.5678740000000  0.4230150000000  0.5734820000000 1.0
C      1  0.4173700000000  0.4094600000000  0.4814820000000 1.0
C      1  0.5166160000000  0.4191950000000  0.5827240000000 1.0
C      1  0.5658150000000  0.4147170000000  0.4114770000000 1.0
C      1  0.5603620000000  0.4850390000000  0.5980420000000 1.0
C      1  0.5405900000000  0.4832870000000  0.3920320000000 1.0
C      1  0.3886150000000  0.4747490000000  0.5149010000000 1.0
C      1  0.5053690000000  0.4870100000000  0.4469060000000 1.0
C      1  0.4526900000000  0.4881140000000  0.5301540000000 1.0
C      1  0.5475930000000  0.4905200000000  0.5335150000000 1.0
C      1  0.5844080000000  0.4813210000000  0.5830880000000 1.0
C      1  0.5115890000000  0.4823980000000  0.3888410000000 1.0
C      1  0.3950050000000  0.4701390000000  0.5428540000000 1.0
C      1  0.6184700000000  0.5469050000000  0.4363490000000 1.0
C      1  0.3890410000000  0.5515810000000  0.4400960000000 1.0
C      1  0.4912660000000  0.5629800000000  0.6284980000000 1.0
C      1  0.5495830000000  0.3956500000000  0.4255390000000 1.0
C      1  0.4363660000000  0.3900750000000  0.4910970000000 1.0
C      1  0.5021580000000  0.4024500000000  0.5629530000000 1.0
C      1  0.4401830000000  0.4662920000000  0.4905100000000 1.0
C      1  0.5213520000000  0.4581480000000  0.5539110000000 1.0
C      1  0.5447380000000  0.4640870000000  0.4537980000000 1.0
C      1  0.5889080000000  0.4235090000000  0.5566480000000 1.0
C      1  0.4958800000000  0.4312280000000  0.3921980000000 1.0
C      1  0.4124210000000  0.4155690000000  0.5539780000000 1.0
C      1  0.4363410000000  0.3903060000000  0.5202960000000 1.0
C      1  0.5179140000000  0.3823870000000  0.5505920000000 1.0
C      1  0.5226720000000  0.4066080000000  0.4260110000000 1.0
C      1  0.3829180000000  0.5302030000000  0.5044350000000 1.0
C      1  0.5539090000000  0.5404790000000  0.6057580000000 1.0
C      1  0.5580630000000  0.5339220000000  0.3894070000000 1.0
C      1  0.5540930000000  0.3699000000000  0.4346890000000 1.0
C      1  0.4546610000000  0.3739220000000  0.4776740000000 1.0
C      1  0.4742970000000  0.4030580000000  0.5522240000000 1.0
C      1  0.4196690000000  0.5615240000000  0.5711590000000 1.0
C      1  0.5957110000000  0.5643620000000  0.5417320000000 1.0
C      1  0.4823760000000  0.5733470000000  0.4100710000000 1.0
C      1  0.5054430000000  0.4104810000000  0.4478340000000 1.0
C      1  0.5124210000000  0.3526400000000  0.5087030000000 1.0
C      1  0.5202920000000  0.3644320000000  0.5311410000000 1.0
C      1  0.4640610000000  0.4704100000000  0.4723760000000 1.0
C      1  0.4994340000000  0.4765450000000  0.5553580000000 1.0
C      1  0.5457410000000  0.4723140000000  0.4817700000000 1.0
C      1  0.4390880000000  0.6146180000000  0.4826700000000 1.0
C      1  0.5058390000000  0.6189010000000  0.5587070000000 1.0
C      1  0.5844600000000  0.6233980000000  0.4254740000000 1.0
C      1  0.4575800000000  0.5732780000000  0.5453590000000 1.0
C      1  0.5566180000000  0.5761220000000  0.5159080000000 1.0
C      1  0.4729420000000  0.5717750000000  0.4556280000000 1.0
C      1  0.5046160000000  0.5373250000000  0.4325540000000 1.0
C      1  0.4334020000000  0.5301350000000  0.5361840000000 1.0
C      1  0.5572500000000  0.5349340000000  0.5463880000000 1.0
C      1  0.4799380000000  0.4833910000000  0.5783660000000 1.0
C      1  0.5708390000000  0.4860880000000  0.4906320000000 1.0
C      1  0.4580630000000  0.4835550000000  0.4461600000000 1.0
C      1  0.4722910000000  0.4404880000000  0.4044110000000 1.0
C      1  0.4342820000000  0.4302770000000  0.5631300000000 1.0
C      1  0.6025840000000  0.4413590000000  0.5389930000000 1.0
C      1  0.4658820000000  0.4282350000000  0.4292110000000 1.0
C      1  0.4593220000000  0.4271040000000  0.5489150000000 1.0
C      1  0.5880250000000  0.4491760000000  0.5154560000000 1.0
C      1  0.5143830000000  0.5228680000000  0.6207140000000 1.0
C      1  0.5866740000000  0.5129480000000  0.4323800000000 1.0
C      1  0.3906910000000  0.5094960000000  0.4620210000000 1.0
C      1  0.5735610000000  0.5149950000000  0.5007550000000 1.0
C      1  0.4641880000000  0.5113820000000  0.4459610000000 1.0
C      1  0.4666550000000  0.5116230000000  0.5725630000000 1.0
C      1  0.6093970000000  0.4783580000000  0.4700210000000 1.0
C      1  0.4174350000000  0.4847430000000  0.4232080000000 1.0
C      1  0.4757770000000  0.4910610000000  0.6261860000000 1.0
C      1  0.5165590000000  0.5326090000000  0.4600730000000 1.0
C      1  0.4445560000000  0.5345950000000  0.5101630000000 1.0
C      1  0.5287630000000  0.5404820000000  0.5480100000000 1.0
C      1  0.5129710000000  0.5268810000000  0.5681160000000 1.0
C      1  0.5464040000000  0.5262160000000  0.4603390000000 1.0
C      1  0.4349620000000  0.5188830000000  0.4869120000000 1.0
C      1  0.4688540000000  0.5187220000000  0.6246820000000 1.0
C      1  0.6137700000000  0.5082640000000  0.4709830000000 1.0
C      1  0.4117090000000  0.5138250000000  0.4199360000000 1.0
C      1  0.4914630000000  0.5350840000000  0.6321580000000 1.0
C      1  0.6099790000000  0.5217790000000  0.4457070000000 1.0
C      1  0.3910590000000  0.5234570000000  0.4376390000000 1.0
C      1  0.5597030000000  0.5735230000000  0.5701850000000 1.0
C      1  0.5326570000000  0.5719120000000  0.4101620000000 1.0
C      1  0.4085080000000  0.5664690000000  0.5254710000000 1.0
C      1  0.4766930000000  0.4959900000000  0.5161150000000 1.0
C      1  0.5241230000000  0.4969820000000  0.5186210000000 1.0
C      1  0.5050430000000  0.5043950000000  0.4723640000000 1.0
C      1  0.4776090000000  0.4428440000000  0.4747070000000 1.0
C      1  0.4781480000000  0.4334100000000  0.5019230000000 1.0
C      1  0.5436890000000  0.4465120000000  0.4969720000000 1.0
C      1  0.5969590000000  0.5048590000000  0.5415950000000 1.0
C      1  0.4749490000000  0.5141500000000  0.3996130000000 1.0
C      1  0.4204670000000  0.5006140000000  0.5718950000000 1.0
C      1  0.4843760000000  0.5770790000000  0.4997950000000 1.0
C      1  0.5043240000000  0.5807810000000  0.5188580000000 1.0
C      1  0.4957190000000  0.5778240000000  0.4725890000000 1.0
C      1  0.5256080000000  0.4925980000000  0.4907370000000 1.0
C      1  0.4798680000000  0.4934500000000  0.4873560000000 1.0
C      1  0.4995870000000  0.4931180000000  0.5316540000000 1.0
C      1  0.4509900000000  0.6361530000000  0.4728550000000 1.0
C      1  0.4887270000000  0.6377630000000  0.5513970000000 1.0
C      1  0.5991180000000  0.6445340000000  0.4318230000000 1.0
C      1  0.5439880000000  0.4331040000000  0.5845840000000 1.0
C      1  0.5475290000000  0.4344870000000  0.3988500000000 1.0
C      1  0.4044040000000  0.4239270000000  0.5045850000000 1.0
END
