TITL C-3623286-7563-1972 -1.1964839217942e-06 125000 -1210.2095486522 0 0 195 (C5) n - 1
REM
REM in /home/nfs/bkarasulu/CARBON/AIRSS/Generating-Clusters/LCBOP/Higher-Symm/SD-CG/FIRE-CG
REM
REM
REM
REM
REM
REM ./C.cell (b20cbc046b6831c77cfcea5457e17084)
REM AIRSS Version 0.9.1 bugfix July 2018 build 013d7b7c2542+ Fri, 06 Jul 2018 19:26:36 +0100
REM compiler GCC version 9.2.1 20190827 (Red Hat 9.2.1-1)
REM options -cpp -mtune=generic -march=x86-64 -g -O0 -fpre-include=/usr/include/finclude/math-vector-fortran.h
REM seed -1461962844 1602108463 -2029322166 734219435 245473355 -897479434 -798561191 -1521806350 -1513943145 -1531067264 -895927576 1601062704 137256384 -1526131307 223454446 -1655135101 1527741617 766349500 -1476797752 -184527439 -916656069 -632585603 206316620 -985877915 1979870079 -2126016536 1262841548 -826886166 1250533435 -1555576427 768695092 1057854150 -752474360
REM
CELL 1.54180   50.00000   50.00000   50.00000   90.00000   90.00000   90.00000
LATT -1
SFAC C  
C      1  0.5145810000000  0.4017860000000  0.5441470000000 1.0
C      1  0.5145940000000  0.4276640000000  0.4202370000000 1.0
C      1  0.5146030000000  0.5535070000000  0.4065580000000 1.0
C      1  0.5145950000000  0.6054040000000  0.5220150000000 1.0
C      1  0.5145820000000  0.5116350000000  0.6070500000000 1.0
C      1  0.6372410000000  0.4820920000000  0.5204500000000 1.0
C      1  0.6372440000000  0.4750230000000  0.4893040000000 1.0
C      1  0.6372470000000  0.5024600000000  0.4729570000000 1.0
C      1  0.6372460000000  0.5264860000000  0.4939990000000 1.0
C      1  0.6372430000000  0.5138980000000  0.5233520000000 1.0
C      1  0.3926790000000  0.4582730000000  0.4678610000000 1.0
C      1  0.3926840000000  0.5176670000000  0.4503710000000 1.0
C      1  0.3926810000000  0.5526540000000  0.5014530000000 1.0
C      1  0.3926750000000  0.5148840000000  0.5505130000000 1.0
C      1  0.3926730000000  0.4565530000000  0.5297520000000 1.0
C      1  0.4875900000000  0.4563410000000  0.5222970000000 1.0
C      1  0.4875960000000  0.4653020000000  0.4653670000000 1.0
C      1  0.4876000000000  0.5222150000000  0.4562970000000 1.0
C      1  0.4875970000000  0.5484290000000  0.5076220000000 1.0
C      1  0.4875900000000  0.5077160000000  0.5484120000000 1.0
C      1  0.4999560000000  0.5235580000000  0.5042880000000 1.0
C      1  0.4999530000000  0.5032010000000  0.5237300000000 1.0
C      1  0.4999530000000  0.4784200000000  0.5103780000000 1.0
C      1  0.4999560000000  0.4834620000000  0.4826840000000 1.0
C      1  0.4999580000000  0.5113580000000  0.4789200000000 1.0
C      1  0.6013020000000  0.4490590000000  0.5040720000000 1.0
C      1  0.6013080000000  0.4803900000000  0.4528230000000 1.0
C      1  0.6013100000000  0.5388130000000  0.4667830000000 1.0
C      1  0.6013050000000  0.5435900000000  0.5266610000000 1.0
C      1  0.6013000000000  0.4881190000000  0.5497070000000 1.0
C      1  0.6004840000000  0.5140710000000  0.5628840000000 1.0
C      1  0.6004830000000  0.4445460000000  0.5328270000000 1.0
C      1  0.6004900000000  0.4516480000000  0.4574160000000 1.0
C      1  0.6004960000000  0.5255630000000  0.4408680000000 1.0
C      1  0.6004920000000  0.5641420000000  0.5060500000000 1.0
C      1  0.4129300000000  0.4555050000000  0.4470050000000 1.0
C      1  0.4129360000000  0.5366480000000  0.4412960000000 1.0
C      1  0.4129300000000  0.5671510000000  0.5167040000000 1.0
C      1  0.4129220000000  0.5048610000000  0.5690160000000 1.0
C      1  0.4129220000000  0.4358600000000  0.5259400000000 1.0
C      1  0.5446790000000  0.6027160000000  0.4699870000000 1.0
C      1  0.5446660000000  0.5602870000000  0.5884190000000 1.0
C      1  0.5446590000000  0.4345400000000  0.5846650000000 1.0
C      1  0.5446680000000  0.3992530000000  0.4639120000000 1.0
C      1  0.5446810000000  0.5031910000000  0.3930370000000 1.0
C      1  0.5525710000000  0.4648110000000  0.4605650000000 1.0
C      1  0.5525750000000  0.5266340000000  0.4543530000000 1.0
C      1  0.5525720000000  0.5516450000000  0.5112310000000 1.0
C      1  0.5525650000000  0.5052810000000  0.5525940000000 1.0
C      1  0.5525650000000  0.4516140000000  0.5212810000000 1.0
C      1  0.5901020000000  0.5185050000000  0.4843440000000 1.0
C      1  0.5900990000000  0.5206120000000  0.5127720000000 1.0
C      1  0.5900970000000  0.4942270000000  0.5235610000000 1.0
C      1  0.5900980000000  0.4758130000000  0.5018010000000 1.0
C      1  0.5901010000000  0.4908170000000  0.4775640000000 1.0
C      1  0.4621560000000  0.4762400000000  0.4566940000000 1.0
C      1  0.4621590000000  0.5338430000000  0.4640160000000 1.0
C      1  0.4621550000000  0.5446790000000  0.5210630000000 1.0
C      1  0.4621490000000  0.4937730000000  0.5489960000000 1.0
C      1  0.4621500000000  0.4514760000000  0.5092140000000 1.0
C      1  0.4822520000000  0.4903390000000  0.3906800000000 1.0
C      1  0.4822520000000  0.6009830000000  0.4570280000000 1.0
C      1  0.4822390000000  0.5720740000000  0.5827590000000 1.0
C      1  0.4822310000000  0.4435620000000  0.5941180000000 1.0
C      1  0.4822390000000  0.3930470000000  0.4754070000000 1.0
C      1  0.4647010000000  0.4144500000000  0.4678820000000 1.0
C      1  0.4647120000000  0.5041080000000  0.4087080000000 1.0
C      1  0.4647110000000  0.5880920000000  0.4756920000000 1.0
C      1  0.4646990000000  0.5503390000000  0.5762650000000 1.0
C      1  0.4646940000000  0.4430220000000  0.5714380000000 1.0
C      1  0.5487910000000  0.6045870000000  0.5689470000000 1.0
C      1  0.5487780000000  0.4667490000000  0.6207800000000 1.0
C      1  0.5487830000000  0.3748590000000  0.5057050000000 1.0
C      1  0.5487990000000  0.4559060000000  0.3827520000000 1.0
C      1  0.5488040000000  0.5978860000000  0.4218380000000 1.0
C      1  0.5014140000000  0.5285370000000  0.5619690000000 1.0
C      1  0.5014110000000  0.4498820000000  0.5462900000000 1.0
C      1  0.5014180000000  0.4404890000000  0.4666400000000 1.0
C      1  0.5014250000000  0.5133370000000  0.4330930000000 1.0
C      1  0.5014230000000  0.5677540000000  0.4920090000000 1.0
C      1  0.5367940000000  0.5497580000000  0.4554250000000 1.0
C      1  0.5367880000000  0.5577710000000  0.5335520000000 1.0
C      1  0.5367810000000  0.4859440000000  0.5653160000000 1.0
C      1  0.5367830000000  0.4335390000000  0.5068200000000 1.0
C      1  0.5367910000000  0.4729780000000  0.4389030000000 1.0
C      1  0.4945330000000  0.4438220000000  0.4065350000000 1.0
C      1  0.4945400000000  0.5715300000000  0.4176880000000 1.0
C      1  0.4945300000000  0.6003870000000  0.5425930000000 1.0
C      1  0.4945180000000  0.4905130000000  0.6086350000000 1.0
C      1  0.4945200000000  0.3937500000000  0.5245470000000 1.0
C      1  0.5170590000000  0.4901640000000  0.4344810000000 1.0
C      1  0.5170600000000  0.5592740000000  0.4704000000000 1.0
C      1  0.5170530000000  0.5464680000000  0.5472280000000 1.0
C      1  0.5170470000000  0.4694440000000  0.5587900000000 1.0
C      1  0.5170510000000  0.4346460000000  0.4891090000000 1.0
C      1  0.4660210000000  0.3997440000000  0.5345450000000 1.0
C      1  0.4660340000000  0.4361630000000  0.4153220000000 1.0
C      1  0.4660410000000  0.5608050000000  0.4131170000000 1.0
C      1  0.4660330000000  0.6014190000000  0.5309770000000 1.0
C      1  0.4660200000000  0.5018780000000  0.6060240000000 1.0
C      1  0.5565040000000  0.4233830000000  0.5602840000000 1.0
C      1  0.5565140000000  0.4189930000000  0.4457680000000 1.0
C      1  0.5565240000000  0.5265480000000  0.4062060000000 1.0
C      1  0.5565200000000  0.5974100000000  0.4962710000000 1.0
C      1  0.5565070000000  0.5336500000000  0.5914970000000 1.0
C      1  0.5025450000000  0.5925010000000  0.4382090000000 1.0
C      1  0.5025330000000  0.5873510000000  0.5688790000000 1.0
C      1  0.5025230000000  0.4614850000000  0.6043610000000 1.0
C      1  0.5025280000000  0.3888450000000  0.4956200000000 1.0
C      1  0.5025420000000  0.4698170000000  0.3929320000000 1.0
C      1  0.5715030000000  0.5205830000000  0.5694510000000 1.0
C      1  0.5715010000000  0.4403120000000  0.5410450000000 1.0
C      1  0.5715090000000  0.4425220000000  0.4559260000000 1.0
C      1  0.5715160000000  0.5241590000000  0.4317240000000 1.0
C      1  0.5715120000000  0.5724030000000  0.5018870000000 1.0
C      1  0.6196560000000  0.4499700000000  0.4812670000000 1.0
C      1  0.6196630000000  0.5023610000000  0.4466440000000 1.0
C      1  0.6196620000000  0.5514800000000  0.4857720000000 1.0
C      1  0.6196550000000  0.5294450000000  0.5445780000000 1.0
C      1  0.6196520000000  0.4667090000000  0.5417940000000 1.0
C      1  0.4470570000000  0.5226600000000  0.5103430000000 1.0
C      1  0.4470540000000  0.4971640000000  0.5247410000000 1.0
C      1  0.4470550000000  0.4755910000000  0.5049410000000 1.0
C      1  0.4470580000000  0.4877550000000  0.4783070000000 1.0
C      1  0.4470590000000  0.5168450000000  0.4816450000000 1.0
C      1  0.4253590000000  0.4290330000000  0.4458750000000 1.0
C      1  0.4253680000000  0.5295420000000  0.4157720000000 1.0
C      1  0.4253630000000  0.5892310000000  0.5020600000000 1.0
C      1  0.4253520000000  0.5256120000000  0.5854910000000 1.0
C      1  0.4253490000000  0.4266040000000  0.5507680000000 1.0
C      1  0.3879230000000  0.5249710000000  0.5009620000000 1.0
C      1  0.3879200000000  0.5067970000000  0.5240330000000 1.0
C      1  0.3879190000000  0.4792380000000  0.5138770000000 1.0
C      1  0.3879220000000  0.4803810000000  0.4845300000000 1.0
C      1  0.3879240000000  0.5086450000000  0.4765470000000 1.0
C      1  0.4288090000000  0.5967790000000  0.5694300000000 1.0
C      1  0.4287980000000  0.4638710000000  0.6134890000000 1.0
C      1  0.4288030000000  0.3808980000000  0.5007010000000 1.0
C      1  0.4288180000000  0.4625250000000  0.3869350000000 1.0
C      1  0.4288220000000  0.5959470000000  0.4294120000000 1.0
C      1  0.5431470000000  0.3998340000000  0.5479150000000 1.0
C      1  0.5431600000000  0.4234790000000  0.4195490000000 1.0
C      1  0.5431690000000  0.5528690000000  0.4023680000000 1.0
C      1  0.5431620000000  0.6091930000000  0.5201170000000 1.0
C      1  0.5431480000000  0.5146120000000  0.6100700000000 1.0
C      1  0.5042730000000  0.4244430000000  0.5566250000000 1.0
C      1  0.5042830000000  0.4227980000000  0.4456390000000 1.0
C      1  0.5042920000000  0.5278430000000  0.4097790000000 1.0
C      1  0.5042880000000  0.5944100000000  0.4986010000000 1.0
C      1  0.5042760000000  0.5305050000000  0.5893570000000 1.0
C      1  0.4084530000000  0.5070040000000  0.4059250000000 1.0
C      1  0.4084520000000  0.5916310000000  0.4775800000000 1.0
C      1  0.4084400000000  0.5496340000000  0.5802070000000 1.0
C      1  0.4084340000000  0.4390520000000  0.5719800000000 1.0
C      1  0.4084420000000  0.4127050000000  0.4642670000000 1.0
C      1  0.4459920000000  0.5813810000000  0.4150000000000 1.0
C      1  0.4459810000000  0.6059860000000  0.5511250000000 1.0
C      1  0.4459680000000  0.4841260000000  0.6165910000000 1.0
C      1  0.4459710000000  0.3842080000000  0.5209250000000 1.0
C      1  0.4459860000000  0.4443150000000  0.3963350000000 1.0
C      1  0.5311080000000  0.3862550000000  0.4864810000000 1.0
C      1  0.5311220000000  0.4777090000000  0.3876480000000 1.0
C      1  0.5311240000000  0.5999660000000  0.4440860000000 1.0
C      1  0.5311110000000  0.5840710000000  0.5777990000000 1.0
C      1  0.5311010000000  0.4519900000000  0.6040010000000 1.0
C      1  0.3876350000000  0.5714520000000  0.4799130000000 1.0
C      1  0.3876260000000  0.5411790000000  0.5617340000000 1.0
C      1  0.3876210000000  0.4540070000000  0.5582270000000 1.0
C      1  0.3876270000000  0.4304050000000  0.4742380000000 1.0
C      1  0.3876360000000  0.5029900000000  0.4258370000000 1.0
C      1  0.4540490000000  0.5322360000000  0.4101130000000 1.0
C      1  0.4540440000000  0.5954470000000  0.5028760000000 1.0
C      1  0.4540320000000  0.5267570000000  0.5916590000000 1.0
C      1  0.4540290000000  0.4210940000000  0.5537660000000 1.0
C      1  0.4540400000000  0.4244800000000  0.4415650000000 1.0
C      1  0.4578520000000  0.4306820000000  0.4906940000000 1.0
C      1  0.4578610000000  0.4874280000000  0.4311940000000 1.0
C      1  0.4578620000000  0.5615510000000  0.4667760000000 1.0
C      1  0.4578540000000  0.5506160000000  0.5482670000000 1.0
C      1  0.4578480000000  0.4697350000000  0.5630490000000 1.0
C      1  0.4162310000000  0.6010580000000  0.4524450000000 1.0
C      1  0.4162180000000  0.5764520000000  0.5814060000000 1.0
C      1  0.4162090000000  0.4461990000000  0.5978560000000 1.0
C      1  0.4162170000000  0.3903040000000  0.4790610000000 1.0
C      1  0.4162300000000  0.4860120000000  0.3891930000000 1.0
C      1  0.5482650000000  0.5043430000000  0.5245280000000 1.0
C      1  0.5482640000000  0.4780170000000  0.5117160000000 1.0
C      1  0.5482670000000  0.4820660000000  0.4827190000000 1.0
C      1  0.5482690000000  0.5108960000000  0.4776100000000 1.0
C      1  0.5482680000000  0.5246640000000  0.5034490000000 1.0
C      1  0.5558240000000  0.4339490000000  0.3966990000000 1.0
C      1  0.5558320000000  0.5778370000000  0.4052670000000 1.0
C      1  0.5558210000000  0.6141520000000  0.5447600000000 1.0
C      1  0.5558070000000  0.4927090000000  0.6224030000000 1.0
C      1  0.5558090000000  0.3813370000000  0.5308970000000 1.0
END
