TITL C-3623287-7182-195 0.0073377169296717 125000 -671.275362170177 0 0 112 (T23) n - 1
REM
REM in /home/nfs/bkarasulu/CARBON/AIRSS/Generating-Clusters/LCBOP/Higher-Symm/SD-CG/FIRE-CG
REM
REM
REM
REM
REM
REM ./C.cell (b20cbc046b6831c77cfcea5457e17084)
REM AIRSS Version 0.9.1 bugfix July 2018 build 013d7b7c2542+ Fri, 06 Jul 2018 19:26:36 +0100
REM compiler GCC version 9.2.1 20190827 (Red Hat 9.2.1-1)
REM options -cpp -mtune=generic -march=x86-64 -g -O0 -fpre-include=/usr/include/finclude/math-vector-fortran.h
REM seed -1848216006 2103024029 -478933262 -997855759 1489239046 843852132 1486686142 -6798615 345452228 -63945758 819837676 344600418 1106543296 1150983872 -643487785 472142447 68271491 -1626484997 -1390568041 1012320567 2068822747 506461289 -270071395 -1149650339 -28487568 -268792012 -1498577607 -930017171 674082798 538888516 -1766468857 -129098781 -406479322
REM
CELL 1.54180   50.00000   50.00000   50.00000   90.00000   90.00000   90.00000
LATT -1
SFAC C  
C      1  0.4520150000000  0.4506850000000  0.5832050000000 1.0
C      1  0.4507620000000  0.5832600000000  0.4518840000000 1.0
C      1  0.5833370000000  0.4519380000000  0.4506300000000 1.0
C      1  0.5478760000000  0.5490530000000  0.5832060000000 1.0
C      1  0.4520150000000  0.5490530000000  0.4164230000000 1.0
C      1  0.5478760000000  0.4506850000000  0.4164230000000 1.0
C      1  0.5491300000000  0.4164780000000  0.4518840000000 1.0
C      1  0.4507620000000  0.4164780000000  0.5477450000000 1.0
C      1  0.5491300000000  0.5832600000000  0.5477450000000 1.0
C      1  0.4165550000000  0.5477990000000  0.4506300000000 1.0
C      1  0.5833370000000  0.5477990000000  0.5489980000000 1.0
C      1  0.4165550000000  0.4519380000000  0.5489980000000 1.0
C      1  0.5497550000000  0.5864110000000  0.5199570000000 1.0
C      1  0.5864880000000  0.5200120000000  0.5496240000000 1.0
C      1  0.5200890000000  0.5496780000000  0.5863570000000 1.0
C      1  0.4501360000000  0.4133270000000  0.5199570000000 1.0
C      1  0.5497550000000  0.4133270000000  0.4796710000000 1.0
C      1  0.4501360000000  0.5864110000000  0.4796710000000 1.0
C      1  0.4134040000000  0.4797260000000  0.5496240000000 1.0
C      1  0.5864880000000  0.4797260000000  0.4500050000000 1.0
C      1  0.4134040000000  0.5200120000000  0.4500050000000 1.0
C      1  0.4798030000000  0.4500590000000  0.5863570000000 1.0
C      1  0.5200890000000  0.4500590000000  0.4132720000000 1.0
C      1  0.4798030000000  0.5496780000000  0.4132720000000 1.0
C      1  0.6172460000000  0.5830690000000  0.5496420000000 1.0
C      1  0.5831460000000  0.5496960000000  0.6171150000000 1.0
C      1  0.5497740000000  0.6171690000000  0.5830150000000 1.0
C      1  0.3826450000000  0.4166680000000  0.5496420000000 1.0
C      1  0.6172460000000  0.4166680000000  0.4499870000000 1.0
C      1  0.3826450000000  0.5830690000000  0.4499870000000 1.0
C      1  0.4167450000000  0.4500410000000  0.6171150000000 1.0
C      1  0.5831460000000  0.4500410000000  0.3825140000000 1.0
C      1  0.4167450000000  0.5496970000000  0.3825140000000 1.0
C      1  0.4501180000000  0.3825680000000  0.5830150000000 1.0
C      1  0.5497740000000  0.3825680000000  0.4166140000000 1.0
C      1  0.4501180000000  0.6171690000000  0.4166140000000 1.0
C      1  0.5049090000000  0.4554570000000  0.5929180000000 1.0
C      1  0.4555340000000  0.5929720000000  0.5047780000000 1.0
C      1  0.5930490000000  0.5048320000000  0.4554030000000 1.0
C      1  0.4949820000000  0.5442800000000  0.5929180000000 1.0
C      1  0.5049090000000  0.5442800000000  0.4067110000000 1.0
C      1  0.4949830000000  0.4554570000000  0.4067110000000 1.0
C      1  0.5443570000000  0.4067660000000  0.5047780000000 1.0
C      1  0.4555340000000  0.4067660000000  0.4948510000000 1.0
C      1  0.5443570000000  0.5929720000000  0.4948510000000 1.0
C      1  0.4068430000000  0.4949050000000  0.4554030000000 1.0
C      1  0.5930490000000  0.4949050000000  0.5442260000000 1.0
C      1  0.4068430000000  0.5048320000000  0.5442260000000 1.0
C      1  0.3716120000000  0.3980340000000  0.5641400000000 1.0
C      1  0.3981110000000  0.5641940000000  0.3714810000000 1.0
C      1  0.5642710000000  0.3715350000000  0.3979800000000 1.0
C      1  0.6282800000000  0.6017030000000  0.5641400000000 1.0
C      1  0.3716120000000  0.6017030000000  0.4354890000000 1.0
C      1  0.6282800000000  0.3980340000000  0.4354890000000 1.0
C      1  0.6017800000000  0.4355430000000  0.3714810000000 1.0
C      1  0.3981110000000  0.4355430000000  0.6281480000000 1.0
C      1  0.6017800000000  0.5641940000000  0.6281480000000 1.0
C      1  0.4356200000000  0.6282020000000  0.3979800000000 1.0
C      1  0.5642710000000  0.6282020000000  0.6016490000000 1.0
C      1  0.4356200000000  0.3715350000000  0.6016490000000 1.0
C      1  0.5584160000000  0.4909650000000  0.3917150000000 1.0
C      1  0.4910420000000  0.3917690000000  0.5582840000000 1.0
C      1  0.3918460000000  0.5583390000000  0.4909100000000 1.0
C      1  0.4414760000000  0.5087730000000  0.3917150000000 1.0
C      1  0.5584160000000  0.5087730000000  0.6079140000000 1.0
C      1  0.4414760000000  0.4909650000000  0.6079140000000 1.0
C      1  0.5088500000000  0.6079680000000  0.5582840000000 1.0
C      1  0.4910420000000  0.6079680000000  0.4413440000000 1.0
C      1  0.5088500000000  0.3917690000000  0.4413440000000 1.0
C      1  0.6080460000000  0.4413990000000  0.4909100000000 1.0
C      1  0.3918460000000  0.4413990000000  0.5087180000000 1.0
C      1  0.6080460000000  0.5583390000000  0.5087180000000 1.0
C      1  0.4540720000000  0.4854880000000  0.3933370000000 1.0
C      1  0.4855650000000  0.3933920000000  0.4539410000000 1.0
C      1  0.3934690000000  0.4539950000000  0.4854330000000 1.0
C      1  0.5458190000000  0.5142500000000  0.3933370000000 1.0
C      1  0.4540720000000  0.5142500000000  0.6062910000000 1.0
C      1  0.5458190000000  0.4854870000000  0.6062910000000 1.0
C      1  0.5143270000000  0.6063460000000  0.4539410000000 1.0
C      1  0.4855650000000  0.6063460000000  0.5456880000000 1.0
C      1  0.5143270000000  0.3933920000000  0.5456880000000 1.0
C      1  0.6064230000000  0.5457420000000  0.4854330000000 1.0
C      1  0.3934690000000  0.5457420000000  0.5141960000000 1.0
C      1  0.6064230000000  0.4539950000000  0.5141960000000 1.0
C      1  0.4724970000000  0.5324220000000  0.6004720000000 1.0
C      1  0.5324990000000  0.6005260000000  0.4723660000000 1.0
C      1  0.6006030000000  0.4724200000000  0.5323670000000 1.0
C      1  0.5273940000000  0.4673160000000  0.6004720000000 1.0
C      1  0.4724970000000  0.4673160000000  0.3991570000000 1.0
C      1  0.5273940000000  0.5324220000000  0.3991570000000 1.0
C      1  0.4673930000000  0.3992110000000  0.4723660000000 1.0
C      1  0.5324990000000  0.3992110000000  0.5272630000000 1.0
C      1  0.4673930000000  0.6005260000000  0.5272630000000 1.0
C      1  0.3992880000000  0.5273170000000  0.5323670000000 1.0
C      1  0.6006030000000  0.5273170000000  0.4672620000000 1.0
C      1  0.3992880000000  0.4724200000000  0.4672610000000 1.0
C      1  0.6031430000000  0.4363240000000  0.4638460000000 1.0
C      1  0.4364010000000  0.4639010000000  0.6030120000000 1.0
C      1  0.4639780000000  0.6030660000000  0.4362700000000 1.0
C      1  0.3967480000000  0.5634130000000  0.4638460000000 1.0
C      1  0.6031430000000  0.5634130000000  0.5357820000000 1.0
C      1  0.3967480000000  0.4363240000000  0.5357820000000 1.0
C      1  0.5634900000000  0.5358370000000  0.6030120000000 1.0
C      1  0.4364010000000  0.5358370000000  0.3966170000000 1.0
C      1  0.5634900000000  0.4639010000000  0.3966170000000 1.0
C      1  0.5359140000000  0.3966710000000  0.4362700000000 1.0
C      1  0.4639780000000  0.3966710000000  0.5633590000000 1.0
C      1  0.5359140000000  0.6030660000000  0.5633590000000 1.0
C      1  0.4396490000000  0.4395720000000  0.5601110000000 1.0
C      1  0.4396490000000  0.5601650000000  0.4395180000000 1.0
C      1  0.5602420000000  0.4395720000000  0.4395180000000 1.0
C      1  0.5602420000000  0.5601650000000  0.5601110000000 1.0
END
