TITL C-3623283-6828-1263 2.69860463731282e-06 125000 -1139.70245995429 0 0 179 (C1) n - 1
REM
REM in /home/nfs/bkarasulu/CARBON/AIRSS/Generating-Clusters/LCBOP/Higher-Symm/SD-CG/FIRE-CG
REM
REM
REM
REM
REM
REM ./C.cell (b20cbc046b6831c77cfcea5457e17084)
REM AIRSS Version 0.9.1 bugfix July 2018 build 013d7b7c2542+ Fri, 06 Jul 2018 19:26:36 +0100
REM compiler GCC version 9.2.1 20190827 (Red Hat 9.2.1-1)
REM options -cpp -mtune=generic -march=x86-64 -g -O0 -fpre-include=/usr/include/finclude/math-vector-fortran.h
REM seed 1022197635 -295660185 879616422 934718369 -1541540984 -1413688356 463665499 -1549908767 -1288420710 -1608567622 -1572459970 253885678 -181829124 -1459951011 -269528801 -658875918 1464864875 -2082788291 572260029 -1887530886 818537280 -1698951266 848121107 724122982 515711220 1894122742 -1954027694 -825180115 -458197335 -509263317 -1048764190 2002963011 635219572
REM
CELL 1.54180   50.00000   50.00000   50.00000   90.00000   90.00000   90.00000
LATT -1
SFAC C  
C      1  0.4842910000000  0.5503870000000  0.6038180000000 1.0
C      1  0.4847290000000  0.4501300000000  0.6041930000000 1.0
C      1  0.4849870000000  0.3890430000000  0.5254390000000 1.0
C      1  0.4847670000000  0.4101980000000  0.4278250000000 1.0
C      1  0.4851530000000  0.4998980000000  0.3852970000000 1.0
C      1  0.4851150000000  0.5903210000000  0.4275630000000 1.0
C      1  0.4855690000000  0.6107110000000  0.5247450000000 1.0
C      1  0.5725970000000  0.4073710000000  0.4315460000000 1.0
C      1  0.5725740000000  0.4962410000000  0.3893870000000 1.0
C      1  0.5724840000000  0.5878360000000  0.4233300000000 1.0
C      1  0.5724060000000  0.6114070000000  0.5194320000000 1.0
C      1  0.5719050000000  0.5521260000000  0.5981160000000 1.0
C      1  0.5724880000000  0.4551750000000  0.6047590000000 1.0
C      1  0.5724100000000  0.3941120000000  0.5278940000000 1.0
C      1  0.4730460000000  0.4843940000000  0.4433610000000 1.0
C      1  0.4729900000000  0.5351430000000  0.4520350000000 1.0
C      1  0.4764980000000  0.5558250000000  0.4979670000000 1.0
C      1  0.4715540000000  0.5369870000000  0.5466460000000 1.0
C      1  0.4713820000000  0.4884850000000  0.5585360000000 1.0
C      1  0.4728210000000  0.4491440000000  0.5270730000000 1.0
C      1  0.4722530000000  0.4465230000000  0.4763140000000 1.0
C      1  0.5259230000000  0.5462760000000  0.5433320000000 1.0
C      1  0.5257360000000  0.4834440000000  0.5590960000000 1.0
C      1  0.5262180000000  0.4584260000000  0.5440670000000 1.0
C      1  0.5262830000000  0.4459580000000  0.4698790000000 1.0
C      1  0.5264500000000  0.4662110000000  0.4488340000000 1.0
C      1  0.5281090000000  0.5409810000000  0.4535540000000 1.0
C      1  0.5295520000000  0.5568820000000  0.4780800000000 1.0
C      1  0.5182800000000  0.3996940000000  0.5599670000000 1.0
C      1  0.5175200000000  0.3894710000000  0.4577920000000 1.0
C      1  0.5184550000000  0.4638760000000  0.3879880000000 1.0
C      1  0.5178190000000  0.5657040000000  0.4008700000000 1.0
C      1  0.5185610000000  0.6172670000000  0.4890390000000 1.0
C      1  0.5178650000000  0.5813880000000  0.5852060000000 1.0
C      1  0.5174310000000  0.4841690000000  0.6172570000000 1.0
C      1  0.4185220000000  0.4990130000000  0.6018820000000 1.0
C      1  0.4198890000000  0.4196190000000  0.5627150000000 1.0
C      1  0.4190680000000  0.4022290000000  0.4765090000000 1.0
C      1  0.4201270000000  0.4562420000000  0.4063920000000 1.0
C      1  0.4193150000000  0.5450110000000  0.4094640000000 1.0
C      1  0.4215320000000  0.5954690000000  0.4786520000000 1.0
C      1  0.4192020000000  0.5798980000000  0.5622370000000 1.0
C      1  0.4015160000000  0.4902740000000  0.4673870000000 1.0
C      1  0.4021320000000  0.5178950000000  0.4725130000000 1.0
C      1  0.4036460000000  0.5311880000000  0.4973360000000 1.0
C      1  0.4015240000000  0.5216250000000  0.5238260000000 1.0
C      1  0.4011550000000  0.4947990000000  0.5323620000000 1.0
C      1  0.4012680000000  0.4714420000000  0.5161380000000 1.0
C      1  0.4014970000000  0.4705410000000  0.4877680000000 1.0
C      1  0.4375180000000  0.6145850000000  0.4675420000000 1.0
C      1  0.4372420000000  0.5992120000000  0.5691900000000 1.0
C      1  0.4362980000000  0.5062800000000  0.6213430000000 1.0
C      1  0.4374330000000  0.4086220000000  0.5805090000000 1.0
C      1  0.4366330000000  0.3814380000000  0.4790170000000 1.0
C      1  0.4377310000000  0.4416400000000  0.3914930000000 1.0
C      1  0.4367690000000  0.5468350000000  0.3884960000000 1.0
C      1  0.4836890000000  0.3846520000000  0.4950860000000 1.0
C      1  0.4843100000000  0.4311620000000  0.4055110000000 1.0
C      1  0.4838820000000  0.5304590000000  0.3878190000000 1.0
C      1  0.4844860000000  0.6066640000000  0.4533080000000 1.0
C      1  0.4843760000000  0.6018960000000  0.5539160000000 1.0
C      1  0.4832620000000  0.5214800000000  0.6144720000000 1.0
C      1  0.4841780000000  0.4239970000000  0.5881680000000 1.0
C      1  0.5710790000000  0.4874030000000  0.4466150000000 1.0
C      1  0.5776200000000  0.5347460000000  0.4537650000000 1.0
C      1  0.5763320000000  0.5565870000000  0.4965880000000 1.0
C      1  0.5745240000000  0.5363720000000  0.5406610000000 1.0
C      1  0.5744650000000  0.4900180000000  0.5534530000000 1.0
C      1  0.5710010000000  0.4520190000000  0.5238600000000 1.0
C      1  0.5755410000000  0.4489100000000  0.4754980000000 1.0
C      1  0.5549090000000  0.5693790000000  0.4837360000000 1.0
C      1  0.5532030000000  0.5535910000000  0.5456310000000 1.0
C      1  0.5511990000000  0.4938590000000  0.5688870000000 1.0
C      1  0.5515610000000  0.4453010000000  0.5427590000000 1.0
C      1  0.5517720000000  0.4336760000000  0.4768690000000 1.0
C      1  0.5516340000000  0.4703940000000  0.4360060000000 1.0
C      1  0.5533260000000  0.5369800000000  0.4393690000000 1.0
C      1  0.5292520000000  0.6011060000000  0.4398420000000 1.0
C      1  0.5294000000000  0.6081020000000  0.5409640000000 1.0
C      1  0.5282640000000  0.5349360000000  0.6092200000000 1.0
C      1  0.5290890000000  0.4356820000000  0.5969350000000 1.0
C      1  0.5287660000000  0.3864130000000  0.5090740000000 1.0
C      1  0.5291370000000  0.4197780000000  0.4148320000000 1.0
C      1  0.5289690000000  0.5164280000000  0.3864050000000 1.0
C      1  0.5566760000000  0.4259760000000  0.4173630000000 1.0
C      1  0.5560150000000  0.5187540000000  0.3939020000000 1.0
C      1  0.5569370000000  0.5978420000000  0.4447790000000 1.0
C      1  0.5568810000000  0.6014800000000  0.5409580000000 1.0
C      1  0.5551680000000  0.5297350000000  0.6027060000000 1.0
C      1  0.5565750000000  0.4369460000000  0.5901370000000 1.0
C      1  0.5557060000000  0.3935530000000  0.5050690000000 1.0
C      1  0.5008920000000  0.4504920000000  0.5328150000000 1.0
C      1  0.5000030000000  0.4421200000000  0.4800290000000 1.0
C      1  0.5011450000000  0.4789960000000  0.4438620000000 1.0
C      1  0.5011700000000  0.5327890000000  0.4480380000000 1.0
C      1  0.5046940000000  0.5584560000000  0.4924290000000 1.0
C      1  0.4995200000000  0.5409330000000  0.5443290000000 1.0
C      1  0.4991650000000  0.4932040000000  0.5614320000000 1.0
C      1  0.4654210000000  0.4485940000000  0.3923090000000 1.0
C      1  0.4646260000000  0.5513940000000  0.3933570000000 1.0
C      1  0.4653850000000  0.6139460000000  0.4736480000000 1.0
C      1  0.4648190000000  0.5924460000000  0.5730820000000 1.0
C      1  0.4641350000000  0.5000400000000  0.6185750000000 1.0
C      1  0.4651790000000  0.4076580000000  0.5737440000000 1.0
C      1  0.4644390000000  0.3854300000000  0.4734320000000 1.0
C      1  0.5620650000000  0.4282980000000  0.5634780000000 1.0
C      1  0.5601420000000  0.4061610000000  0.4799700000000 1.0
C      1  0.5621750000000  0.4539160000000  0.4148530000000 1.0
C      1  0.5607180000000  0.5404880000000  0.4116660000000 1.0
C      1  0.5630700000000  0.5945890000000  0.4724890000000 1.0
C      1  0.5626310000000  0.5784200000000  0.5566410000000 1.0
C      1  0.5596540000000  0.5026750000000  0.5950790000000 1.0
C      1  0.4520810000000  0.5198340000000  0.4700960000000 1.0
C      1  0.4603600000000  0.5291730000000  0.4986770000000 1.0
C      1  0.4516070000000  0.5233400000000  0.5272570000000 1.0
C      1  0.4516540000000  0.4935110000000  0.5352950000000 1.0
C      1  0.4536630000000  0.4703220000000  0.5165730000000 1.0
C      1  0.4522970000000  0.4681880000000  0.4865410000000 1.0
C      1  0.4538520000000  0.4902640000000  0.4659880000000 1.0
C      1  0.4567680000000  0.4262510000000  0.5331770000000 1.0
C      1  0.4559920000000  0.4281940000000  0.4610910000000 1.0
C      1  0.4569480000000  0.4836120000000  0.4197170000000 1.0
C      1  0.4565510000000  0.5541370000000  0.4378010000000 1.0
C      1  0.4597480000000  0.5783250000000  0.5016950000000 1.0
C      1  0.4548770000000  0.5485790000000  0.5669810000000 1.0
C      1  0.4552290000000  0.4781050000000  0.5799340000000 1.0
C      1  0.5122820000000  0.5984260000000  0.5627660000000 1.0
C      1  0.5112520000000  0.5122400000000  0.6162040000000 1.0
C      1  0.5121740000000  0.4167870000000  0.5822920000000 1.0
C      1  0.5115770000000  0.3845400000000  0.4855000000000 1.0
C      1  0.5123060000000  0.4383190000000  0.3996750000000 1.0
C      1  0.5117860000000  0.5398060000000  0.3899210000000 1.0
C      1  0.5124010000000  0.6113340000000  0.4615470000000 1.0
C      1  0.4326910000000  0.5746830000000  0.4942920000000 1.0
C      1  0.4278450000000  0.5533890000000  0.5578860000000 1.0
C      1  0.4276560000000  0.4864890000000  0.5782730000000 1.0
C      1  0.4292200000000  0.4314600000000  0.5387500000000 1.0
C      1  0.4284640000000  0.4279900000000  0.4698100000000 1.0
C      1  0.4294250000000  0.4767630000000  0.4235290000000 1.0
C      1  0.4288750000000  0.5460470000000  0.4360140000000 1.0
C      1  0.4676130000000  0.5654160000000  0.5857940000000 1.0
C      1  0.4679100000000  0.4735600000000  0.6048340000000 1.0
C      1  0.4688320000000  0.4032780000000  0.5443820000000 1.0
C      1  0.4682140000000  0.4048190000000  0.4508010000000 1.0
C      1  0.4689720000000  0.4781810000000  0.3947240000000 1.0
C      1  0.4685900000000  0.5692320000000  0.4171580000000 1.0
C      1  0.4699000000000  0.6046930000000  0.5016120000000 1.0
C      1  0.5134000000000  0.3895500000000  0.5335490000000 1.0
C      1  0.5130710000000  0.4032280000000  0.4329640000000 1.0
C      1  0.5135770000000  0.4918900000000  0.3840240000000 1.0
C      1  0.5133480000000  0.5869670000000  0.4196540000000 1.0
C      1  0.5138000000000  0.6150790000000  0.5173090000000 1.0
C      1  0.5126980000000  0.5581560000000  0.6012260000000 1.0
C      1  0.5130620000000  0.4568800000000  0.6093890000000 1.0
C      1  0.4242220000000  0.4532410000000  0.4811500000000 1.0
C      1  0.4206820000000  0.4840360000000  0.4480510000000 1.0
C      1  0.4247720000000  0.5294120000000  0.4582890000000 1.0
C      1  0.4252750000000  0.5488190000000  0.4962440000000 1.0
C      1  0.4238760000000  0.5353600000000  0.5366630000000 1.0
C      1  0.4229690000000  0.4915290000000  0.5512070000000 1.0
C      1  0.4205100000000  0.4535980000000  0.5259010000000 1.0
C      1  0.5920220000000  0.5198760000000  0.4728870000000 1.0
C      1  0.5919280000000  0.5328760000000  0.4978470000000 1.0
C      1  0.5906840000000  0.5211160000000  0.5232880000000 1.0
C      1  0.5898800000000  0.4939830000000  0.5302380000000 1.0
C      1  0.5883930000000  0.4717670000000  0.5133770000000 1.0
C      1  0.5899680000000  0.4707950000000  0.4855400000000 1.0
C      1  0.5891040000000  0.4924890000000  0.4679260000000 1.0
C      1  0.5737850000000  0.5741790000000  0.5823550000000 1.0
C      1  0.5723340000000  0.4818410000000  0.6095150000000 1.0
C      1  0.5739070000000  0.4049510000000  0.5526990000000 1.0
C      1  0.5725400000000  0.3964710000000  0.4563840000000 1.0
C      1  0.5740090000000  0.4696370000000  0.3944740000000 1.0
C      1  0.5724360000000  0.5659420000000  0.4073110000000 1.0
C      1  0.5735360000000  0.6118870000000  0.4923410000000 1.0
C      1  0.5309670000000  0.4918270000000  0.5002390000000 1.0
C      1  0.5507480000000  0.5081140000000  0.4978350000000 1.0
C      1  0.4851470000000  0.5099740000000  0.4999070000000 1.0
C      1  0.5047900000000  0.4927950000000  0.5008750000000 1.0
END
