TITL C-3623286-7563-119 -363.533766026963 125000 -1079.54574774225 0 0 185 (C1) n - 1
REM
REM in /home/nfs/bkarasulu/CARBON/AIRSS/Generating-Clusters/LCBOP/Higher-Symm/SD-CG/FIRE-CG
REM
REM
REM
REM
REM
REM ./C.cell (b20cbc046b6831c77cfcea5457e17084)
REM AIRSS Version 0.9.1 bugfix July 2018 build 013d7b7c2542+ Fri, 06 Jul 2018 19:26:36 +0100
REM compiler GCC version 9.2.1 20190827 (Red Hat 9.2.1-1)
REM options -cpp -mtune=generic -march=x86-64 -g -O0 -fpre-include=/usr/include/finclude/math-vector-fortran.h
REM seed -1977565810 1481840468 2086837369 -1553854077 -2130502388 1681371321 725375789 -2039236653 24287791 -1777752710 -1069699703 990019838 -561199439 -1465524553 598999438 -2132777070 566921898 442094171 1584167640 1730427261 946801308 -1450837621 1786746034 -1801257257 -1114738200 -252229591 -1940260985 -295891181 -232211643 676362514 -61712298 1664313265 747883757
REM
CELL 1.54180   50.00000   50.00000   50.00000   90.00000   90.00000   90.00000
LATT -1
SFAC C  
C      1  0.4849800000000  0.4594570000000  0.5292550000000 1.0
C      1  0.5405160000000  0.4849660000000  0.4706110000000 1.0
C      1  0.5152940000000  0.5407950000000  0.5294050000000 1.0
C      1  0.4593730000000  0.5157660000000  0.4707210000000 1.0
C      1  0.4828340000000  0.4571510000000  0.5904420000000 1.0
C      1  0.5424890000000  0.4826210000000  0.4096660000000 1.0
C      1  0.5181120000000  0.5422680000000  0.5906500000000 1.0
C      1  0.4568960000000  0.5179690000000  0.4096360000000 1.0
C      1  0.5929480000000  0.4844990000000  0.4333700000000 1.0
C      1  0.5158060000000  0.5928290000000  0.5670890000000 1.0
C      1  0.4067050000000  0.5158360000000  0.4333200000000 1.0
C      1  0.4843610000000  0.4068910000000  0.5665470000000 1.0
C      1  0.5778800000000  0.5876310000000  0.4591380000000 1.0
C      1  0.4123700000000  0.5784910000000  0.5406820000000 1.0
C      1  0.4218600000000  0.4135080000000  0.4591430000000 1.0
C      1  0.5870280000000  0.4221490000000  0.5410390000000 1.0
C      1  0.4255090000000  0.5091920000000  0.4125150000000 1.0
C      1  0.4912390000000  0.4256360000000  0.5873490000000 1.0
C      1  0.5740080000000  0.4912870000000  0.4127100000000 1.0
C      1  0.5092160000000  0.5737960000000  0.5877360000000 1.0
C      1  0.6049460000000  0.4847280000000  0.5299400000000 1.0
C      1  0.5151580000000  0.6049850000000  0.4705510000000 1.0
C      1  0.3950710000000  0.5156430000000  0.5297020000000 1.0
C      1  0.4843940000000  0.3951950000000  0.4700120000000 1.0
C      1  0.5083370000000  0.4663140000000  0.6096240000000 1.0
C      1  0.5331460000000  0.5083860000000  0.3903890000000 1.0
C      1  0.4915970000000  0.5325760000000  0.6096870000000 1.0
C      1  0.4664250000000  0.4922440000000  0.3905550000000 1.0
C      1  0.4001930000000  0.4728290000000  0.5536290000000 1.0
C      1  0.5275920000000  0.3997050000000  0.4468820000000 1.0
C      1  0.6005070000000  0.5278320000000  0.5531540000000 1.0
C      1  0.4722090000000  0.6009130000000  0.4463650000000 1.0
C      1  0.4510320000000  0.4843160000000  0.5036560000000 1.0
C      1  0.5162470000000  0.4508390000000  0.4965680000000 1.0
C      1  0.5495120000000  0.5164220000000  0.5032300000000 1.0
C      1  0.4838770000000  0.5501000000000  0.4964850000000 1.0
C      1  0.4758870000000  0.5316560000000  0.4547680000000 1.0
C      1  0.4696160000000  0.4761660000000  0.5453840000000 1.0
C      1  0.5237800000000  0.4690110000000  0.4549110000000 1.0
C      1  0.5311960000000  0.5238530000000  0.5449350000000 1.0
C      1  0.3810800000000  0.4709080000000  0.5712890000000 1.0
C      1  0.5295540000000  0.3807670000000  0.4290410000000 1.0
C      1  0.6195120000000  0.5297350000000  0.5709310000000 1.0
C      1  0.4705520000000  0.6198900000000  0.4285360000000 1.0
C      1  0.5151180000000  0.5177480000000  0.5688490000000 1.0
C      1  0.4810850000000  0.5155850000000  0.4310620000000 1.0
C      1  0.4860820000000  0.4815310000000  0.5687670000000 1.0
C      1  0.5178430000000  0.4856090000000  0.4312630000000 1.0
C      1  0.4220650000000  0.5349420000000  0.4475760000000 1.0
C      1  0.4653610000000  0.4224150000000  0.5523150000000 1.0
C      1  0.5776370000000  0.4653860000000  0.4476890000000 1.0
C      1  0.5349590000000  0.5776870000000  0.5526330000000 1.0
C      1  0.4909850000000  0.3855010000000  0.5476090000000 1.0
C      1  0.6143400000000  0.4912950000000  0.4522710000000 1.0
C      1  0.5088840000000  0.6142680000000  0.5482710000000 1.0
C      1  0.3853320000000  0.5090240000000  0.4521740000000 1.0
C      1  0.4853970000000  0.4822800000000  0.4311410000000 1.0
C      1  0.5173540000000  0.4855050000000  0.5688260000000 1.0
C      1  0.5154990000000  0.5180390000000  0.4315720000000 1.0
C      1  0.4806240000000  0.5174250000000  0.5685320000000 1.0
C      1  0.4503180000000  0.3774440000000  0.5217920000000 1.0
C      1  0.6227360000000  0.4507400000000  0.4781730000000 1.0
C      1  0.5493240000000  0.6229140000000  0.5222340000000 1.0
C      1  0.3768420000000  0.5495930000000  0.4779820000000 1.0
C      1  0.3987160000000  0.5751550000000  0.5151440000000 1.0
C      1  0.4250020000000  0.3997150000000  0.4846330000000 1.0
C      1  0.6007220000000  0.4253760000000  0.5154960000000 1.0
C      1  0.5747160000000  0.6012110000000  0.4847610000000 1.0
C      1  0.5727610000000  0.5591670000000  0.4184350000000 1.0
C      1  0.4411570000000  0.5735910000000  0.5811970000000 1.0
C      1  0.4270740000000  0.4420350000000  0.4185210000000 1.0
C      1  0.5585300000000  0.4273070000000  0.5816870000000 1.0
C      1  0.5747690000000  0.3742530000000  0.4732860000000 1.0
C      1  0.6260330000000  0.5750830000000  0.5269600000000 1.0
C      1  0.4246990000000  0.6262210000000  0.4722130000000 1.0
C      1  0.3742130000000  0.4260920000000  0.5270640000000 1.0
C      1  0.4302730000000  0.3959850000000  0.5139410000000 1.0
C      1  0.6043440000000  0.4306190000000  0.4861630000000 1.0
C      1  0.5695650000000  0.6046760000000  0.5141450000000 1.0
C      1  0.3951600000000  0.5698500000000  0.4858280000000 1.0
C      1  0.4054010000000  0.4383160000000  0.4591370000000 1.0
C      1  0.5623350000000  0.4055140000000  0.5411680000000 1.0
C      1  0.5948020000000  0.5631080000000  0.4588850000000 1.0
C      1  0.4367980000000  0.5955570000000  0.5406770000000 1.0
C      1  0.5815070000000  0.4413390000000  0.5731570000000 1.0
C      1  0.5585180000000  0.5819710000000  0.4270790000000 1.0
C      1  0.4183160000000  0.5592510000000  0.5728040000000 1.0
C      1  0.4410220000000  0.4189760000000  0.4269700000000 1.0
C      1  0.6209920000000  0.4793630000000  0.4784280000000 1.0
C      1  0.5207010000000  0.6210090000000  0.5220770000000 1.0
C      1  0.3787190000000  0.5209810000000  0.4782980000000 1.0
C      1  0.4789530000000  0.3789990000000  0.5214710000000 1.0
C      1  0.4237910000000  0.5343740000000  0.4941040000000 1.0
C      1  0.4661780000000  0.4241570000000  0.5056480000000 1.0
C      1  0.5759180000000  0.4664290000000  0.4943640000000 1.0
C      1  0.5341390000000  0.5761590000000  0.5059190000000 1.0
C      1  0.5693160000000  0.4007120000000  0.4767930000000 1.0
C      1  0.5995830000000  0.5696400000000  0.5233810000000 1.0
C      1  0.4301500000000  0.5998110000000  0.4760840000000 1.0
C      1  0.4007180000000  0.4312880000000  0.5235150000000 1.0
C      1  0.4759240000000  0.4333200000000  0.5292480000000 1.0
C      1  0.5666820000000  0.4759870000000  0.4707160000000 1.0
C      1  0.5244140000000  0.5669100000000  0.5294990000000 1.0
C      1  0.4330990000000  0.5244790000000  0.4706300000000 1.0
C      1  0.5452800000000  0.4106570000000  0.4937980000000 1.0
C      1  0.5897010000000  0.5456530000000  0.5061920000000 1.0
C      1  0.4542340000000  0.5901600000000  0.4932830000000 1.0
C      1  0.4108580000000  0.4552900000000  0.5065380000000 1.0
C      1  0.6165120000000  0.4891530000000  0.5053900000000 1.0
C      1  0.5108190000000  0.6164830000000  0.4951500000000 1.0
C      1  0.3833900000000  0.5112170000000  0.5052230000000 1.0
C      1  0.4887380000000  0.3835070000000  0.4945150000000 1.0
C      1  0.4986170000000  0.5304200000000  0.5099340000000 1.0
C      1  0.4703630000000  0.4991160000000  0.4899230000000 1.0
C      1  0.5014380000000  0.4703330000000  0.5099150000000 1.0
C      1  0.5298190000000  0.5017970000000  0.4898030000000 1.0
C      1  0.5439900000000  0.5604070000000  0.4862530000000 1.0
C      1  0.4396120000000  0.5445930000000  0.5135030000000 1.0
C      1  0.4563460000000  0.4402090000000  0.4862130000000 1.0
C      1  0.5601180000000  0.4564860000000  0.5139490000000 1.0
C      1  0.3931760000000  0.4501930000000  0.4820940000000 1.0
C      1  0.5505370000000  0.3930830000000  0.5182840000000 1.0
C      1  0.6072540000000  0.5512530000000  0.4817500000000 1.0
C      1  0.4485350000000  0.6078300000000  0.5176470000000 1.0
C      1  0.4615220000000  0.5638970000000  0.5102190000000 1.0
C      1  0.4373570000000  0.4621300000000  0.4897560000000 1.0
C      1  0.5383610000000  0.4372690000000  0.5105850000000 1.0
C      1  0.5633030000000  0.5385980000000  0.4894170000000 1.0
C      1  0.4170170000000  0.5207810000000  0.5477810000000 1.0
C      1  0.4795860000000  0.4172020000000  0.4519070000000 1.0
C      1  0.5830100000000  0.4798770000000  0.5481320000000 1.0
C      1  0.5201090000000  0.5831460000000  0.4522550000000 1.0
C      1  0.4369310000000  0.4816760000000  0.5916240000000 1.0
C      1  0.5183140000000  0.4368990000000  0.4084270000000 1.0
C      1  0.5635840000000  0.5183420000000  0.5916940000000 1.0
C      1  0.4811790000000  0.5634700000000  0.4082130000000 1.0
C      1  0.4687380000000  0.5210600000000  0.5960390000000 1.0
C      1  0.4792320000000  0.4690760000000  0.4038160000000 1.0
C      1  0.5311480000000  0.4794950000000  0.5959910000000 1.0
C      1  0.5205830000000  0.5314100000000  0.4041510000000 1.0
C      1  0.5283600000000  0.4380430000000  0.5453960000000 1.0
C      1  0.5626450000000  0.5288750000000  0.4547630000000 1.0
C      1  0.4711660000000  0.5636250000000  0.5446030000000 1.0
C      1  0.4380390000000  0.4721490000000  0.4547570000000 1.0
C      1  0.5820630000000  0.5438540000000  0.4408180000000 1.0
C      1  0.4562010000000  0.5829920000000  0.5586700000000 1.0
C      1  0.4182770000000  0.4574500000000  0.4410490000000 1.0
C      1  0.5431230000000  0.4183850000000  0.5592100000000 1.0
C      1  0.4670640000000  0.5355000000000  0.5501510000000 1.0
C      1  0.4662150000000  0.4677150000000  0.4494340000000 1.0
C      1  0.5324480000000  0.4664020000000  0.5506470000000 1.0
C      1  0.5343790000000  0.5328810000000  0.4495380000000 1.0
C      1  0.5112480000000  0.5603580000000  0.4080660000000 1.0
C      1  0.4397270000000  0.5117310000000  0.5921390000000 1.0
C      1  0.4883070000000  0.4400610000000  0.4078510000000 1.0
C      1  0.5601600000000  0.4884370000000  0.5920980000000 1.0
C      1  0.5826770000000  0.5274750000000  0.5316400000000 1.0
C      1  0.4723990000000  0.5831080000000  0.4678960000000 1.0
C      1  0.4180530000000  0.4732240000000  0.5321390000000 1.0
C      1  0.5272190000000  0.4175600000000  0.4683860000000 1.0
C      1  0.5179590000000  0.4450900000000  0.4686400000000 1.0
C      1  0.5551580000000  0.5181150000000  0.5312000000000 1.0
C      1  0.4818830000000  0.5556120000000  0.4684320000000 1.0
C      1  0.4456220000000  0.4824940000000  0.5317400000000 1.0
C      1  0.5800300000000  0.4708800000000  0.5758810000000 1.0
C      1  0.5288920000000  0.5802930000000  0.4243830000000 1.0
C      1  0.4199400000000  0.5295730000000  0.5756810000000 1.0
C      1  0.4706100000000  0.4202690000000  0.4241380000000 1.0
C      1  0.4719930000000  0.4427010000000  0.4630780000000 1.0
C      1  0.5575030000000  0.4722310000000  0.5370150000000 1.0
C      1  0.5281720000000  0.5577340000000  0.4632620000000 1.0
C      1  0.4422920000000  0.5290100000000  0.5366180000000 1.0
C      1  0.4403590000000  0.4304330000000  0.5605910000000 1.0
C      1  0.5697190000000  0.4403160000000  0.4395430000000 1.0
C      1  0.5600900000000  0.5698460000000  0.5606830000000 1.0
C      1  0.4297070000000  0.5600590000000  0.4392170000000 1.0
C      1  0.5449900000000  0.4481170000000  0.4145590000000 1.0
C      1  0.5525390000000  0.5450390000000  0.5855950000000 1.0
C      1  0.4541810000000  0.5523730000000  0.4140680000000 1.0
C      1  0.4483450000000  0.4550480000000  0.5856250000000 1.0
C      1  0.4213030000000  0.4157930000000  0.5339410000000 1.0
C      1  0.5845560000000  0.4214340000000  0.4662440000000 1.0
C      1  0.5788440000000  0.5848210000000  0.5339790000000 1.0
C      1  0.4148990000000  0.5789750000000  0.4658170000000 1.0
C      1  0.5000160000000  0.5004690000000  0.4998150000000 1.0
END
