TITL C-3623289-7120-463 529486.764412488 125000 -1056.77445844757 0 0 176 (C1) n - 1
REM
REM in /home/nfs/bkarasulu/CARBON/AIRSS/Generating-Clusters/LCBOP/Higher-Symm/SD-CG/FIRE-CG
REM
REM
REM
REM
REM
REM ./C.cell (b20cbc046b6831c77cfcea5457e17084)
REM AIRSS Version 0.9.1 bugfix July 2018 build 013d7b7c2542+ Fri, 06 Jul 2018 19:26:36 +0100
REM compiler GCC version 9.2.1 20190827 (Red Hat 9.2.1-1)
REM options -cpp -mtune=generic -march=x86-64 -g -O0 -fpre-include=/usr/include/finclude/math-vector-fortran.h
REM seed 766085447 964565182 -1117191594 794239668 -1466817240 -29457688 -750233895 567108953 -173437648 -803405474 1147538764 -865349966 -1613071734 2093126551 -1455174865 -779900033 -1510060921 1541953908 -948069467 -1333314324 -1374961665 145156018 100496124 -730554114 1438565929 -123648947 255002322 1391963299 -72810445 942020168 824789518 -382155867 1271717097
REM
CELL 1.54180   50.00000   50.00000   50.00000   90.00000   90.00000   90.00000
LATT -1
SFAC C  
C      1  0.5131130000000  0.5189820000000  0.5589300000000 1.0
C      1  0.4534780000000  0.5194360000000  0.4731360000000 1.0
C      1  0.5502910000000  0.5244020000000  0.4772390000000 1.0
C      1  0.5853010000000  0.5381450000000  0.5486600000000 1.0
C      1  0.4153110000000  0.5508580000000  0.5535750000000 1.0
C      1  0.4856220000000  0.5364270000000  0.4047150000000 1.0
C      1  0.4728530000000  0.5424660000000  0.4836000000000 1.0
C      1  0.5328120000000  0.5497030000000  0.4848990000000 1.0
C      1  0.5017110000000  0.5420490000000  0.5351470000000 1.0
C      1  0.4856080000000  0.5613970000000  0.3917210000000 1.0
C      1  0.5732630000000  0.5615900000000  0.5620580000000 1.0
C      1  0.4177030000000  0.5674970000000  0.5300630000000 1.0
C      1  0.5627400000000  0.5215080000000  0.5484150000000 1.0
C      1  0.4172090000000  0.5100030000000  0.5183320000000 1.0
C      1  0.5086120000000  0.5277200000000  0.4190740000000 1.0
C      1  0.4021930000000  0.5225780000000  0.4610440000000 1.0
C      1  0.5986460000000  0.5432330000000  0.4324220000000 1.0
C      1  0.5111040000000  0.5331740000000  0.6093410000000 1.0
C      1  0.4767260000000  0.5877620000000  0.4317750000000 1.0
C      1  0.5667910000000  0.5919790000000  0.5226160000000 1.0
C      1  0.4608920000000  0.5917530000000  0.5386160000000 1.0
C      1  0.5150220000000  0.3719670000000  0.4656130000000 1.0
C      1  0.5086340000000  0.3764930000000  0.5381370000000 1.0
C      1  0.4534920000000  0.3785500000000  0.4996260000000 1.0
C      1  0.4816050000000  0.4771250000000  0.5635850000000 1.0
C      1  0.4664110000000  0.4730910000000  0.4515110000000 1.0
C      1  0.5702250000000  0.4748390000000  0.4923080000000 1.0
C      1  0.5836470000000  0.5862040000000  0.4457490000000 1.0
C      1  0.5085920000000  0.5793840000000  0.5983630000000 1.0
C      1  0.4237150000000  0.5992230000000  0.4833890000000 1.0
C      1  0.5287470000000  0.3972450000000  0.5392680000000 1.0
C      1  0.4409960000000  0.3978550000000  0.5176450000000 1.0
C      1  0.5104470000000  0.3940170000000  0.4467660000000 1.0
C      1  0.4828700000000  0.5851560000000  0.4043820000000 1.0
C      1  0.5779070000000  0.5857000000000  0.5478860000000 1.0
C      1  0.4325970000000  0.5913420000000  0.5355050000000 1.0
C      1  0.5414590000000  0.4096830000000  0.5164980000000 1.0
C      1  0.4536340000000  0.4118910000000  0.5403280000000 1.0
C      1  0.4887700000000  0.4135710000000  0.4477120000000 1.0
C      1  0.5105180000000  0.6199870000000  0.4479170000000 1.0
C      1  0.5336710000000  0.6269150000000  0.5334970000000 1.0
C      1  0.4698000000000  0.6295210000000  0.5087280000000 1.0
C      1  0.4891990000000  0.3774160000000  0.5593730000000 1.0
C      1  0.4503470000000  0.3838700000000  0.4714720000000 1.0
C      1  0.5422560000000  0.3696240000000  0.4746480000000 1.0
C      1  0.4169850000000  0.5127750000000  0.4151550000000 1.0
C      1  0.6206430000000  0.5286260000000  0.4713650000000 1.0
C      1  0.4666780000000  0.5178690000000  0.6093990000000 1.0
C      1  0.5481540000000  0.5353370000000  0.5264770000000 1.0
C      1  0.4432110000000  0.5284810000000  0.5207110000000 1.0
C      1  0.5216290000000  0.5439590000000  0.4379280000000 1.0
C      1  0.4612110000000  0.5256590000000  0.4187900000000 1.0
C      1  0.5922420000000  0.5320250000000  0.5107750000000 1.0
C      1  0.4386840000000  0.5385300000000  0.5650270000000 1.0
C      1  0.5715430000000  0.4464190000000  0.5558190000000 1.0
C      1  0.4126810000000  0.4562750000000  0.5423820000000 1.0
C      1  0.5125530000000  0.4581330000000  0.4024850000000 1.0
C      1  0.5964080000000  0.5595710000000  0.4980650000000 1.0
C      1  0.4574560000000  0.5561700000000  0.5772990000000 1.0
C      1  0.4438450000000  0.5510800000000  0.4240570000000 1.0
C      1  0.4230460000000  0.5319830000000  0.4766360000000 1.0
C      1  0.5720260000000  0.5394370000000  0.4209130000000 1.0
C      1  0.5319000000000  0.5289060000000  0.5864110000000 1.0
C      1  0.4946590000000  0.5101150000000  0.6156980000000 1.0
C      1  0.4066610000000  0.5029180000000  0.4398080000000 1.0
C      1  0.6108810000000  0.5200450000000  0.4452410000000 1.0
C      1  0.3767580000000  0.5323830000000  0.4643920000000 1.0
C      1  0.6040880000000  0.5670190000000  0.4485100000000 1.0
C      1  0.4949510000000  0.5572960000000  0.6093750000000 1.0
C      1  0.4710220000000  0.3585280000000  0.5052850000000 1.0
C      1  0.4972970000000  0.3575920000000  0.4806040000000 1.0
C      1  0.5040840000000  0.3595340000000  0.5172680000000 1.0
C      1  0.4970810000000  0.5900780000000  0.5020270000000 1.0
C      1  0.4976950000000  0.5814580000000  0.4747390000000 1.0
C      1  0.5205610000000  0.5826220000000  0.5165660000000 1.0
C      1  0.5274800000000  0.6396700000000  0.4499950000000 1.0
C      1  0.5239920000000  0.6475620000000  0.5461230000000 1.0
C      1  0.4627910000000  0.6508980000000  0.4955560000000 1.0
C      1  0.4273550000000  0.4517710000000  0.5666300000000 1.0
C      1  0.4851210000000  0.4481780000000  0.4044560000000 1.0
C      1  0.5857370000000  0.4306060000000  0.5370310000000 1.0
C      1  0.4581560000000  0.5662870000000  0.4706730000000 1.0
C      1  0.5526730000000  0.5721250000000  0.4788480000000 1.0
C      1  0.4990340000000  0.5662500000000  0.5541950000000 1.0
C      1  0.5589650000000  0.4060740000000  0.4523970000000 1.0
C      1  0.5084630000000  0.4123350000000  0.5826780000000 1.0
C      1  0.4223410000000  0.4186190000000  0.4749590000000 1.0
C      1  0.5294810000000  0.4710230000000  0.5716210000000 1.0
C      1  0.4222530000000  0.4771690000000  0.4927050000000 1.0
C      1  0.5515610000000  0.4810220000000  0.4328060000000 1.0
C      1  0.4505990000000  0.4419610000000  0.5804390000000 1.0
C      1  0.4591140000000  0.4427700000000  0.4184410000000 1.0
C      1  0.5875330000000  0.4132570000000  0.5163070000000 1.0
C      1  0.4374360000000  0.5760810000000  0.4875290000000 1.0
C      1  0.5576980000000  0.5758450000000  0.4509840000000 1.0
C      1  0.5204160000000  0.5736040000000  0.5727860000000 1.0
C      1  0.4418510000000  0.4074910000000  0.4569390000000 1.0
C      1  0.5610670000000  0.3911190000000  0.4768390000000 1.0
C      1  0.4833760000000  0.4000570000000  0.5764220000000 1.0
C      1  0.4210530000000  0.4121100000000  0.5017680000000 1.0
C      1  0.5359230000000  0.4044870000000  0.4374280000000 1.0
C      1  0.5295360000000  0.4092160000000  0.5654190000000 1.0
C      1  0.4952850000000  0.5969380000000  0.4513600000000 1.0
C      1  0.5401360000000  0.6016820000000  0.5237970000000 1.0
C      1  0.4763210000000  0.6034490000000  0.5168610000000 1.0
C      1  0.5180160000000  0.4529890000000  0.4507110000000 1.0
C      1  0.5272530000000  0.4545210000000  0.5293910000000 1.0
C      1  0.4522080000000  0.4513460000000  0.5135620000000 1.0
C      1  0.3846570000000  0.4537370000000  0.5418410000000 1.0
C      1  0.5221120000000  0.4715340000000  0.3794800000000 1.0
C      1  0.5865250000000  0.4581490000000  0.5766930000000 1.0
C      1  0.5109320000000  0.4804420000000  0.5266080000000 1.0
C      1  0.4678750000000  0.4705170000000  0.4972390000000 1.0
C      1  0.5272010000000  0.4740700000000  0.4702870000000 1.0
C      1  0.4061940000000  0.4679720000000  0.4709050000000 1.0
C      1  0.5763290000000  0.4920940000000  0.4251450000000 1.0
C      1  0.5283770000000  0.4811500000000  0.5981390000000 1.0
C      1  0.5952370000000  0.4954670000000  0.4474390000000 1.0
C      1  0.5019750000000  0.4837840000000  0.6085620000000 1.0
C      1  0.4153190000000  0.4762230000000  0.4458670000000 1.0
C      1  0.4478410000000  0.4906570000000  0.4850160000000 1.0
C      1  0.5459890000000  0.4951940000000  0.4582540000000 1.0
C      1  0.5098260000000  0.4886690000000  0.5566780000000 1.0
C      1  0.5735760000000  0.5772810000000  0.4989200000000 1.0
C      1  0.4718830000000  0.5741420000000  0.5588140000000 1.0
C      1  0.4565830000000  0.5699580000000  0.4419950000000 1.0
C      1  0.5571120000000  0.4941470000000  0.5110030000000 1.0
C      1  0.4661640000000  0.4940860000000  0.5439830000000 1.0
C      1  0.4861310000000  0.4944090000000  0.4478650000000 1.0
C      1  0.4535790000000  0.4937650000000  0.6006480000000 1.0
C      1  0.4434100000000  0.5010080000000  0.4106210000000 1.0
C      1  0.6081900000000  0.5116660000000  0.4923530000000 1.0
C      1  0.5574900000000  0.5082220000000  0.3832510000000 1.0
C      1  0.5736490000000  0.4994660000000  0.6015890000000 1.0
C      1  0.3636210000000  0.4542680000000  0.4968340000000 1.0
C      1  0.5319040000000  0.4367230000000  0.5061930000000 1.0
C      1  0.4664910000000  0.4359020000000  0.5312840000000 1.0
C      1  0.4969410000000  0.4368420000000  0.4650340000000 1.0
C      1  0.5645790000000  0.5223810000000  0.5034210000000 1.0
C      1  0.4503470000000  0.5177050000000  0.5485090000000 1.0
C      1  0.4670540000000  0.5166900000000  0.4467440000000 1.0
C      1  0.4255350000000  0.4606430000000  0.5168770000000 1.0
C      1  0.5300030000000  0.4609370000000  0.4257820000000 1.0
C      1  0.5437170000000  0.4540280000000  0.5535360000000 1.0
C      1  0.4683850000000  0.5468030000000  0.6020440000000 1.0
C      1  0.4183760000000  0.5417330000000  0.4141450000000 1.0
C      1  0.6132010000000  0.5571230000000  0.4745880000000 1.0
C      1  0.5033830000000  0.4922260000000  0.4718570000000 1.0
C      1  0.5257920000000  0.4989030000000  0.5090690000000 1.0
C      1  0.4812990000000  0.4858120000000  0.5190690000000 1.0
C      1  0.5489300000000  0.5537510000000  0.4337700000000 1.0
C      1  0.5452460000000  0.5563710000000  0.5749960000000 1.0
C      1  0.4278740000000  0.5528110000000  0.5042770000000 1.0
C      1  0.3651020000000  0.4526850000000  0.5235480000000 1.0
C      1  0.5393590000000  0.4911560000000  0.3732100000000 1.0
C      1  0.5889490000000  0.4790520000000  0.5932090000000 1.0
C      1  0.5707500000000  0.5143590000000  0.4072170000000 1.0
C      1  0.5463260000000  0.5045120000000  0.5981280000000 1.0
C      1  0.3802940000000  0.4587700000000  0.4763790000000 1.0
C      1  0.5259180000000  0.5522650000000  0.5160570000000 1.0
C      1  0.4738080000000  0.5381110000000  0.5139450000000 1.0
C      1  0.5072250000000  0.5458850000000  0.4713260000000 1.0
C      1  0.4592720000000  0.4147140000000  0.5700020000000 1.0
C      1  0.4610390000000  0.4188500000000  0.4381210000000 1.0
C      1  0.5655110000000  0.4017500000000  0.5029010000000 1.0
C      1  0.5472940000000  0.4567790000000  0.4873200000000 1.0
C      1  0.4829690000000  0.4498470000000  0.5493320000000 1.0
C      1  0.4748130000000  0.4557400000000  0.4720470000000 1.0
C      1  0.5050510000000  0.5006400000000  0.4259670000000 1.0
C      1  0.5649640000000  0.4946190000000  0.5397560000000 1.0
C      1  0.3916650000000  0.5085820000000  0.5232720000000 1.0
C      1  0.4712440000000  0.4720560000000  0.5899900000000 1.0
C      1  0.4461730000000  0.4696810000000  0.4296860000000 1.0
C      1  0.5926420000000  0.4883880000000  0.4776130000000 1.0
C      1  0.5097810000000  0.5121530000000  0.4890350000000 1.0
C      1  0.5076100000000  0.4283730000000  0.4911250000000 1.0
END
