TITL C-3623285-6872-1026 -1.47180183419323e-08 125000 -32.7083909580664 0 0 6 (D6h) n - 1
REM
REM in /home/nfs/bkarasulu/CARBON/AIRSS/Generating-Clusters/LCBOP/Higher-Symm/SD-CG/FIRE-CG
REM
REM
REM
REM
REM
REM ./C.cell (b20cbc046b6831c77cfcea5457e17084)
REM AIRSS Version 0.9.1 bugfix July 2018 build 013d7b7c2542+ Fri, 06 Jul 2018 19:26:36 +0100
REM compiler GCC version 9.2.1 20190827 (Red Hat 9.2.1-1)
REM options -cpp -mtune=generic -march=x86-64 -g -O0 -fpre-include=/usr/include/finclude/math-vector-fortran.h
REM seed 931633385 -1887234350 -891779718 1669977661 925536982 1139399125 -344029117 -1211201314 -1111777057 -1610029908 71871804 -295881294 1109245292 22581828 1624370913 1577745199 144972350 652427939 -1903600784 36319061 550312979 -101326528 1022324145 994494829 1936326856 768471537 1358271922 1264776574 731882621 202905768 -269155130 505687303 -2061631820
REM
CELL 1.54180   50.00000   50.00000   50.00000   90.00000   90.00000   90.00000
LATT -1
SFAC C  
C      1  0.4971630000000  0.5272790000000  0.4970720000000 1.0
C      1  0.4971630000000  0.5111040000000  0.4749120000000 1.0
C      1  0.4971630000000  0.5161750000000  0.5221610000000 1.0
C      1  0.4971630000000  0.4838250000000  0.4778390000000 1.0
C      1  0.4971630000000  0.4888960000000  0.5250880000000 1.0
C      1  0.4971630000000  0.4727210000000  0.5029280000000 1.0
END
