TITL C-3623284-6838-239 11415.919503056 125000 -836.096225473408 0 0 135 (C1) n - 1
REM
REM in /home/nfs/bkarasulu/CARBON/AIRSS/Generating-Clusters/LCBOP/Higher-Symm/SD-CG/FIRE-CG
REM
REM
REM
REM
REM
REM ./C.cell (b20cbc046b6831c77cfcea5457e17084)
REM AIRSS Version 0.9.1 bugfix July 2018 build 013d7b7c2542+ Fri, 06 Jul 2018 19:26:36 +0100
REM compiler GCC version 9.2.1 20190827 (Red Hat 9.2.1-1)
REM options -cpp -mtune=generic -march=x86-64 -g -O0 -fpre-include=/usr/include/finclude/math-vector-fortran.h
REM seed -541338046 1139993951 898263283 1672435652 435171104 -307453662 -508367249 -1138049615 1276848657 523952291 338264074 -1598297210 -25797178 -293022621 -555962128 278223093 646955567 -1753399139 -479914784 -561029301 1678958613 -1865176530 2033432816 1261309724 53420148 1970142243 -333714444 1078424370 -1141659566 -314545335 -2082122999 1867469742 -671133879
REM
CELL 1.54180   50.00000   50.00000   50.00000   90.00000   90.00000   90.00000
LATT -1
SFAC C  
C      1  0.4854010000000  0.6530940000000  0.5645330000000 1.0
C      1  0.5111930000000  0.6107650000000  0.5528000000000 1.0
C      1  0.4731110000000  0.6051490000000  0.5766500000000 1.0
C      1  0.4709670000000  0.7301030000000  0.5541740000000 1.0
C      1  0.4817250000000  0.5372140000000  0.4185480000000 1.0
C      1  0.5321480000000  0.5620040000000  0.5527970000000 1.0
C      1  0.4697460000000  0.5548170000000  0.5681320000000 1.0
C      1  0.5355790000000  0.5378330000000  0.4084890000000 1.0
C      1  0.5398810000000  0.5428040000000  0.5757750000000 1.0
C      1  0.4632470000000  0.5196680000000  0.4057670000000 1.0
C      1  0.5500840000000  0.5174370000000  0.3951390000000 1.0
C      1  0.4522280000000  0.5414450000000  0.5856540000000 1.0
C      1  0.4752800000000  0.5018670000000  0.3871890000000 1.0
C      1  0.5217620000000  0.5306540000000  0.5932550000000 1.0
C      1  0.4654040000000  0.5238350000000  0.6036250000000 1.0
C      1  0.5345470000000  0.4968740000000  0.3833720000000 1.0
C      1  0.5868230000000  0.5573640000000  0.5038070000000 1.0
C      1  0.4173510000000  0.5385110000000  0.4961380000000 1.0
C      1  0.5733760000000  0.5453350000000  0.5255880000000 1.0
C      1  0.4227950000000  0.5292680000000  0.4686450000000 1.0
C      1  0.5110650000000  0.5047550000000  0.5935390000000 1.0
C      1  0.4893510000000  0.4789230000000  0.3952400000000 1.0
C      1  0.5179940000000  0.4777960000000  0.3959060000000 1.0
C      1  0.4825830000000  0.5026380000000  0.5957690000000 1.0
C      1  0.4993280000000  0.5287730000000  0.4403500000000 1.0
C      1  0.5041640000000  0.5382990000000  0.5390990000000 1.0
C      1  0.4772190000000  0.5399380000000  0.5453690000000 1.0
C      1  0.5274940000000  0.5315660000000  0.4354670000000 1.0
C      1  0.4062940000000  0.4499810000000  0.4294000000000 1.0
C      1  0.5929270000000  0.4645080000000  0.5621290000000 1.0
C      1  0.4013190000000  0.4707530000000  0.5654580000000 1.0
C      1  0.5955590000000  0.4498640000000  0.4412610000000 1.0
C      1  0.4262310000000  0.5363810000000  0.5747840000000 1.0
C      1  0.5759410000000  0.5109800000000  0.4052520000000 1.0
C      1  0.4357170000000  0.5160580000000  0.4121940000000 1.0
C      1  0.5669790000000  0.5333830000000  0.5785380000000 1.0
C      1  0.5490540000000  0.4322030000000  0.5436840000000 1.0
C      1  0.4521860000000  0.4189530000000  0.4510960000000 1.0
C      1  0.5488420000000  0.4228900000000  0.4659530000000 1.0
C      1  0.4452220000000  0.4337250000000  0.5515240000000 1.0
C      1  0.4225980000000  0.4883270000000  0.5721630000000 1.0
C      1  0.5774820000000  0.4663620000000  0.4261760000000 1.0
C      1  0.4269370000000  0.4672540000000  0.4197470000000 1.0
C      1  0.5745150000000  0.4844770000000  0.5718140000000 1.0
C      1  0.5758830000000  0.4953120000000  0.4292070000000 1.0
C      1  0.4239630000000  0.5137790000000  0.5577500000000 1.0
C      1  0.5747800000000  0.5116270000000  0.5617900000000 1.0
C      1  0.4272960000000  0.4950550000000  0.4300430000000 1.0
C      1  0.4508240000000  0.4519210000000  0.4136310000000 1.0
C      1  0.5497100000000  0.4719230000000  0.5788850000000 1.0
C      1  0.4456150000000  0.4733370000000  0.5811800000000 1.0
C      1  0.5533300000000  0.4517680000000  0.4221750000000 1.0
C      1  0.4366870000000  0.4379000000000  0.4651360000000 1.0
C      1  0.5638100000000  0.4475140000000  0.5205660000000 1.0
C      1  0.4320140000000  0.4511890000000  0.5336510000000 1.0
C      1  0.5632570000000  0.4437140000000  0.4858570000000 1.0
C      1  0.4729940000000  0.4831730000000  0.5266420000000 1.0
C      1  0.5228290000000  0.4790710000000  0.4682020000000 1.0
C      1  0.4739190000000  0.4738870000000  0.4670170000000 1.0
C      1  0.5232560000000  0.4827210000000  0.5262430000000 1.0
C      1  0.4464350000000  0.5423860000000  0.4588460000000 1.0
C      1  0.5456880000000  0.5531220000000  0.5260000000000 1.0
C      1  0.4335950000000  0.5623640000000  0.5005960000000 1.0
C      1  0.5718130000000  0.5602110000000  0.4812050000000 1.0
C      1  0.4719690000000  0.4028410000000  0.4634290000000 1.0
C      1  0.5306160000000  0.4109910000000  0.5413970000000 1.0
C      1  0.4638790000000  0.4147970000000  0.5417510000000 1.0
C      1  0.5278010000000  0.4044630000000  0.4700410000000 1.0
C      1  0.5143990000000  0.4683970000000  0.4430210000000 1.0
C      1  0.4836250000000  0.4805220000000  0.5525250000000 1.0
C      1  0.5118170000000  0.4799440000000  0.5526290000000 1.0
C      1  0.4862820000000  0.4663600000000  0.4417550000000 1.0
C      1  0.5249150000000  0.3998420000000  0.5167970000000 1.0
C      1  0.4824940000000  0.4059230000000  0.4904830000000 1.0
C      1  0.5113950000000  0.4040160000000  0.4930620000000 1.0
C      1  0.4671910000000  0.4095400000000  0.5140000000000 1.0
C      1  0.5500250000000  0.4774420000000  0.5209550000000 1.0
C      1  0.4481960000000  0.4636420000000  0.4737030000000 1.0
C      1  0.5480340000000  0.4726010000000  0.4788620000000 1.0
C      1  0.4473950000000  0.4732070000000  0.5212010000000 1.0
C      1  0.4589770000000  0.5338060000000  0.5248410000000 1.0
C      1  0.5468670000000  0.5285140000000  0.4555720000000 1.0
C      1  0.4895090000000  0.5219170000000  0.4664390000000 1.0
C      1  0.5108940000000  0.5267380000000  0.5144670000000 1.0
C      1  0.6005660000000  0.4803490000000  0.5208920000000 1.0
C      1  0.3988390000000  0.4633590000000  0.4733080000000 1.0
C      1  0.5986290000000  0.4785070000000  0.4745880000000 1.0
C      1  0.3977100000000  0.4804360000000  0.5203520000000 1.0
C      1  0.3732140000000  0.4818010000000  0.5069610000000 1.0
C      1  0.6239020000000  0.4877640000000  0.4828890000000 1.0
C      1  0.3735470000000  0.4709370000000  0.4822630000000 1.0
C      1  0.6252780000000  0.4878980000000  0.5099130000000 1.0
C      1  0.5672520000000  0.5083250000000  0.4541740000000 1.0
C      1  0.4294130000000  0.5183190000000  0.5229430000000 1.0
C      1  0.5766510000000  0.5184710000000  0.5336850000000 1.0
C      1  0.4213990000000  0.5028430000000  0.4581100000000 1.0
C      1  0.5924580000000  0.4512640000000  0.4695710000000 1.0
C      1  0.4046380000000  0.4602850000000  0.5394490000000 1.0
C      1  0.5920440000000  0.4566320000000  0.5344360000000 1.0
C      1  0.4089140000000  0.4428060000000  0.4567900000000 1.0
C      1  0.5248670000000  0.4852240000000  0.5773020000000 1.0
C      1  0.4756020000000  0.4646390000000  0.4156920000000 1.0
C      1  0.5289740000000  0.4651220000000  0.4190730000000 1.0
C      1  0.4708360000000  0.4846320000000  0.5773810000000 1.0
C      1  0.5841510000000  0.5441760000000  0.5968580000000 1.0
C      1  0.4168490000000  0.5323470000000  0.4007590000000 1.0
C      1  0.5989620000000  0.5191870000000  0.3931670000000 1.0
C      1  0.4049250000000  0.5524770000000  0.5804170000000 1.0
C      1  0.5491590000000  0.4448880000000  0.5695190000000 1.0
C      1  0.4516710000000  0.4246570000000  0.4229700000000 1.0
C      1  0.5526680000000  0.4283360000000  0.4380990000000 1.0
C      1  0.4452350000000  0.4447620000000  0.5778790000000 1.0
C      1  0.4759080000000  0.7048430000000  0.5583160000000 1.0
C      1  0.4832850000000  0.5788800000000  0.5712030000000 1.0
C      1  0.5091960000000  0.5820330000000  0.5576730000000 1.0
C      1  0.4808180000000  0.6790660000000  0.5620640000000 1.0
C      1  0.4246800000000  0.4910710000000  0.5094510000000 1.0
C      1  0.5725370000000  0.4934670000000  0.4805150000000 1.0
C      1  0.4239360000000  0.4820840000000  0.4797620000000 1.0
C      1  0.5745740000000  0.4962920000000  0.5131930000000 1.0
C      1  0.4928260000000  0.5579860000000  0.4023710000000 1.0
C      1  0.5553950000000  0.5840340000000  0.5593300000000 1.0
C      1  0.5740870000000  0.6016850000000  0.5634400000000 1.0
C      1  0.5192890000000  0.5573100000000  0.3960280000000 1.0
C      1  0.5472250000000  0.5455370000000  0.4781210000000 1.0
C      1  0.4610720000000  0.5510020000000  0.5015760000000 1.0
C      1  0.5318640000000  0.5422130000000  0.5023540000000 1.0
C      1  0.4694910000000  0.5403140000000  0.4761450000000 1.0
C      1  0.4841330000000  0.4060740000000  0.5592790000000 1.0
C      1  0.5163910000000  0.3899180000000  0.4484230000000 1.0
C      1  0.4893950000000  0.3882460000000  0.4461630000000 1.0
C      1  0.5108810000000  0.4062820000000  0.5609760000000 1.0
C      1  0.5015490000000  0.4974180000000  0.5093790000000 1.0
C      1  0.4970020000000  0.4938350000000  0.4799790000000 1.0
C      1  0.4895260000000  0.6258620000000  0.5647930000000 1.0
END
