TITL C-3623286-7563-1506 -4.03368843626062e-07 125000 -222.307154403658 0 0 43 (C1) n - 1
REM
REM in /home/nfs/bkarasulu/CARBON/AIRSS/Generating-Clusters/LCBOP/Higher-Symm/SD-CG/FIRE-CG
REM
REM
REM
REM
REM
REM ./C.cell (b20cbc046b6831c77cfcea5457e17084)
REM AIRSS Version 0.9.1 bugfix July 2018 build 013d7b7c2542+ Fri, 06 Jul 2018 19:26:36 +0100
REM compiler GCC version 9.2.1 20190827 (Red Hat 9.2.1-1)
REM options -cpp -mtune=generic -march=x86-64 -g -O0 -fpre-include=/usr/include/finclude/math-vector-fortran.h
REM seed 210458126 -1430815033 300625536 906468743 -805254298 -1781973237 -1046413913 -1844040672 523796291 356703043 52139814 -38586535 1544688362 -983246343 -822090141 -1443502613 1705631604 -1593562847 1513193040 1132346004 -765204151 -837719348 -1813329341 198344523 -746740951 364310426 1711038300 -1505277588 1406853703 -1200271715 -1326936793 -1734251076 -263222272
REM
CELL 1.54180   50.00000   50.00000   50.00000   90.00000   90.00000   90.00000
LATT -1
SFAC C  
C      1  0.5026410000000  0.4694530000000  0.4513120000000 1.0
C      1  0.5274310000000  0.5173190000000  0.4517480000000 1.0
C      1  0.4735100000000  0.5148880000000  0.4542540000000 1.0
C      1  0.5119240000000  0.4993360000000  0.5374610000000 1.0
C      1  0.5094650000000  0.5282340000000  0.5363620000000 1.0
C      1  0.4846250000000  0.4894720000000  0.5356120000000 1.0
C      1  0.5206410000000  0.5708640000000  0.5244760000000 1.0
C      1  0.4381700000000  0.4825760000000  0.5316360000000 1.0
C      1  0.5436090000000  0.4526430000000  0.5296910000000 1.0
C      1  0.4573920000000  0.5067100000000  0.5322600000000 1.0
C      1  0.5183130000000  0.4429780000000  0.5230070000000 1.0
C      1  0.5344640000000  0.5432880000000  0.5273020000000 1.0
C      1  0.4902590000000  0.5694500000000  0.5334910000000 1.0
C      1  0.4530750000000  0.4556550000000  0.5361340000000 1.0
C      1  0.5556120000000  0.4785640000000  0.5381220000000 1.0
C      1  0.5124120000000  0.5385660000000  0.4356100000000 1.0
C      1  0.4615120000000  0.4924530000000  0.4372530000000 1.0
C      1  0.5277150000000  0.4715260000000  0.4341330000000 1.0
C      1  0.4638150000000  0.5617390000000  0.5190120000000 1.0
C      1  0.4664160000000  0.4357750000000  0.5167760000000 1.0
C      1  0.5692410000000  0.5007420000000  0.5218050000000 1.0
C      1  0.5115210000000  0.5418900000000  0.4876980000000 1.0
C      1  0.4622270000000  0.4878170000000  0.4904240000000 1.0
C      1  0.5288390000000  0.4736290000000  0.4897720000000 1.0
C      1  0.4426030000000  0.5780800000000  0.5152690000000 1.0
C      1  0.4576300000000  0.4108940000000  0.5108820000000 1.0
C      1  0.5958370000000  0.5054730000000  0.5204320000000 1.0
C      1  0.4760550000000  0.4684990000000  0.4371460000000 1.0
C      1  0.5414290000000  0.4958480000000  0.4359960000000 1.0
C      1  0.4845380000000  0.5383810000000  0.4388480000000 1.0
C      1  0.4932270000000  0.5470060000000  0.5531860000000 1.0
C      1  0.4752840000000  0.4661460000000  0.5530540000000 1.0
C      1  0.5343270000000  0.4898060000000  0.5547420000000 1.0
C      1  0.5366780000000  0.5289360000000  0.4787440000000 1.0
C      1  0.4601820000000  0.5159620000000  0.4821570000000 1.0
C      1  0.5084770000000  0.4555060000000  0.4779790000000 1.0
C      1  0.5472400000000  0.5174810000000  0.5064700000000 1.0
C      1  0.4654160000000  0.5317900000000  0.5091110000000 1.0
C      1  0.4924220000000  0.4491320000000  0.5042860000000 1.0
C      1  0.5256590000000  0.4946820000000  0.5086910000000 1.0
C      1  0.4953800000000  0.5308770000000  0.5084030000000 1.0
C      1  0.4822800000000  0.4772830000000  0.5075930000000 1.0
C      1  0.5015350000000  0.5003150000000  0.4603230000000 1.0
END
