TITL C-3623288-6813-1425 -2.6665666954366e-07 125000 -170.16083979929 0 0 28 (C1) n - 1
REM
REM in /home/nfs/bkarasulu/CARBON/AIRSS/Generating-Clusters/LCBOP/Higher-Symm/SD-CG/FIRE-CG
REM
REM
REM
REM
REM
REM ./C.cell (b20cbc046b6831c77cfcea5457e17084)
REM AIRSS Version 0.9.1 bugfix July 2018 build 013d7b7c2542+ Fri, 06 Jul 2018 19:26:36 +0100
REM compiler GCC version 9.2.1 20190827 (Red Hat 9.2.1-1)
REM options -cpp -mtune=generic -march=x86-64 -g -O0 -fpre-include=/usr/include/finclude/math-vector-fortran.h
REM seed -2140857900 -699640045 977869945 1567677321 -1116513597 748223488 -2104723229 -694005100 -991672193 1345186022 -659297611 -1682961499 412262528 -1404987045 1782700410 461049681 -733176423 -1517108873 -1879545652 -665718960 -1781488501 1112152367 898489737 -560033514 1039479021 1270559654 -607758372 -1248473065 1404419262 1416497731 2061722138 1268988617 -219256048
REM
CELL 1.54180   50.00000   50.00000   50.00000   90.00000   90.00000   90.00000
LATT -1
SFAC C  
C      1  0.5300820000000  0.4832360000000  0.4626240000000 1.0
C      1  0.5186030000000  0.5092230000000  0.4617550000000 1.0
C      1  0.4868540000000  0.5396640000000  0.4400210000000 1.0
C      1  0.4739580000000  0.4664490000000  0.4444060000000 1.0
C      1  0.5466000000000  0.4859100000000  0.5081990000000 1.0
C      1  0.5427900000000  0.5138870000000  0.5060980000000 1.0
C      1  0.4924640000000  0.5627550000000  0.4820930000000 1.0
C      1  0.4936690000000  0.4412650000000  0.4836320000000 1.0
C      1  0.5140410000000  0.4572350000000  0.5282420000000 1.0
C      1  0.5102720000000  0.5425520000000  0.5264830000000 1.0
C      1  0.4890600000000  0.5329580000000  0.5426340000000 1.0
C      1  0.4916200000000  0.4660170000000  0.5431660000000 1.0
C      1  0.4478700000000  0.4843430000000  0.5252010000000 1.0
C      1  0.4467060000000  0.5111940000000  0.5252530000000 1.0
C      1  0.4654530000000  0.4653300000000  0.5325200000000 1.0
C      1  0.4626760000000  0.5316080000000  0.5325140000000 1.0
C      1  0.5077940000000  0.5452960000000  0.4975160000000 1.0
C      1  0.5139370000000  0.4523180000000  0.4992840000000 1.0
C      1  0.4810960000000  0.4911000000000  0.4369620000000 1.0
C      1  0.4963840000000  0.5135640000000  0.4441740000000 1.0
C      1  0.4960430000000  0.4864250000000  0.5624810000000 1.0
C      1  0.4952450000000  0.5133620000000  0.5622640000000 1.0
C      1  0.5391410000000  0.4716600000000  0.5322310000000 1.0
C      1  0.5364980000000  0.5301110000000  0.5292730000000 1.0
C      1  0.4784790000000  0.4472470000000  0.4624440000000 1.0
C      1  0.4840300000000  0.5606090000000  0.4566450000000 1.0
C      1  0.5247140000000  0.5249330000000  0.4849100000000 1.0
C      1  0.5339230000000  0.4697490000000  0.4869740000000 1.0
END
