TITL C-3623284-6838-1639 0.0499075487281008 125000 -625.124285241621 0 0 104 (C1) n - 1
REM
REM in /home/nfs/bkarasulu/CARBON/AIRSS/Generating-Clusters/LCBOP/Higher-Symm/SD-CG/FIRE-CG
REM
REM
REM
REM
REM
REM ./C.cell (b20cbc046b6831c77cfcea5457e17084)
REM AIRSS Version 0.9.1 bugfix July 2018 build 013d7b7c2542+ Fri, 06 Jul 2018 19:26:36 +0100
REM compiler GCC version 9.2.1 20190827 (Red Hat 9.2.1-1)
REM options -cpp -mtune=generic -march=x86-64 -g -O0 -fpre-include=/usr/include/finclude/math-vector-fortran.h
REM seed 1445918513 -992664360 1785920555 1020754765 2061770587 -426079415 -363413047 31237904 -380256750 911744053 1228770895 -366939796 -677856308 1962996993 -238015263 -1208861455 1577350402 1604157324 1476469297 -973875701 520049520 1054142191 -359594342 18826730 -1126382704 1492004354 1008398839 966665432 -1906732277 493773420 -1037569287 -1228603539 -660072685
REM
CELL 1.54180   50.00000   50.00000   50.00000   90.00000   90.00000   90.00000
LATT -1
SFAC C  
C      1  0.4175440000000  0.4922740000000  0.5139690000000 1.0
C      1  0.4162390000000  0.4932940000000  0.4846960000000 1.0
C      1  0.5288100000000  0.4946840000000  0.5859040000000 1.0
C      1  0.5280520000000  0.4995020000000  0.4200470000000 1.0
C      1  0.5292630000000  0.4165630000000  0.4800130000000 1.0
C      1  0.5287370000000  0.4160750000000  0.5270800000000 1.0
C      1  0.5022860000000  0.4744420000000  0.5499380000000 1.0
C      1  0.4946710000000  0.4677990000000  0.4538100000000 1.0
C      1  0.4083400000000  0.4468170000000  0.4843950000000 1.0
C      1  0.4091650000000  0.4459440000000  0.5117670000000 1.0
C      1  0.5349780000000  0.4442510000000  0.5324870000000 1.0
C      1  0.5298280000000  0.4457280000000  0.4810330000000 1.0
C      1  0.4220700000000  0.4731070000000  0.4417700000000 1.0
C      1  0.4247900000000  0.4695580000000  0.5553190000000 1.0
C      1  0.4358620000000  0.5378660000000  0.4287090000000 1.0
C      1  0.4376100000000  0.5336760000000  0.5707250000000 1.0
C      1  0.4864950000000  0.5129610000000  0.4702050000000 1.0
C      1  0.4890070000000  0.5141790000000  0.5227720000000 1.0
C      1  0.5270370000000  0.4709640000000  0.5360920000000 1.0
C      1  0.5061790000000  0.4606830000000  0.4788300000000 1.0
C      1  0.4486520000000  0.5138850000000  0.4182280000000 1.0
C      1  0.4504450000000  0.5096350000000  0.5809520000000 1.0
C      1  0.4364100000000  0.5122850000000  0.4763680000000 1.0
C      1  0.4382380000000  0.5107640000000  0.5222210000000 1.0
C      1  0.4757530000000  0.5132980000000  0.4080990000000 1.0
C      1  0.4764940000000  0.5092830000000  0.5932930000000 1.0
C      1  0.5526320000000  0.5910100000000  0.5136060000000 1.0
C      1  0.5518060000000  0.5940540000000  0.4862800000000 1.0
C      1  0.5294980000000  0.5691130000000  0.4441770000000 1.0
C      1  0.5305070000000  0.5607910000000  0.5528310000000 1.0
C      1  0.3908960000000  0.5374430000000  0.4604250000000 1.0
C      1  0.3919070000000  0.5347680000000  0.5401510000000 1.0
C      1  0.5033000000000  0.5047360000000  0.5957470000000 1.0
C      1  0.5025720000000  0.5078780000000  0.4086200000000 1.0
C      1  0.5701800000000  0.5507880000000  0.4618440000000 1.0
C      1  0.5725440000000  0.5427310000000  0.5384660000000 1.0
C      1  0.4802760000000  0.5623260000000  0.5540430000000 1.0
C      1  0.4789490000000  0.5670720000000  0.4436500000000 1.0
C      1  0.4096350000000  0.5326150000000  0.5611210000000 1.0
C      1  0.4081430000000  0.5365080000000  0.4389730000000 1.0
C      1  0.4514620000000  0.5587280000000  0.4420810000000 1.0
C      1  0.4528540000000  0.5547930000000  0.5573440000000 1.0
C      1  0.5552120000000  0.4608760000000  0.4458490000000 1.0
C      1  0.5567440000000  0.4510590000000  0.5718760000000 1.0
C      1  0.5478210000000  0.5125250000000  0.5063490000000 1.0
C      1  0.5461000000000  0.5077170000000  0.4770660000000 1.0
C      1  0.4854670000000  0.4935560000000  0.4479890000000 1.0
C      1  0.4912010000000  0.4998230000000  0.5481170000000 1.0
C      1  0.5020100000000  0.4099330000000  0.5167390000000 1.0
C      1  0.5025970000000  0.4073230000000  0.4867990000000 1.0
C      1  0.5078090000000  0.4524640000000  0.4330010000000 1.0
C      1  0.5047300000000  0.4541070000000  0.5708670000000 1.0
C      1  0.5482290000000  0.4897680000000  0.5433110000000 1.0
C      1  0.5722370000000  0.5072070000000  0.4381440000000 1.0
C      1  0.5822040000000  0.5483430000000  0.5136940000000 1.0
C      1  0.5809190000000  0.5510110000000  0.4867550000000 1.0
C      1  0.5579360000000  0.4515890000000  0.4738890000000 1.0
C      1  0.5627110000000  0.4425800000000  0.5436290000000 1.0
C      1  0.5066010000000  0.5810880000000  0.5143080000000 1.0
C      1  0.5060590000000  0.5826560000000  0.4848580000000 1.0
C      1  0.4379880000000  0.4850130000000  0.5731490000000 1.0
C      1  0.4351720000000  0.4892950000000  0.4244800000000 1.0
C      1  0.4835600000000  0.5412210000000  0.5115110000000 1.0
C      1  0.4844830000000  0.5411920000000  0.4827580000000 1.0
C      1  0.4911040000000  0.4301360000000  0.5628910000000 1.0
C      1  0.4983670000000  0.4251130000000  0.4382920000000 1.0
C      1  0.5596500000000  0.3764070000000  0.5141970000000 1.0
C      1  0.5618600000000  0.3792360000000  0.4872240000000 1.0
C      1  0.4871230000000  0.5663270000000  0.4714030000000 1.0
C      1  0.4865830000000  0.5648310000000  0.5258320000000 1.0
C      1  0.5562570000000  0.4056050000000  0.4789180000000 1.0
C      1  0.5541030000000  0.4009130000000  0.5269790000000 1.0
C      1  0.3833740000000  0.5370400000000  0.5141420000000 1.0
C      1  0.3829960000000  0.5379940000000  0.4867300000000 1.0
C      1  0.5316700000000  0.5793840000000  0.5290830000000 1.0
C      1  0.5304760000000  0.5850600000000  0.4695650000000 1.0
C      1  0.5155050000000  0.5078130000000  0.4778200000000 1.0
C      1  0.5160590000000  0.5104810000000  0.5100700000000 1.0
C      1  0.4640100000000  0.5010800000000  0.5125140000000 1.0
C      1  0.4622480000000  0.5021310000000  0.4842310000000 1.0
C      1  0.6172070000000  0.4864040000000  0.4705420000000 1.0
C      1  0.6101660000000  0.4805530000000  0.5263790000000 1.0
C      1  0.5485730000000  0.5474860000000  0.4421880000000 1.0
C      1  0.5490560000000  0.5381750000000  0.5549520000000 1.0
C      1  0.5737440000000  0.4244610000000  0.5224210000000 1.0
C      1  0.5718780000000  0.4294010000000  0.4904330000000 1.0
C      1  0.4895400000000  0.4106850000000  0.4607250000000 1.0
C      1  0.4852980000000  0.4164060000000  0.5395600000000 1.0
C      1  0.5312810000000  0.4635790000000  0.5832190000000 1.0
C      1  0.5325360000000  0.4694850000000  0.4284330000000 1.0
C      1  0.4150640000000  0.4680140000000  0.5287400000000 1.0
C      1  0.4132140000000  0.4699560000000  0.4685520000000 1.0
C      1  0.5041560000000  0.5693650000000  0.4299410000000 1.0
C      1  0.5054840000000  0.5612740000000  0.5673930000000 1.0
C      1  0.4332210000000  0.5401290000000  0.4856080000000 1.0
C      1  0.4339130000000  0.5389100000000  0.5141410000000 1.0
C      1  0.5431700000000  0.5097730000000  0.5641850000000 1.0
C      1  0.5480630000000  0.5202300000000  0.4285470000000 1.0
C      1  0.5649510000000  0.4970800000000  0.5218580000000 1.0
C      1  0.5713110000000  0.5011230000000  0.4657020000000 1.0
C      1  0.4381240000000  0.5615340000000  0.4680150000000 1.0
C      1  0.4381080000000  0.5595690000000  0.5326890000000 1.0
C      1  0.5929980000000  0.4922020000000  0.4820700000000 1.0
C      1  0.5896550000000  0.4894400000000  0.5105980000000 1.0
END
