TITL C-3623287-7182-731 -0.161496714357679 125000 -1051.98853005967 0 0 174 (C1) n - 1
REM
REM in /home/nfs/bkarasulu/CARBON/AIRSS/Generating-Clusters/LCBOP/Higher-Symm/SD-CG/FIRE-CG
REM
REM
REM
REM
REM
REM ./C.cell (b20cbc046b6831c77cfcea5457e17084)
REM AIRSS Version 0.9.1 bugfix July 2018 build 013d7b7c2542+ Fri, 06 Jul 2018 19:26:36 +0100
REM compiler GCC version 9.2.1 20190827 (Red Hat 9.2.1-1)
REM options -cpp -mtune=generic -march=x86-64 -g -O0 -fpre-include=/usr/include/finclude/math-vector-fortran.h
REM seed 565293454 1016497589 -381249827 -1184067766 -1179360780 1195847301 -1991990193 -1862087279 95704503 -529090025 753384026 1973675861 862116667 -712998006 -1357485785 -1052212940 1222228233 -1666533119 1695838724 132328218 -168994764 -1666371875 116291710 58700576 -101010618 -1120964055 1550587287 -468471821 131137087 1004230486 -1118842910 1660197113 -115704827
REM
CELL 1.54180   50.00000   50.00000   50.00000   90.00000   90.00000   90.00000
LATT -1
SFAC C  
C      1  0.4135230000000  0.4442590000000  0.5589680000000 1.0
C      1  0.4208520000000  0.4572640000000  0.4421310000000 1.0
C      1  0.4295540000000  0.5758830000000  0.4675460000000 1.0
C      1  0.4281190000000  0.5807080000000  0.5343510000000 1.0
C      1  0.4816700000000  0.3575470000000  0.4913290000000 1.0
C      1  0.4809870000000  0.3597430000000  0.5182670000000 1.0
C      1  0.5868370000000  0.4803490000000  0.4431980000000 1.0
C      1  0.5892990000000  0.4819410000000  0.5531210000000 1.0
C      1  0.5880230000000  0.5229010000000  0.5225880000000 1.0
C      1  0.5848290000000  0.5213250000000  0.4720820000000 1.0
C      1  0.5248910000000  0.4899340000000  0.5887670000000 1.0
C      1  0.5312020000000  0.4913590000000  0.4118210000000 1.0
C      1  0.6107940000000  0.5967370000000  0.5122060000000 1.0
C      1  0.6107040000000  0.5962820000000  0.4852920000000 1.0
C      1  0.4980940000000  0.5150020000000  0.6176840000000 1.0
C      1  0.5025160000000  0.5136620000000  0.3813870000000 1.0
C      1  0.4281970000000  0.4307570000000  0.5789090000000 1.0
C      1  0.4298640000000  0.4427710000000  0.4197150000000 1.0
C      1  0.5309930000000  0.4480790000000  0.5250260000000 1.0
C      1  0.5310610000000  0.4456100000000  0.4726850000000 1.0
C      1  0.5650630000000  0.5496300000000  0.4300890000000 1.0
C      1  0.5646910000000  0.5482840000000  0.5644570000000 1.0
C      1  0.4809060000000  0.4990270000000  0.5070770000000 1.0
C      1  0.4566340000000  0.5066430000000  0.5015070000000 1.0
C      1  0.5764250000000  0.4251500000000  0.5318150000000 1.0
C      1  0.5766110000000  0.4238210000000  0.4667210000000 1.0
C      1  0.5567790000000  0.4472540000000  0.5761480000000 1.0
C      1  0.5591050000000  0.4457480000000  0.4222700000000 1.0
C      1  0.5702880000000  0.4006300000000  0.4860200000000 1.0
C      1  0.5701050000000  0.4011800000000  0.5132740000000 1.0
C      1  0.4601890000000  0.5891580000000  0.5717820000000 1.0
C      1  0.4597380000000  0.5844380000000  0.4288960000000 1.0
C      1  0.5060460000000  0.5999490000000  0.5577110000000 1.0
C      1  0.5050970000000  0.5992730000000  0.4408020000000 1.0
C      1  0.3885210000000  0.5006130000000  0.5561510000000 1.0
C      1  0.4079500000000  0.5156730000000  0.4519720000000 1.0
C      1  0.5636070000000  0.5901900000000  0.4696550000000 1.0
C      1  0.5638850000000  0.5905770000000  0.5284100000000 1.0
C      1  0.4785070000000  0.5821130000000  0.5928880000000 1.0
C      1  0.4772830000000  0.5786730000000  0.4068540000000 1.0
C      1  0.4677580000000  0.3766850000000  0.5347570000000 1.0
C      1  0.4693810000000  0.3715800000000  0.4716780000000 1.0
C      1  0.5238180000000  0.5617610000000  0.4051630000000 1.0
C      1  0.5230960000000  0.5601170000000  0.5911190000000 1.0
C      1  0.6168650000000  0.4780490000000  0.4457010000000 1.0
C      1  0.6192630000000  0.4794020000000  0.5489930000000 1.0
C      1  0.5248050000000  0.5091070000000  0.4333810000000 1.0
C      1  0.5200990000000  0.5071500000000  0.5663100000000 1.0
C      1  0.5514670000000  0.5609610000000  0.5861310000000 1.0
C      1  0.5519160000000  0.5644990000000  0.4100360000000 1.0
C      1  0.4109470000000  0.4988760000000  0.5134750000000 1.0
C      1  0.4300460000000  0.5033530000000  0.4936770000000 1.0
C      1  0.5662900000000  0.4246420000000  0.5610320000000 1.0
C      1  0.5660920000000  0.4226290000000  0.4377720000000 1.0
C      1  0.6174560000000  0.4544230000000  0.4633530000000 1.0
C      1  0.6186580000000  0.4550020000000  0.5324480000000 1.0
C      1  0.4618970000000  0.5593170000000  0.3602410000000 1.0
C      1  0.4639110000000  0.5652060000000  0.6406130000000 1.0
C      1  0.4635380000000  0.5501430000000  0.5448160000000 1.0
C      1  0.4672790000000  0.5468390000000  0.4573940000000 1.0
C      1  0.5773500000000  0.5381770000000  0.4508590000000 1.0
C      1  0.5803860000000  0.5392120000000  0.5445500000000 1.0
C      1  0.5423140000000  0.5110760000000  0.5251470000000 1.0
C      1  0.5354450000000  0.5058370000000  0.4773950000000 1.0
C      1  0.5084200000000  0.4888340000000  0.3946790000000 1.0
C      1  0.5022230000000  0.4892080000000  0.6055670000000 1.0
C      1  0.4674270000000  0.6074290000000  0.5276620000000 1.0
C      1  0.4668480000000  0.6057580000000  0.4715350000000 1.0
C      1  0.3774040000000  0.4427600000000  0.4726370000000 1.0
C      1  0.3718900000000  0.4314410000000  0.5267770000000 1.0
C      1  0.3772760000000  0.4158960000000  0.4818080000000 1.0
C      1  0.3748500000000  0.4101750000000  0.5082380000000 1.0
C      1  0.6022640000000  0.4662200000000  0.4848580000000 1.0
C      1  0.6029590000000  0.4661630000000  0.5109970000000 1.0
C      1  0.5053310000000  0.5811010000000  0.4161950000000 1.0
C      1  0.5059970000000  0.5815350000000  0.5817780000000 1.0
C      1  0.6143760000000  0.5167340000000  0.5115350000000 1.0
C      1  0.6126200000000  0.5160680000000  0.4813690000000 1.0
C      1  0.5900930000000  0.5935390000000  0.4683010000000 1.0
C      1  0.5903190000000  0.5944250000000  0.5294250000000 1.0
C      1  0.4665190000000  0.4755000000000  0.4547560000000 1.0
C      1  0.4523700000000  0.4749500000000  0.5494300000000 1.0
C      1  0.4764090000000  0.6075380000000  0.5553240000000 1.0
C      1  0.4751090000000  0.6048190000000  0.4438270000000 1.0
C      1  0.5133250000000  0.6296950000000  0.4855330000000 1.0
C      1  0.5135090000000  0.6294960000000  0.5132430000000 1.0
C      1  0.5260860000000  0.5314540000000  0.4867490000000 1.0
C      1  0.5268050000000  0.5325330000000  0.5148250000000 1.0
C      1  0.5605500000000  0.3733080000000  0.4161780000000 1.0
C      1  0.5670370000000  0.3759920000000  0.5848800000000 1.0
C      1  0.3960910000000  0.4513290000000  0.4538190000000 1.0
C      1  0.3895430000000  0.4345670000000  0.5481830000000 1.0
C      1  0.3561220000000  0.5086470000000  0.4863760000000 1.0
C      1  0.3344090000000  0.4856270000000  0.5445260000000 1.0
C      1  0.4140930000000  0.5655720000000  0.5150100000000 1.0
C      1  0.4150000000000  0.5630140000000  0.4880410000000 1.0
C      1  0.4378050000000  0.4774510000000  0.4538510000000 1.0
C      1  0.4243710000000  0.4686560000000  0.5485430000000 1.0
C      1  0.4067340000000  0.4891420000000  0.5393480000000 1.0
C      1  0.4247350000000  0.4995050000000  0.4661890000000 1.0
C      1  0.5135660000000  0.5468430000000  0.4667250000000 1.0
C      1  0.5077950000000  0.5428090000000  0.5329490000000 1.0
C      1  0.4723020000000  0.5257970000000  0.5575970000000 1.0
C      1  0.4804650000000  0.5238540000000  0.4455380000000 1.0
C      1  0.3100000000000  0.4481630000000  0.5283840000000 1.0
C      1  0.3309990000000  0.4806780000000  0.4572160000000 1.0
C      1  0.5118560000000  0.5383210000000  0.6067430000000 1.0
C      1  0.5144000000000  0.5385490000000  0.3905800000000 1.0
C      1  0.4851710000000  0.4968070000000  0.4559750000000 1.0
C      1  0.4591210000000  0.5012750000000  0.5572780000000 1.0
C      1  0.4267050000000  0.3880350000000  0.4872120000000 1.0
C      1  0.4259890000000  0.3901010000000  0.5145340000000 1.0
C      1  0.4538680000000  0.4371180000000  0.4088520000000 1.0
C      1  0.4533980000000  0.4313790000000  0.5885610000000 1.0
C      1  0.4921900000000  0.4661360000000  0.4013020000000 1.0
C      1  0.4852220000000  0.4672570000000  0.5989270000000 1.0
C      1  0.4837470000000  0.4326270000000  0.4704390000000 1.0
C      1  0.4816030000000  0.4378420000000  0.5277910000000 1.0
C      1  0.5439610000000  0.4684430000000  0.5873760000000 1.0
C      1  0.5493310000000  0.4693230000000  0.4131210000000 1.0
C      1  0.4838280000000  0.5154610000000  0.3605500000000 1.0
C      1  0.4806520000000  0.5191510000000  0.6392040000000 1.0
C      1  0.5750720000000  0.4737110000000  0.4720290000000 1.0
C      1  0.5765580000000  0.4746700000000  0.5245780000000 1.0
C      1  0.4727350000000  0.4539410000000  0.5510630000000 1.0
C      1  0.4780140000000  0.4499640000000  0.4477510000000 1.0
C      1  0.5074200000000  0.4375830000000  0.5138280000000 1.0
C      1  0.5083470000000  0.4348320000000  0.4854100000000 1.0
C      1  0.4674240000000  0.5346240000000  0.3515220000000 1.0
C      1  0.4670680000000  0.5400130000000  0.6490700000000 1.0
C      1  0.5676200000000  0.5018560000000  0.5135750000000 1.0
C      1  0.5646250000000  0.5001320000000  0.4830670000000 1.0
C      1  0.4639500000000  0.4179490000000  0.4847790000000 1.0
C      1  0.4629390000000  0.4204770000000  0.5143780000000 1.0
C      1  0.5144770000000  0.6018560000000  0.4714700000000 1.0
C      1  0.5147700000000  0.6014270000000  0.5272510000000 1.0
C      1  0.4853970000000  0.5602390000000  0.5272830000000 1.0
C      1  0.4886320000000  0.5601680000000  0.4731190000000 1.0
C      1  0.3333080000000  0.4625130000000  0.5299390000000 1.0
C      1  0.3494850000000  0.4837140000000  0.4772150000000 1.0
C      1  0.4503540000000  0.3979030000000  0.5273740000000 1.0
C      1  0.4518150000000  0.3937250000000  0.4747030000000 1.0
C      1  0.6083330000000  0.4268670000000  0.4660230000000 1.0
C      1  0.6087890000000  0.4276600000000  0.5315400000000 1.0
C      1  0.5013650000000  0.5263460000000  0.5570940000000 1.0
C      1  0.5093740000000  0.5326580000000  0.4408430000000 1.0
C      1  0.6293820000000  0.5020860000000  0.5323610000000 1.0
C      1  0.6272430000000  0.5015930000000  0.4604530000000 1.0
C      1  0.4746730000000  0.4482570000000  0.5801030000000 1.0
C      1  0.4784210000000  0.4475450000000  0.4185060000000 1.0
C      1  0.5314130000000  0.4949320000000  0.5443320000000 1.0
C      1  0.5173360000000  0.4921110000000  0.4575770000000 1.0
C      1  0.4457630000000  0.5699870000000  0.5548740000000 1.0
C      1  0.4475070000000  0.5648500000000  0.4472450000000 1.0
C      1  0.5665830000000  0.3995650000000  0.5737830000000 1.0
C      1  0.5633160000000  0.3971970000000  0.4262140000000 1.0
C      1  0.3561980000000  0.4530850000000  0.5160950000000 1.0
C      1  0.3614810000000  0.4606880000000  0.4886500000000 1.0
C      1  0.5398050000000  0.5904140000000  0.5139220000000 1.0
C      1  0.5397420000000  0.5906850000000  0.4844530000000 1.0
C      1  0.5669150000000  0.5752830000000  0.6038430000000 1.0
C      1  0.5663550000000  0.5820850000000  0.3947290000000 1.0
C      1  0.4880590000000  0.5881610000000  0.5147140000000 1.0
C      1  0.4883430000000  0.5881770000000  0.4850200000000 1.0
C      1  0.5259350000000  0.4684650000000  0.5423970000000 1.0
C      1  0.5242450000000  0.4645900000000  0.4538490000000 1.0
C      1  0.5599250000000  0.4483650000000  0.5159710000000 1.0
C      1  0.5596840000000  0.4474200000000  0.4815760000000 1.0
C      1  0.4392990000000  0.6017190000000  0.4751980000000 1.0
C      1  0.4395260000000  0.6050770000000  0.5245480000000 1.0
C      1  0.4704540000000  0.5798950000000  0.6193660000000 1.0
C      1  0.4679010000000  0.5749180000000  0.3809910000000 1.0
C      1  0.6221170000000  0.4109230000000  0.4853540000000 1.0
C      1  0.6218950000000  0.4108670000000  0.5125150000000 1.0
END
