TITL C-3623289-7120-1748 -1882.1753188965 125000 -744.094246479297 0 0 122 (C1) n - 1
REM
REM in /home/nfs/bkarasulu/CARBON/AIRSS/Generating-Clusters/LCBOP/Higher-Symm/SD-CG/FIRE-CG
REM
REM
REM
REM
REM
REM ./C.cell (b20cbc046b6831c77cfcea5457e17084)
REM AIRSS Version 0.9.1 bugfix July 2018 build 013d7b7c2542+ Fri, 06 Jul 2018 19:26:36 +0100
REM compiler GCC version 9.2.1 20190827 (Red Hat 9.2.1-1)
REM options -cpp -mtune=generic -march=x86-64 -g -O0 -fpre-include=/usr/include/finclude/math-vector-fortran.h
REM seed -857085689 -1732597810 -276776944 1676016748 1189735509 -1973679394 -178238135 1962659119 896434906 -1520497325 -1173411912 689007391 -1141200832 -298291747 -1380227689 -1041561404 1905249955 151937906 -775077707 839241725 -968535822 1745121364 1480492372 1404095366 -386222116 617608765 1236715956 330239298 1830959989 -903890886 -1277842980 -2002041679 -1149254059
REM
CELL 1.54180   50.00000   50.00000   50.00000   90.00000   90.00000   90.00000
LATT -1
SFAC C  
C      1  0.5594820000000  0.4811150000000  0.5496220000000 1.0
C      1  0.5110850000000  0.5639320000000  0.3916870000000 1.0
C      1  0.4397790000000  0.5055060000000  0.5528160000000 1.0
C      1  0.4677280000000  0.5370490000000  0.4578850000000 1.0
C      1  0.5484920000000  0.5107430000000  0.4401860000000 1.0
C      1  0.5240310000000  0.5718900000000  0.5559640000000 1.0
C      1  0.4468090000000  0.5742390000000  0.5389730000000 1.0
C      1  0.5504230000000  0.4140300000000  0.4777160000000 1.0
C      1  0.4302400000000  0.4212930000000  0.4754340000000 1.0
C      1  0.5398620000000  0.4001360000000  0.5009950000000 1.0
C      1  0.4583190000000  0.4675590000000  0.4870940000000 1.0
C      1  0.4554490000000  0.5524750000000  0.4372810000000 1.0
C      1  0.5019560000000  0.4147110000000  0.4554190000000 1.0
C      1  0.4984610000000  0.4145370000000  0.5230250000000 1.0
C      1  0.5704170000000  0.4342370000000  0.4862200000000 1.0
C      1  0.5434320000000  0.3842720000000  0.6137210000000 1.0
C      1  0.5557110000000  0.5336850000000  0.4774330000000 1.0
C      1  0.5140980000000  0.5158550000000  0.3895970000000 1.0
C      1  0.5124670000000  0.4771990000000  0.5123030000000 1.0
C      1  0.5503160000000  0.5430310000000  0.3726520000000 1.0
C      1  0.4276920000000  0.5540750000000  0.4420560000000 1.0
C      1  0.5428510000000  0.4581150000000  0.5514190000000 1.0
C      1  0.4325900000000  0.5447960000000  0.6039980000000 1.0
C      1  0.5509620000000  0.5383590000000  0.4495710000000 1.0
C      1  0.5421800000000  0.3731280000000  0.5043070000000 1.0
C      1  0.5475920000000  0.3607020000000  0.6240560000000 1.0
C      1  0.4799540000000  0.4733910000000  0.5642930000000 1.0
C      1  0.4356830000000  0.5822190000000  0.4887420000000 1.0
C      1  0.4286580000000  0.4334090000000  0.5011920000000 1.0
C      1  0.4088720000000  0.4818230000000  0.4401550000000 1.0
C      1  0.4372220000000  0.5649870000000  0.5869340000000 1.0
C      1  0.4110730000000  0.5414380000000  0.4817260000000 1.0
C      1  0.5376050000000  0.5638460000000  0.4507570000000 1.0
C      1  0.4840160000000  0.5646160000000  0.5775880000000 1.0
C      1  0.4207390000000  0.5071180000000  0.5114600000000 1.0
C      1  0.4971660000000  0.4952750000000  0.4731300000000 1.0
C      1  0.5035570000000  0.4729110000000  0.4103860000000 1.0
C      1  0.5167680000000  0.4787590000000  0.4845270000000 1.0
C      1  0.4771520000000  0.4502430000000  0.4994350000000 1.0
C      1  0.4273520000000  0.5189350000000  0.4867560000000 1.0
C      1  0.5126440000000  0.5560720000000  0.5782820000000 1.0
C      1  0.4510980000000  0.5888200000000  0.5134800000000 1.0
C      1  0.5582890000000  0.4878580000000  0.4563560000000 1.0
C      1  0.5077200000000  0.4501110000000  0.4261650000000 1.0
C      1  0.4362640000000  0.4234370000000  0.5268240000000 1.0
C      1  0.5393850000000  0.4082590000000  0.6031960000000 1.0
C      1  0.4668960000000  0.5142850000000  0.5504110000000 1.0
C      1  0.4480790000000  0.4921810000000  0.4154950000000 1.0
C      1  0.6132900000000  0.5314800000000  0.4671280000000 1.0
C      1  0.6089650000000  0.4896420000000  0.5124400000000 1.0
C      1  0.4677000000000  0.5065010000000  0.4010930000000 1.0
C      1  0.4327670000000  0.4618380000000  0.4988510000000 1.0
C      1  0.4386050000000  0.5211090000000  0.6148110000000 1.0
C      1  0.5311800000000  0.4560900000000  0.5782910000000 1.0
C      1  0.5414290000000  0.5260720000000  0.5349300000000 1.0
C      1  0.5637760000000  0.5002640000000  0.5706920000000 1.0
C      1  0.4614390000000  0.5330090000000  0.3945040000000 1.0
C      1  0.5046540000000  0.5895620000000  0.5107110000000 1.0
C      1  0.4909340000000  0.4637800000000  0.5198590000000 1.0
C      1  0.5334650000000  0.4397840000000  0.4351060000000 1.0
C      1  0.4870220000000  0.4704370000000  0.5916610000000 1.0
C      1  0.4220930000000  0.5645160000000  0.4693810000000 1.0
C      1  0.4337760000000  0.4361590000000  0.4512980000000 1.0
C      1  0.4242350000000  0.4796700000000  0.5184960000000 1.0
C      1  0.6078910000000  0.5542600000000  0.4801480000000 1.0
C      1  0.4565070000000  0.4597160000000  0.5536510000000 1.0
C      1  0.5867830000000  0.4883560000000  0.4569410000000 1.0
C      1  0.4543280000000  0.4648570000000  0.4199860000000 1.0
C      1  0.4812040000000  0.4168670000000  0.5456930000000 1.0
C      1  0.4130280000000  0.4556860000000  0.4460820000000 1.0
C      1  0.4686030000000  0.4918070000000  0.4758810000000 1.0
C      1  0.4433220000000  0.5467870000000  0.5307950000000 1.0
C      1  0.4513200000000  0.4978150000000  0.6178650000000 1.0
C      1  0.5693530000000  0.5838390000000  0.4857260000000 1.0
C      1  0.4703500000000  0.5365160000000  0.5325340000000 1.0
C      1  0.5547880000000  0.5241730000000  0.5808380000000 1.0
C      1  0.3893100000000  0.5363110000000  0.4174710000000 1.0
C      1  0.4900820000000  0.4990690000000  0.5535410000000 1.0
C      1  0.4843080000000  0.4230680000000  0.4993870000000 1.0
C      1  0.5104740000000  0.5698000000000  0.5304790000000 1.0
C      1  0.5343380000000  0.5209140000000  0.4901180000000 1.0
C      1  0.5898030000000  0.5680220000000  0.4969590000000 1.0
C      1  0.5973110000000  0.4427280000000  0.4901990000000 1.0
C      1  0.5183510000000  0.5926840000000  0.4857010000000 1.0
C      1  0.5274180000000  0.5311530000000  0.5882230000000 1.0
C      1  0.5257180000000  0.5409870000000  0.3843170000000 1.0
C      1  0.4661370000000  0.5553340000000  0.4111870000000 1.0
C      1  0.4564610000000  0.4317880000000  0.5457620000000 1.0
C      1  0.5435420000000  0.4729860000000  0.4774290000000 1.0
C      1  0.5639660000000  0.4909080000000  0.5232050000000 1.0
C      1  0.5406790000000  0.4433450000000  0.5251230000000 1.0
C      1  0.4972240000000  0.5440120000000  0.5303630000000 1.0
C      1  0.5423800000000  0.5075780000000  0.5133730000000 1.0
C      1  0.4357630000000  0.4777640000000  0.5452900000000 1.0
C      1  0.5090070000000  0.5212970000000  0.4757690000000 1.0
C      1  0.5082670000000  0.5640020000000  0.4508530000000 1.0
C      1  0.4954650000000  0.5411000000000  0.4613040000000 1.0
C      1  0.4570890000000  0.5723540000000  0.5676590000000 1.0
C      1  0.5356960000000  0.4320680000000  0.5922020000000 1.0
C      1  0.5137410000000  0.5231580000000  0.5425480000000 1.0
C      1  0.4861280000000  0.4340910000000  0.4395460000000 1.0
C      1  0.4257570000000  0.5243690000000  0.5343280000000 1.0
C      1  0.5003060000000  0.5888800000000  0.4628760000000 1.0
C      1  0.4950920000000  0.4976620000000  0.3997120000000 1.0
C      1  0.5151060000000  0.4767810000000  0.5924070000000 1.0
C      1  0.4775820000000  0.5990730000000  0.5109930000000 1.0
C      1  0.5314220000000  0.4196000000000  0.4561650000000 1.0
C      1  0.5527030000000  0.4537950000000  0.4983610000000 1.0
C      1  0.4585120000000  0.4422350000000  0.4369980000000 1.0
C      1  0.4685010000000  0.4784420000000  0.6110800000000 1.0
C      1  0.4238550000000  0.5031290000000  0.4279890000000 1.0
C      1  0.5180680000000  0.5051840000000  0.5978280000000 1.0
C      1  0.6096340000000  0.4646170000000  0.5011960000000 1.0
C      1  0.5438610000000  0.5826410000000  0.4740950000000 1.0
C      1  0.4532690000000  0.5160940000000  0.4730730000000 1.0
C      1  0.4136850000000  0.5311120000000  0.4294510000000 1.0
C      1  0.5773600000000  0.5330300000000  0.5329180000000 1.0
C      1  0.5884330000000  0.5066200000000  0.5226490000000 1.0
C      1  0.5858520000000  0.5574600000000  0.5228990000000 1.0
C      1  0.6061110000000  0.5069290000000  0.4591830000000 1.0
C      1  0.4878080000000  0.5711780000000  0.4029970000000 1.0
C      1  0.5270020000000  0.4173900000000  0.5206810000000 1.0
END
