TITL C-3623286-7563-757 3.92205088981535e-07 125000 -1116.2816911776 0 0 181 (C1) n - 1
REM
REM in /home/nfs/bkarasulu/CARBON/AIRSS/Generating-Clusters/LCBOP/Higher-Symm/SD-CG/FIRE-CG
REM
REM
REM
REM
REM
REM ./C.cell (b20cbc046b6831c77cfcea5457e17084)
REM AIRSS Version 0.9.1 bugfix July 2018 build 013d7b7c2542+ Fri, 06 Jul 2018 19:26:36 +0100
REM compiler GCC version 9.2.1 20190827 (Red Hat 9.2.1-1)
REM options -cpp -mtune=generic -march=x86-64 -g -O0 -fpre-include=/usr/include/finclude/math-vector-fortran.h
REM seed -1937764049 960978284 149004377 1937464187 -1121866845 -378235044 -1673175105 -1625927598 663790493 843035837 2106035495 537949029 1831117446 -1233459621 887464079 2090438590 739171231 -1722593096 -992886474 1579457191 1686035882 -1683490553 -2028711743 938178179 -1455927177 1889286417 1739337706 -1400512639 604178694 -1614773220 530784637 -307557606 1750884931
REM
CELL 1.54180   50.00000   50.00000   50.00000   90.00000   90.00000   90.00000
LATT -1
SFAC C  
C      1  0.5392370000000  0.4483720000000  0.5987750000000 1.0
C      1  0.5622250000000  0.5318080000000  0.3979070000000 1.0
C      1  0.4936880000000  0.3821770000000  0.5366630000000 1.0
C      1  0.4219840000000  0.4903870000000  0.5898780000000 1.0
C      1  0.6338610000000  0.5248990000000  0.4855670000000 1.0
C      1  0.5618610000000  0.5571900000000  0.4779640000000 1.0
C      1  0.5487570000000  0.3850150000000  0.4955920000000 1.0
C      1  0.4225450000000  0.4733610000000  0.5654200000000 1.0
C      1  0.5739370000000  0.5267390000000  0.5236440000000 1.0
C      1  0.4297590000000  0.5390000000000  0.4565820000000 1.0
C      1  0.4490450000000  0.4764500000000  0.4949530000000 1.0
C      1  0.5187470000000  0.4355640000000  0.4010850000000 1.0
C      1  0.4763950000000  0.4002970000000  0.5524010000000 1.0
C      1  0.4291500000000  0.5751950000000  0.5054270000000 1.0
C      1  0.5515890000000  0.4405940000000  0.5334770000000 1.0
C      1  0.4262410000000  0.5839010000000  0.5758870000000 1.0
C      1  0.4850400000000  0.6073380000000  0.4709540000000 1.0
C      1  0.5059930000000  0.4816640000000  0.4705310000000 1.0
C      1  0.4675990000000  0.4936800000000  0.5772770000000 1.0
C      1  0.4406010000000  0.5323900000000  0.6095250000000 1.0
C      1  0.4906000000000  0.4502450000000  0.6127540000000 1.0
C      1  0.4908670000000  0.5999930000000  0.5669210000000 1.0
C      1  0.5397140000000  0.3624230000000  0.5402400000000 1.0
C      1  0.5234920000000  0.5228040000000  0.6119370000000 1.0
C      1  0.5049460000000  0.5449490000000  0.6121080000000 1.0
C      1  0.4472550000000  0.3939960000000  0.4918590000000 1.0
C      1  0.4496390000000  0.5115570000000  0.3497760000000 1.0
C      1  0.4729320000000  0.5972850000000  0.4956800000000 1.0
C      1  0.5164730000000  0.4283270000000  0.5597310000000 1.0
C      1  0.4337650000000  0.5641250000000  0.4386690000000 1.0
C      1  0.6290770000000  0.5133410000000  0.5113190000000 1.0
C      1  0.4401740000000  0.5038540000000  0.6094670000000 1.0
C      1  0.5470360000000  0.4696020000000  0.3815550000000 1.0
C      1  0.4719690000000  0.5395790000000  0.5702580000000 1.0
C      1  0.6136840000000  0.5242890000000  0.4364360000000 1.0
C      1  0.6268670000000  0.5293960000000  0.4597190000000 1.0
C      1  0.5477650000000  0.4266240000000  0.4399830000000 1.0
C      1  0.6019330000000  0.4601710000000  0.5564440000000 1.0
C      1  0.5981890000000  0.4168750000000  0.5298080000000 1.0
C      1  0.5503620000000  0.5320480000000  0.6113450000000 1.0
C      1  0.4083140000000  0.4088430000000  0.4677250000000 1.0
C      1  0.5289570000000  0.5668790000000  0.4091100000000 1.0
C      1  0.5582490000000  0.6015800000000  0.5892350000000 1.0
C      1  0.5741290000000  0.5149110000000  0.4970670000000 1.0
C      1  0.5914050000000  0.4333170000000  0.5537390000000 1.0
C      1  0.4975550000000  0.5418480000000  0.4449220000000 1.0
C      1  0.4192710000000  0.5384560000000  0.5640050000000 1.0
C      1  0.3916010000000  0.5647690000000  0.5392450000000 1.0
C      1  0.4713410000000  0.4545250000000  0.5264520000000 1.0
C      1  0.4800300000000  0.5026820000000  0.5341270000000 1.0
C      1  0.4754580000000  0.5160550000000  0.3603670000000 1.0
C      1  0.5430280000000  0.4766490000000  0.6009710000000 1.0
C      1  0.5942030000000  0.4806480000000  0.5761730000000 1.0
C      1  0.4744440000000  0.5372330000000  0.3798220000000 1.0
C      1  0.5234260000000  0.4414540000000  0.5336900000000 1.0
C      1  0.4875960000000  0.5071620000000  0.4727370000000 1.0
C      1  0.5933880000000  0.4281160000000  0.4485920000000 1.0
C      1  0.5818750000000  0.4189680000000  0.5052610000000 1.0
C      1  0.4498850000000  0.4756250000000  0.4667440000000 1.0
C      1  0.4172220000000  0.4343080000000  0.5970730000000 1.0
C      1  0.4313340000000  0.4443240000000  0.5723810000000 1.0
C      1  0.5223070000000  0.5108220000000  0.5082150000000 1.0
C      1  0.3692180000000  0.5144790000000  0.5373560000000 1.0
C      1  0.4234280000000  0.4795290000000  0.5358960000000 1.0
C      1  0.4104640000000  0.5005430000000  0.3798100000000 1.0
C      1  0.4703490000000  0.5973130000000  0.4484760000000 1.0
C      1  0.6141940000000  0.4885970000000  0.5118350000000 1.0
C      1  0.4629730000000  0.5147860000000  0.5568430000000 1.0
C      1  0.3766290000000  0.4896490000000  0.5239610000000 1.0
C      1  0.5187570000000  0.5456810000000  0.3927430000000 1.0
C      1  0.4688320000000  0.4815490000000  0.5167630000000 1.0
C      1  0.4493690000000  0.4091580000000  0.5401470000000 1.0
C      1  0.5593190000000  0.4528020000000  0.4330900000000 1.0
C      1  0.4632130000000  0.5196430000000  0.4845390000000 1.0
C      1  0.5687990000000  0.4137900000000  0.4576000000000 1.0
C      1  0.4271870000000  0.5444760000000  0.3802520000000 1.0
C      1  0.4957720000000  0.5702280000000  0.6067750000000 1.0
C      1  0.4896750000000  0.5824010000000  0.5438970000000 1.0
C      1  0.4158900000000  0.5117210000000  0.4996050000000 1.0
C      1  0.4738100000000  0.4328630000000  0.5075830000000 1.0
C      1  0.5084370000000  0.6221090000000  0.4696220000000 1.0
C      1  0.5128780000000  0.5367400000000  0.4968060000000 1.0
C      1  0.5096000000000  0.5295550000000  0.4680660000000 1.0
C      1  0.5209870000000  0.4583240000000  0.3839570000000 1.0
C      1  0.4867300000000  0.5261660000000  0.4241120000000 1.0
C      1  0.4563750000000  0.5670790000000  0.4149580000000 1.0
C      1  0.5688050000000  0.4840390000000  0.5896700000000 1.0
C      1  0.3951960000000  0.5172000000000  0.3980780000000 1.0
C      1  0.5071310000000  0.4986850000000  0.5470530000000 1.0
C      1  0.5037850000000  0.4742230000000  0.5608850000000 1.0
C      1  0.5974560000000  0.5040570000000  0.4239280000000 1.0
C      1  0.4921310000000  0.5537490000000  0.5058970000000 1.0
C      1  0.5436450000000  0.4753690000000  0.4362870000000 1.0
C      1  0.4993630000000  0.3860670000000  0.5088430000000 1.0
C      1  0.5719060000000  0.4667370000000  0.4983610000000 1.0
C      1  0.4562160000000  0.4856770000000  0.4425430000000 1.0
C      1  0.4446050000000  0.5902420000000  0.4870490000000 1.0
C      1  0.5300940000000  0.4909620000000  0.4542030000000 1.0
C      1  0.4993040000000  0.4987300000000  0.3620040000000 1.0
C      1  0.4881260000000  0.5813490000000  0.5150560000000 1.0
C      1  0.4695600000000  0.5040100000000  0.4280460000000 1.0
C      1  0.4096060000000  0.5649670000000  0.5620640000000 1.0
C      1  0.4354160000000  0.5219560000000  0.5485620000000 1.0
C      1  0.6227370000000  0.5285390000000  0.5349650000000 1.0
C      1  0.5212910000000  0.4270090000000  0.4282820000000 1.0
C      1  0.4976910000000  0.4526460000000  0.4674160000000 1.0
C      1  0.5667300000000  0.4427740000000  0.5103720000000 1.0
C      1  0.5383090000000  0.6160450000000  0.5790160000000 1.0
C      1  0.4018260000000  0.4306730000000  0.4818940000000 1.0
C      1  0.5254920000000  0.5109090000000  0.3621490000000 1.0
C      1  0.4801120000000  0.4321340000000  0.5920970000000 1.0
C      1  0.5287220000000  0.5130770000000  0.5358830000000 1.0
C      1  0.4510000000000  0.5779780000000  0.5890750000000 1.0
C      1  0.5878080000000  0.4536360000000  0.4355830000000 1.0
C      1  0.4791270000000  0.5844060000000  0.4243200000000 1.0
C      1  0.4103000000000  0.4432570000000  0.5050780000000 1.0
C      1  0.5677320000000  0.4850960000000  0.3891000000000 1.0
C      1  0.4670940000000  0.5405660000000  0.5038770000000 1.0
C      1  0.4548970000000  0.5492560000000  0.5916490000000 1.0
C      1  0.5981130000000  0.4796200000000  0.4396580000000 1.0
C      1  0.4084220000000  0.5624250000000  0.4215510000000 1.0
C      1  0.6131320000000  0.5020540000000  0.5773110000000 1.0
C      1  0.3808070000000  0.4615790000000  0.5353940000000 1.0
C      1  0.4785530000000  0.5880830000000  0.5907810000000 1.0
C      1  0.5348430000000  0.6214860000000  0.4727670000000 1.0
C      1  0.5144420000000  0.3669420000000  0.5490570000000 1.0
C      1  0.5684630000000  0.4031240000000  0.4847750000000 1.0
C      1  0.4007480000000  0.4378430000000  0.5323440000000 1.0
C      1  0.4925410000000  0.4168370000000  0.5706630000000 1.0
C      1  0.5899260000000  0.4891610000000  0.4934740000000 1.0
C      1  0.4249180000000  0.4262330000000  0.5485960000000 1.0
C      1  0.4441170000000  0.5866620000000  0.4578460000000 1.0
C      1  0.3742180000000  0.5414670000000  0.5379130000000 1.0
C      1  0.4561320000000  0.4114880000000  0.5116930000000 1.0
C      1  0.4445770000000  0.5534350000000  0.5144860000000 1.0
C      1  0.5371680000000  0.5177450000000  0.4619030000000 1.0
C      1  0.4942300000000  0.5349360000000  0.3988220000000 1.0
C      1  0.4716650000000  0.4613870000000  0.3776880000000 1.0
C      1  0.5381030000000  0.5285200000000  0.3804290000000 1.0
C      1  0.5566770000000  0.5573520000000  0.4124300000000 1.0
C      1  0.5681640000000  0.5787370000000  0.5987350000000 1.0
C      1  0.4030120000000  0.5769350000000  0.5160790000000 1.0
C      1  0.5074100000000  0.5834640000000  0.4181180000000 1.0
C      1  0.5007470000000  0.4358790000000  0.4453620000000 1.0
C      1  0.4452060000000  0.4622160000000  0.3816610000000 1.0
C      1  0.5406780000000  0.4311790000000  0.5765250000000 1.0
C      1  0.6018800000000  0.4853230000000  0.4667950000000 1.0
C      1  0.3902940000000  0.4977010000000  0.4988920000000 1.0
C      1  0.5633030000000  0.4324630000000  0.5588000000000 1.0
C      1  0.4054030000000  0.5443570000000  0.3999520000000 1.0
C      1  0.4923770000000  0.4800370000000  0.6146810000000 1.0
C      1  0.4888130000000  0.5560440000000  0.5553670000000 1.0
C      1  0.5206510000000  0.3882220000000  0.4921680000000 1.0
C      1  0.4674360000000  0.4939940000000  0.6058530000000 1.0
C      1  0.5143240000000  0.4555600000000  0.5108480000000 1.0
C      1  0.4270660000000  0.4654430000000  0.5097880000000 1.0
C      1  0.4966970000000  0.4405470000000  0.4931900000000 1.0
C      1  0.5545860000000  0.3689770000000  0.5185400000000 1.0
C      1  0.5195580000000  0.4934710000000  0.6102840000000 1.0
C      1  0.4608750000000  0.4472520000000  0.5769320000000 1.0
C      1  0.5449960000000  0.5594210000000  0.5403590000000 1.0
C      1  0.5505540000000  0.5774450000000  0.5210370000000 1.0
C      1  0.4286900000000  0.3919800000000  0.4726460000000 1.0
C      1  0.5499510000000  0.5315260000000  0.5388720000000 1.0
C      1  0.5540080000000  0.6051820000000  0.4814940000000 1.0
C      1  0.5571630000000  0.5802350000000  0.4936580000000 1.0
C      1  0.5180760000000  0.4827950000000  0.4996560000000 1.0
C      1  0.5657200000000  0.5533220000000  0.6063990000000 1.0
C      1  0.5130100000000  0.6168510000000  0.5704340000000 1.0
C      1  0.4247700000000  0.5072340000000  0.5276970000000 1.0
C      1  0.4343660000000  0.5211190000000  0.4782930000000 1.0
C      1  0.4267300000000  0.5195600000000  0.3644690000000 1.0
C      1  0.4216680000000  0.4750570000000  0.3830030000000 1.0
C      1  0.6151240000000  0.4704330000000  0.5333290000000 1.0
C      1  0.5972430000000  0.5403090000000  0.5322170000000 1.0
C      1  0.5596870000000  0.5288940000000  0.4761940000000 1.0
C      1  0.6274040000000  0.5182290000000  0.5609810000000 1.0
C      1  0.4766280000000  0.4690530000000  0.5679580000000 1.0
C      1  0.4526690000000  0.5532330000000  0.3893190000000 1.0
C      1  0.5776100000000  0.5080490000000  0.4031720000000 1.0
C      1  0.4975500000000  0.4720130000000  0.3735100000000 1.0
END
