TITL C-3623289-7120-776 -20853.1690161966 125000 -1139.95778157998 0 0 188 (C1) n - 1
REM
REM in /home/nfs/bkarasulu/CARBON/AIRSS/Generating-Clusters/LCBOP/Higher-Symm/SD-CG/FIRE-CG
REM
REM
REM
REM
REM
REM ./C.cell (b20cbc046b6831c77cfcea5457e17084)
REM AIRSS Version 0.9.1 bugfix July 2018 build 013d7b7c2542+ Fri, 06 Jul 2018 19:26:36 +0100
REM compiler GCC version 9.2.1 20190827 (Red Hat 9.2.1-1)
REM options -cpp -mtune=generic -march=x86-64 -g -O0 -fpre-include=/usr/include/finclude/math-vector-fortran.h
REM seed -325611471 1021109352 -1388163549 -122500912 -108940975 -1964095948 -306668306 -1658438719 -1267619822 689239945 293893159 -457247137 821613902 875579348 1797274402 -1315188015 -721578184 -539561101 -1192707879 -1726304454 -494342605 959060622 1412119545 -1260387951 -1235929275 529200805 -1527168463 1022522413 -1042264872 995585964 -1602297405 -1347369850 2081584334
REM
CELL 1.54180   50.00000   50.00000   50.00000   90.00000   90.00000   90.00000
LATT -1
SFAC C  
C      1  0.4743290000000  0.4429340000000  0.5684740000000 1.0
C      1  0.4744160000000  0.4311580000000  0.4426720000000 1.0
C      1  0.4743530000000  0.5572980000000  0.4313760000000 1.0
C      1  0.4744470000000  0.5686540000000  0.5571280000000 1.0
C      1  0.5130850000000  0.4310630000000  0.5369430000000 1.0
C      1  0.5130160000000  0.4629960000000  0.4309430000000 1.0
C      1  0.5130970000000  0.5691040000000  0.4630090000000 1.0
C      1  0.5131410000000  0.5370030000000  0.5689710000000 1.0
C      1  0.5413860000000  0.5808500000000  0.4455990000000 1.0
C      1  0.5414190000000  0.5544100000000  0.5807650000000 1.0
C      1  0.5413440000000  0.4193020000000  0.5543790000000 1.0
C      1  0.5414120000000  0.4456810000000  0.4192000000000 1.0
C      1  0.5497130000000  0.4806020000000  0.5750270000000 1.0
C      1  0.5497440000000  0.4249870000000  0.4805570000000 1.0
C      1  0.5497320000000  0.5195610000000  0.4249140000000 1.0
C      1  0.5498400000000  0.5751450000000  0.5194400000000 1.0
C      1  0.6212120000000  0.5512670000000  0.5068210000000 1.0
C      1  0.6211990000000  0.4931780000000  0.5514350000000 1.0
C      1  0.6212510000000  0.4488600000000  0.4934490000000 1.0
C      1  0.6211300000000  0.5067150000000  0.4487590000000 1.0
C      1  0.4932180000000  0.4228970000000  0.5770150000000 1.0
C      1  0.4934110000000  0.4228410000000  0.4226580000000 1.0
C      1  0.4932840000000  0.5773260000000  0.4229150000000 1.0
C      1  0.4933480000000  0.5771180000000  0.5771820000000 1.0
C      1  0.5371220000000  0.4936020000000  0.6200450000000 1.0
C      1  0.5372130000000  0.3799860000000  0.4935700000000 1.0
C      1  0.5370980000000  0.5065090000000  0.3799550000000 1.0
C      1  0.5372260000000  0.6201380000000  0.5064350000000 1.0
C      1  0.5865380000000  0.4556720000000  0.5262340000000 1.0
C      1  0.5865560000000  0.4737580000000  0.4555940000000 1.0
C      1  0.5866750000000  0.5444930000000  0.4738080000000 1.0
C      1  0.5867110000000  0.5260880000000  0.5442640000000 1.0
C      1  0.5167340000000  0.4157670000000  0.4397850000000 1.0
C      1  0.5166150000000  0.5602480000000  0.4157600000000 1.0
C      1  0.5167030000000  0.5842770000000  0.5601370000000 1.0
C      1  0.5165670000000  0.4399430000000  0.5841830000000 1.0
C      1  0.5354180000000  0.4860400000000  0.4694860000000 1.0
C      1  0.5355310000000  0.5304980000000  0.4859370000000 1.0
C      1  0.5355210000000  0.5140410000000  0.5303650000000 1.0
C      1  0.5354170000000  0.4696130000000  0.5139080000000 1.0
C      1  0.4415170000000  0.5602410000000  0.5978590000000 1.0
C      1  0.4414310000000  0.4021570000000  0.5601540000000 1.0
C      1  0.4415720000000  0.4397990000000  0.4019580000000 1.0
C      1  0.4415050000000  0.5980540000000  0.4398600000000 1.0
C      1  0.5241620000000  0.5319140000000  0.5117330000000 1.0
C      1  0.5240650000000  0.4882790000000  0.5317500000000 1.0
C      1  0.5240010000000  0.4682020000000  0.4881200000000 1.0
C      1  0.5240940000000  0.5118640000000  0.4681200000000 1.0
C      1  0.3881080000000  0.4942060000000  0.5212700000000 1.0
C      1  0.3878480000000  0.4776910000000  0.4930770000000 1.0
C      1  0.3879790000000  0.5073810000000  0.4793970000000 1.0
C      1  0.3881760000000  0.5210090000000  0.5066950000000 1.0
C      1  0.4913260000000  0.5617810000000  0.6038020000000 1.0
C      1  0.4912510000000  0.3962410000000  0.5617340000000 1.0
C      1  0.4913900000000  0.4382720000000  0.3960850000000 1.0
C      1  0.4913190000000  0.6039490000000  0.4382600000000 1.0
C      1  0.4581290000000  0.6040430000000  0.4809460000000 1.0
C      1  0.4580760000000  0.5191280000000  0.6038530000000 1.0
C      1  0.4580600000000  0.3960500000000  0.5190750000000 1.0
C      1  0.4581110000000  0.4809330000000  0.3962020000000 1.0
C      1  0.4470390000000  0.5189270000000  0.5758130000000 1.0
C      1  0.4470210000000  0.4240780000000  0.5188160000000 1.0
C      1  0.4470370000000  0.4810460000000  0.4242450000000 1.0
C      1  0.4470690000000  0.5760150000000  0.4811770000000 1.0
C      1  0.6317280000000  0.5324560000000  0.5252540000000 1.0
C      1  0.6317180000000  0.4742240000000  0.5331940000000 1.0
C      1  0.6315850000000  0.4674500000000  0.4747430000000 1.0
C      1  0.6315790000000  0.5251620000000  0.4675700000000 1.0
C      1  0.4062840000000  0.5571400000000  0.5344110000000 1.0
C      1  0.4062090000000  0.4656820000000  0.5567760000000 1.0
C      1  0.4059760000000  0.4420740000000  0.4651500000000 1.0
C      1  0.4061320000000  0.5346770000000  0.4430420000000 1.0
C      1  0.5610240000000  0.5400050000000  0.4791930000000 1.0
C      1  0.5610500000000  0.5206900000000  0.5398490000000 1.0
C      1  0.5609330000000  0.4601310000000  0.5206150000000 1.0
C      1  0.5609200000000  0.4792870000000  0.4599980000000 1.0
C      1  0.3621190000000  0.4844080000000  0.4166800000000 1.0
C      1  0.3617320000000  0.5839100000000  0.4848150000000 1.0
C      1  0.3622740000000  0.5151830000000  0.5846520000000 1.0
C      1  0.3628910000000  0.4145220000000  0.5155650000000 1.0
C      1  0.6137330000000  0.4802820000000  0.4562530000000 1.0
C      1  0.6138390000000  0.5437610000000  0.4803910000000 1.0
C      1  0.6138920000000  0.5195200000000  0.5436670000000 1.0
C      1  0.6137640000000  0.4561790000000  0.5198900000000 1.0
C      1  0.4443700000000  0.4808100000000  0.4871800000000 1.0
C      1  0.4452930000000  0.5123660000000  0.4817200000000 1.0
C      1  0.4459800000000  0.5180890000000  0.5113040000000 1.0
C      1  0.4453730000000  0.4888110000000  0.5182040000000 1.0
C      1  0.4903270000000  0.5013370000000  0.4330660000000 1.0
C      1  0.4904120000000  0.5671350000000  0.5013340000000 1.0
C      1  0.4903430000000  0.4987390000000  0.5669610000000 1.0
C      1  0.4903530000000  0.4329960000000  0.4986770000000 1.0
C      1  0.5532240000000  0.5157290000000  0.6085620000000 1.0
C      1  0.5532600000000  0.3915010000000  0.5157250000000 1.0
C      1  0.5532250000000  0.4843960000000  0.3914340000000 1.0
C      1  0.5532900000000  0.6086430000000  0.4842790000000 1.0
C      1  0.4275980000000  0.4484170000000  0.5614090000000 1.0
C      1  0.4276330000000  0.4380040000000  0.4481010000000 1.0
C      1  0.4276130000000  0.5518360000000  0.4384780000000 1.0
C      1  0.4277210000000  0.5616510000000  0.5516210000000 1.0
C      1  0.5056710000000  0.5850050000000  0.4858620000000 1.0
C      1  0.5056370000000  0.5141640000000  0.5848470000000 1.0
C      1  0.5056510000000  0.4151360000000  0.5141150000000 1.0
C      1  0.5055810000000  0.4858980000000  0.4151500000000 1.0
C      1  0.6527130000000  0.4832970000000  0.4853890000000 1.0
C      1  0.6524180000000  0.5138940000000  0.4835280000000 1.0
C      1  0.6527680000000  0.5168830000000  0.5140110000000 1.0
C      1  0.6534120000000  0.4842570000000  0.5182630000000 1.0
C      1  0.4501920000000  0.6021750000000  0.5297650000000 1.0
C      1  0.4500520000000  0.4703210000000  0.6019510000000 1.0
C      1  0.4501930000000  0.3977210000000  0.4702040000000 1.0
C      1  0.4500340000000  0.5297650000000  0.3980450000000 1.0
C      1  0.4654570000000  0.4522500000000  0.3910160000000 1.0
C      1  0.4654050000000  0.6090940000000  0.4522180000000 1.0
C      1  0.4653900000000  0.5478480000000  0.6089190000000 1.0
C      1  0.4653250000000  0.3910650000000  0.5478200000000 1.0
C      1  0.5062510000000  0.4467590000000  0.4777240000000 1.0
C      1  0.5062890000000  0.5222970000000  0.4467590000000 1.0
C      1  0.5064150000000  0.5533000000000  0.5221850000000 1.0
C      1  0.5062800000000  0.4778610000000  0.5531230000000 1.0
C      1  0.4627740000000  0.4399600000000  0.5006490000000 1.0
C      1  0.4627370000000  0.4993270000000  0.4401500000000 1.0
C      1  0.4628190000000  0.5601320000000  0.4993740000000 1.0
C      1  0.4627810000000  0.5007070000000  0.5599430000000 1.0
C      1  0.4882810000000  0.6249680000000  0.5099300000000 1.0
C      1  0.4881710000000  0.4900860000000  0.6247730000000 1.0
C      1  0.4882720000000  0.3750910000000  0.4901700000000 1.0
C      1  0.4881450000000  0.5100030000000  0.3752410000000 1.0
C      1  0.5240870000000  0.5331350000000  0.4256960000000 1.0
C      1  0.5242060000000  0.5743540000000  0.5330290000000 1.0
C      1  0.5240760000000  0.4670260000000  0.5742090000000 1.0
C      1  0.5241310000000  0.4257250000000  0.4669170000000 1.0
C      1  0.4595640000000  0.5192630000000  0.4600730000000 1.0
C      1  0.4597070000000  0.5399330000000  0.5190360000000 1.0
C      1  0.4594940000000  0.4810650000000  0.5397630000000 1.0
C      1  0.4593800000000  0.4596950000000  0.4806920000000 1.0
C      1  0.4498680000000  0.4201670000000  0.4528440000000 1.0
C      1  0.4497560000000  0.5470790000000  0.4205270000000 1.0
C      1  0.4498840000000  0.5795820000000  0.5469370000000 1.0
C      1  0.4497460000000  0.4531340000000  0.5793670000000 1.0
C      1  0.4623800000000  0.3854830000000  0.4929600000000 1.0
C      1  0.4622920000000  0.5071030000000  0.3857060000000 1.0
C      1  0.4624030000000  0.6145530000000  0.5070930000000 1.0
C      1  0.4623020000000  0.4929660000000  0.6143460000000 1.0
C      1  0.5484910000000  0.5342640000000  0.3805700000000 1.0
C      1  0.5486280000000  0.6194640000000  0.5341910000000 1.0
C      1  0.5484950000000  0.4658550000000  0.6194110000000 1.0
C      1  0.5486540000000  0.3806660000000  0.4658260000000 1.0
C      1  0.5558280000000  0.5577250000000  0.3948170000000 1.0
C      1  0.5559330000000  0.6051920000000  0.5576530000000 1.0
C      1  0.5557750000000  0.4423950000000  0.6051550000000 1.0
C      1  0.5560020000000  0.3949480000000  0.4423800000000 1.0
C      1  0.4873860000000  0.4573010000000  0.5455970000000 1.0
C      1  0.4873310000000  0.4541170000000  0.4570930000000 1.0
C      1  0.4874010000000  0.5428940000000  0.4542690000000 1.0
C      1  0.4874990000000  0.5457570000000  0.5427430000000 1.0
C      1  0.5105430000000  0.3890110000000  0.5003150000000 1.0
C      1  0.5104510000000  0.4997480000000  0.3890380000000 1.0
C      1  0.5105580000000  0.6111200000000  0.4996870000000 1.0
C      1  0.5104720000000  0.5003400000000  0.6109710000000 1.0
C      1  0.3737200000000  0.5665660000000  0.5001340000000 1.0
C      1  0.3740220000000  0.5000790000000  0.5669590000000 1.0
C      1  0.3742960000000  0.4321100000000  0.5000810000000 1.0
C      1  0.3738880000000  0.5000250000000  0.4339060000000 1.0
C      1  0.4326500000000  0.5743970000000  0.4550030000000 1.0
C      1  0.4326730000000  0.5451170000000  0.5741880000000 1.0
C      1  0.4325820000000  0.4257880000000  0.5449580000000 1.0
C      1  0.4326820000000  0.4547760000000  0.4257150000000 1.0
C      1  0.5419160000000  0.6073320000000  0.4570530000000 1.0
C      1  0.5418990000000  0.5429640000000  0.6072470000000 1.0
C      1  0.5418640000000  0.3928140000000  0.5429450000000 1.0
C      1  0.5419270000000  0.4571540000000  0.3927370000000 1.0
C      1  0.5427980000000  0.5827690000000  0.5724000000000 1.0
C      1  0.5426620000000  0.4276690000000  0.5827280000000 1.0
C      1  0.5428560000000  0.4173380000000  0.4275940000000 1.0
C      1  0.5427260000000  0.5724820000000  0.4172440000000 1.0
C      1  0.5159790000000  0.6180510000000  0.4467410000000 1.0
C      1  0.5159600000000  0.5532910000000  0.6179320000000 1.0
C      1  0.5159100000000  0.3821240000000  0.5532590000000 1.0
C      1  0.5160250000000  0.4468080000000  0.3819900000000 1.0
C      1  0.5635120000000  0.5020620000000  0.5852660000000 1.0
C      1  0.5635350000000  0.4148010000000  0.5020530000000 1.0
C      1  0.5635330000000  0.4980860000000  0.4147050000000 1.0
C      1  0.5636040000000  0.5853580000000  0.4979430000000 1.0
C      1  0.3893450000000  0.4863490000000  0.5479760000000 1.0
C      1  0.3892270000000  0.4510270000000  0.4858440000000 1.0
C      1  0.3892220000000  0.5143200000000  0.4524520000000 1.0
C      1  0.3892920000000  0.5479360000000  0.5140520000000 1.0
END
