TITL C-3623286-7563-1980 -6.35159976307928e-07 125000 -416.595250328942 0 0 69 (C1) n - 1
REM
REM in /home/nfs/bkarasulu/CARBON/AIRSS/Generating-Clusters/LCBOP/Higher-Symm/SD-CG/FIRE-CG
REM
REM
REM
REM
REM
REM ./C.cell (b20cbc046b6831c77cfcea5457e17084)
REM AIRSS Version 0.9.1 bugfix July 2018 build 013d7b7c2542+ Fri, 06 Jul 2018 19:26:36 +0100
REM compiler GCC version 9.2.1 20190827 (Red Hat 9.2.1-1)
REM options -cpp -mtune=generic -march=x86-64 -g -O0 -fpre-include=/usr/include/finclude/math-vector-fortran.h
REM seed -1713212384 -84786927 511521332 417663667 -428426729 -604862149 -226661706 -725967781 2132593846 229110134 2044531687 -1539387700 1502558490 -733890237 -1482255434 1793108126 1346296134 -1651461646 -531820138 -856756822 -249571954 182121342 1365344423 -1300138383 -402964322 373579639 -1206308622 -709965721 417084719 -1227473964 -1531907489 -178056428 1459847817
REM
CELL 1.54180   50.00000   50.00000   50.00000   90.00000   90.00000   90.00000
LATT -1
SFAC C  
C      1  0.4840530000000  0.4707460000000  0.4393470000000 1.0
C      1  0.5141610000000  0.5264860000000  0.5563880000000 1.0
C      1  0.4951510000000  0.5589580000000  0.4635860000000 1.0
C      1  0.5250380000000  0.4422240000000  0.5306700000000 1.0
C      1  0.5007920000000  0.4183270000000  0.4841580000000 1.0
C      1  0.4958830000000  0.5788120000000  0.5233250000000 1.0
C      1  0.5044040000000  0.4700900000000  0.4160260000000 1.0
C      1  0.4912230000000  0.5267170000000  0.5762400000000 1.0
C      1  0.5264200000000  0.4987010000000  0.5621950000000 1.0
C      1  0.4760010000000  0.5008210000000  0.4378360000000 1.0
C      1  0.5242800000000  0.5130420000000  0.4303120000000 1.0
C      1  0.4792860000000  0.4798640000000  0.5647630000000 1.0
C      1  0.4988840000000  0.4779640000000  0.5135590000000 1.0
C      1  0.5107350000000  0.5177050000000  0.4870970000000 1.0
C      1  0.5604060000000  0.5428060000000  0.4560400000000 1.0
C      1  0.4333600000000  0.4586780000000  0.5417250000000 1.0
C      1  0.4381270000000  0.4439390000000  0.4945150000000 1.0
C      1  0.5558290000000  0.5604230000000  0.5033850000000 1.0
C      1  0.5185850000000  0.3767730000000  0.4550060000000 1.0
C      1  0.4600950000000  0.5960400000000  0.5597880000000 1.0
C      1  0.5547450000000  0.4899980000000  0.5607040000000 1.0
C      1  0.4503320000000  0.5150980000000  0.4413980000000 1.0
C      1  0.5164520000000  0.5958470000000  0.5129360000000 1.0
C      1  0.4791520000000  0.4169680000000  0.5027150000000 1.0
C      1  0.4307110000000  0.5054720000000  0.4588940000000 1.0
C      1  0.5730490000000  0.5015660000000  0.5426150000000 1.0
C      1  0.4988600000000  0.5272940000000  0.5298840000000 1.0
C      1  0.5027920000000  0.4614740000000  0.4617620000000 1.0
C      1  0.3814170000000  0.4799600000000  0.4945180000000 1.0
C      1  0.6151990000000  0.5337950000000  0.5041210000000 1.0
C      1  0.4198950000000  0.4520310000000  0.5163650000000 1.0
C      1  0.5721450000000  0.5526200000000  0.4805730000000 1.0
C      1  0.5079030000000  0.4746070000000  0.5632520000000 1.0
C      1  0.4971140000000  0.5214400000000  0.4336330000000 1.0
C      1  0.4407890000000  0.4587210000000  0.4691980000000 1.0
C      1  0.5528930000000  0.5419120000000  0.5252880000000 1.0
C      1  0.4731600000000  0.3943340000000  0.5166990000000 1.0
C      1  0.5128850000000  0.6228780000000  0.5110200000000 1.0
C      1  0.4030310000000  0.5100050000000  0.4602350000000 1.0
C      1  0.6010940000000  0.5041410000000  0.5427970000000 1.0
C      1  0.3839370000000  0.4986260000000  0.4754300000000 1.0
C      1  0.6168680000000  0.5179230000000  0.5257360000000 1.0
C      1  0.5250770000000  0.4884630000000  0.4154810000000 1.0
C      1  0.4742670000000  0.5050380000000  0.5776920000000 1.0
C      1  0.4853420000000  0.5473300000000  0.4400740000000 1.0
C      1  0.5263700000000  0.4522970000000  0.5569700000000 1.0
C      1  0.3945640000000  0.4622950000000  0.5097570000000 1.0
C      1  0.5991150000000  0.5465080000000  0.4867950000000 1.0
C      1  0.5403690000000  0.5837500000000  0.5043400000000 1.0
C      1  0.4646870000000  0.4410320000000  0.5059860000000 1.0
C      1  0.5163130000000  0.4563810000000  0.5078920000000 1.0
C      1  0.5008620000000  0.5450520000000  0.4870800000000 1.0
C      1  0.5610950000000  0.5148440000000  0.5204410000000 1.0
C      1  0.4402910000000  0.4864970000000  0.4773170000000 1.0
C      1  0.4568500000000  0.5429250000000  0.4375890000000 1.0
C      1  0.5526560000000  0.4615180000000  0.5648380000000 1.0
C      1  0.5549010000000  0.5026450000000  0.4958540000000 1.0
C      1  0.4542440000000  0.4904170000000  0.5014380000000 1.0
C      1  0.5115950000000  0.4446050000000  0.4824350000000 1.0
C      1  0.4953280000000  0.5520340000000  0.5146550000000 1.0
C      1  0.5354950000000  0.5095020000000  0.4765480000000 1.0
C      1  0.4708020000000  0.4697280000000  0.5168310000000 1.0
C      1  0.4605410000000  0.4688750000000  0.5456300000000 1.0
C      1  0.5424670000000  0.5209600000000  0.4513340000000 1.0
C      1  0.4582940000000  0.4549620000000  0.4464580000000 1.0
C      1  0.5371940000000  0.5450630000000  0.5493350000000 1.0
C      1  0.5100800000000  0.3968590000000  0.4692650000000 1.0
C      1  0.4772310000000  0.5882890000000  0.5417490000000 1.0
C      1  0.5030300000000  0.5052930000000  0.5117150000000 1.0
END
