TITL C-3623285-6872-604 6.19940642706456e-07 125000 -378.989318695543 0 0 63 (C1) n - 1
REM
REM in /home/nfs/bkarasulu/CARBON/AIRSS/Generating-Clusters/LCBOP/Higher-Symm/SD-CG/FIRE-CG
REM
REM
REM
REM
REM
REM ./C.cell (b20cbc046b6831c77cfcea5457e17084)
REM AIRSS Version 0.9.1 bugfix July 2018 build 013d7b7c2542+ Fri, 06 Jul 2018 19:26:36 +0100
REM compiler GCC version 9.2.1 20190827 (Red Hat 9.2.1-1)
REM options -cpp -mtune=generic -march=x86-64 -g -O0 -fpre-include=/usr/include/finclude/math-vector-fortran.h
REM seed -1035180019 -1469939954 1973069427 1849054404 -954331 1995614571 -665272440 76574216 1066489098 -1978606636 745645099 -2081252062 -607398993 700943511 -1131100770 -58315051 -345547586 654412152 -1623132211 -989816616 -1982439835 1736074656 763167805 1523874237 -2058244217 24060413 -704978862 2116043428 -1075795244 -1760004871 -733027404 2132051999 1368004251
REM
CELL 1.54180   50.00000   50.00000   50.00000   90.00000   90.00000   90.00000
LATT -1
SFAC C  
C      1  0.4749670000000  0.5182620000000  0.4751030000000 1.0
C      1  0.5637350000000  0.4848630000000  0.5451510000000 1.0
C      1  0.5518480000000  0.4375230000000  0.4924940000000 1.0
C      1  0.4520000000000  0.5522230000000  0.5062390000000 1.0
C      1  0.5284300000000  0.4280300000000  0.5029270000000 1.0
C      1  0.4744180000000  0.5656230000000  0.4962940000000 1.0
C      1  0.4374750000000  0.5020850000000  0.5032930000000 1.0
C      1  0.5698190000000  0.4833950000000  0.4873930000000 1.0
C      1  0.4959670000000  0.5348950000000  0.5200670000000 1.0
C      1  0.5045490000000  0.4537310000000  0.4733420000000 1.0
C      1  0.5351250000000  0.5182070000000  0.4970540000000 1.0
C      1  0.4568800000000  0.4547880000000  0.4871760000000 1.0
C      1  0.4920110000000  0.5151410000000  0.4511580000000 1.0
C      1  0.5361170000000  0.4762120000000  0.5475070000000 1.0
C      1  0.4880410000000  0.4496060000000  0.4505030000000 1.0
C      1  0.5000920000000  0.5404080000000  0.5474470000000 1.0
C      1  0.4033050000000  0.5522600000000  0.4676960000000 1.0
C      1  0.5494420000000  0.5502980000000  0.5456350000000 1.0
C      1  0.5028040000000  0.4558060000000  0.4267650000000 1.0
C      1  0.4803420000000  0.5326920000000  0.5658270000000 1.0
C      1  0.4429350000000  0.4741700000000  0.5048320000000 1.0
C      1  0.5594890000000  0.5093440000000  0.4837630000000 1.0
C      1  0.4416630000000  0.5052370000000  0.5615160000000 1.0
C      1  0.5505590000000  0.4799840000000  0.4310860000000 1.0
C      1  0.5045600000000  0.4796440000000  0.5871610000000 1.0
C      1  0.4913590000000  0.5136970000000  0.4026610000000 1.0
C      1  0.5243480000000  0.5504680000000  0.5588640000000 1.0
C      1  0.4604870000000  0.4534160000000  0.4583910000000 1.0
C      1  0.5206920000000  0.4806700000000  0.4255160000000 1.0
C      1  0.4658150000000  0.5106550000000  0.5753280000000 1.0
C      1  0.5393500000000  0.5261990000000  0.5985570000000 1.0
C      1  0.4375610000000  0.4887260000000  0.4294980000000 1.0
C      1  0.4389680000000  0.5280360000000  0.5164000000000 1.0
C      1  0.5634510000000  0.4579200000000  0.4762900000000 1.0
C      1  0.5685810000000  0.5075680000000  0.5623870000000 1.0
C      1  0.4483360000000  0.5236130000000  0.4620100000000 1.0
C      1  0.5023370000000  0.4365590000000  0.4956870000000 1.0
C      1  0.5016160000000  0.5559350000000  0.4999080000000 1.0
C      1  0.4420690000000  0.4645500000000  0.4404040000000 1.0
C      1  0.5270450000000  0.5475750000000  0.5872050000000 1.0
C      1  0.4498870000000  0.5134550000000  0.4345300000000 1.0
C      1  0.5485000000000  0.5037590000000  0.5840610000000 1.0
C      1  0.4883240000000  0.5128560000000  0.5018580000000 1.0
C      1  0.5134830000000  0.4801200000000  0.4758100000000 1.0
C      1  0.5114520000000  0.4950940000000  0.4516470000000 1.0
C      1  0.5192060000000  0.4802150000000  0.5255960000000 1.0
C      1  0.4450330000000  0.4630790000000  0.5321710000000 1.0
C      1  0.5594150000000  0.5236510000000  0.4578640000000 1.0
C      1  0.4325090000000  0.5257400000000  0.5440070000000 1.0
C      1  0.5603910000000  0.4589240000000  0.4478370000000 1.0
C      1  0.4636890000000  0.4413000000000  0.5311270000000 1.0
C      1  0.5422440000000  0.5472020000000  0.4624070000000 1.0
C      1  0.5699630000000  0.5331910000000  0.5504990000000 1.0
C      1  0.4257610000000  0.5389970000000  0.4676210000000 1.0
C      1  0.5128780000000  0.4970610000000  0.4019510000000 1.0
C      1  0.4802930000000  0.4907690000000  0.5888110000000 1.0
C      1  0.5616700000000  0.5063920000000  0.4353790000000 1.0
C      1  0.4367310000000  0.4784850000000  0.5539480000000 1.0
C      1  0.4752480000000  0.4379370000000  0.5048920000000 1.0
C      1  0.5257880000000  0.5454040000000  0.4866290000000 1.0
C      1  0.4769900000000  0.5182260000000  0.4262570000000 1.0
C      1  0.5293770000000  0.4834270000000  0.5750870000000 1.0
C      1  0.5139870000000  0.4958990000000  0.5010010000000 1.0
END
