TITL C-3623285-6872-1109 26730.1845443736 125000 -944.013985034223 0 0 155 (C1) n - 1
REM
REM in /home/nfs/bkarasulu/CARBON/AIRSS/Generating-Clusters/LCBOP/Higher-Symm/SD-CG/FIRE-CG
REM
REM
REM
REM
REM
REM ./C.cell (b20cbc046b6831c77cfcea5457e17084)
REM AIRSS Version 0.9.1 bugfix July 2018 build 013d7b7c2542+ Fri, 06 Jul 2018 19:26:36 +0100
REM compiler GCC version 9.2.1 20190827 (Red Hat 9.2.1-1)
REM options -cpp -mtune=generic -march=x86-64 -g -O0 -fpre-include=/usr/include/finclude/math-vector-fortran.h
REM seed 1775730101 1011464170 -1799823645 461494063 -1524286608 -906382013 -29513192 1662290187 -1199917988 -1100027511 133882812 -1900255529 -171735794 1192256845 1910761937 -1280714992 -1608030807 2110592636 -1828028892 -743921626 -360803577 560237573 -1444646359 -16522344 582466459 393796470 261375937 1569659903 -505709452 -820663894 991528279 -527965745 847908790
REM
CELL 1.54180   50.00000   50.00000   50.00000   90.00000   90.00000   90.00000
LATT -1
SFAC C  
C      1  0.5454820000000  0.5408610000000  0.4193940000000 1.0
C      1  0.4218760000000  0.5499020000000  0.5418680000000 1.0
C      1  0.5401800000000  0.4190990000000  0.5519390000000 1.0
C      1  0.4555910000000  0.5404170000000  0.5780290000000 1.0
C      1  0.5469440000000  0.4601330000000  0.5827370000000 1.0
C      1  0.4660220000000  0.4659290000000  0.4224300000000 1.0
C      1  0.5753050000000  0.5458820000000  0.4595830000000 1.0
C      1  0.4235530000000  0.4488800000000  0.4602430000000 1.0
C      1  0.5751100000000  0.4542760000000  0.5412740000000 1.0
C      1  0.4605650000000  0.4131350000000  0.4501720000000 1.0
C      1  0.5404530000000  0.5818430000000  0.4502730000000 1.0
C      1  0.4601660000000  0.5835950000000  0.5514450000000 1.0
C      1  0.4981380000000  0.4285120000000  0.5331320000000 1.0
C      1  0.5278520000000  0.4945280000000  0.4261090000000 1.0
C      1  0.4342680000000  0.5331890000000  0.4982010000000 1.0
C      1  0.5023630000000  0.4301180000000  0.4646210000000 1.0
C      1  0.4959430000000  0.5740220000000  0.4665380000000 1.0
C      1  0.5043440000000  0.5754380000000  0.5363240000000 1.0
C      1  0.4689700000000  0.4962320000000  0.5546460000000 1.0
C      1  0.5327550000000  0.5069720000000  0.5774010000000 1.0
C      1  0.4704950000000  0.5100460000000  0.4300450000000 1.0
C      1  0.5633950000000  0.5289630000000  0.5042090000000 1.0
C      1  0.4233040000000  0.4613580000000  0.5074130000000 1.0
C      1  0.5691510000000  0.4676480000000  0.4935280000000 1.0
C      1  0.4202280000000  0.4767380000000  0.5545550000000 1.0
C      1  0.5492120000000  0.4237150000000  0.4797120000000 1.0
C      1  0.4767070000000  0.5600860000000  0.4197190000000 1.0
C      1  0.5729420000000  0.4765530000000  0.4456850000000 1.0
C      1  0.4280000000000  0.5214990000000  0.4502100000000 1.0
C      1  0.5765050000000  0.5236150000000  0.5550050000000 1.0
C      1  0.4503750000000  0.4216650000000  0.5222330000000 1.0
C      1  0.5533670000000  0.5788130000000  0.5221120000000 1.0
C      1  0.4477770000000  0.5802260000000  0.4796930000000 1.0
C      1  0.5251130000000  0.5597690000000  0.5837030000000 1.0
C      1  0.4751350000000  0.4455900000000  0.5787660000000 1.0
C      1  0.5240850000000  0.4423020000000  0.4183430000000 1.0
C      1  0.5366920000000  0.5183100000000  0.4934220000000 1.0
C      1  0.4907690000000  0.5507180000000  0.5329790000000 1.0
C      1  0.5199180000000  0.4929180000000  0.5539360000000 1.0
C      1  0.4555480000000  0.5247570000000  0.5157400000000 1.0
C      1  0.5250330000000  0.4957590000000  0.5090960000000 1.0
C      1  0.4781910000000  0.4861920000000  0.4984750000000 1.0
C      1  0.5098450000000  0.5496290000000  0.4707920000000 1.0
C      1  0.4835110000000  0.4510760000000  0.4697830000000 1.0
C      1  0.5144750000000  0.4517860000000  0.5281420000000 1.0
C      1  0.4860980000000  0.4954200000000  0.4534600000000 1.0
C      1  0.5148840000000  0.5060830000000  0.4510310000000 1.0
C      1  0.4948270000000  0.5073100000000  0.5439640000000 1.0
C      1  0.4817760000000  0.4534860000000  0.4017580000000 1.0
C      1  0.4129570000000  0.4758640000000  0.4560820000000 1.0
C      1  0.4583110000000  0.4026620000000  0.4777340000000 1.0
C      1  0.5206780000000  0.4545780000000  0.5955670000000 1.0
C      1  0.4787290000000  0.5469570000000  0.5942640000000 1.0
C      1  0.5213950000000  0.5485630000000  0.4045080000000 1.0
C      1  0.5903210000000  0.4783760000000  0.5462280000000 1.0
C      1  0.4086670000000  0.5238880000000  0.5459750000000 1.0
C      1  0.5890290000000  0.5210820000000  0.4539870000000 1.0
C      1  0.5448980000000  0.4067760000000  0.5255040000000 1.0
C      1  0.4556340000000  0.5956590000000  0.5248990000000 1.0
C      1  0.5455950000000  0.5933590000000  0.4767270000000 1.0
C      1  0.4886200000000  0.4178620000000  0.4404650000000 1.0
C      1  0.4499610000000  0.4898700000000  0.4233340000000 1.0
C      1  0.4251890000000  0.4410190000000  0.4877270000000 1.0
C      1  0.5112230000000  0.4196420000000  0.5589640000000 1.0
C      1  0.4891240000000  0.5844950000000  0.5605120000000 1.0
C      1  0.5118650000000  0.5834440000000  0.4423670000000 1.0
C      1  0.5556690000000  0.4887880000000  0.5819490000000 1.0
C      1  0.4494940000000  0.5123400000000  0.5730440000000 1.0
C      1  0.5513900000000  0.5120320000000  0.4211380000000 1.0
C      1  0.5716760000000  0.4472800000000  0.5137210000000 1.0
C      1  0.4243500000000  0.5568520000000  0.5135900000000 1.0
C      1  0.5721880000000  0.5516800000000  0.4876420000000 1.0
C      1  0.6099150000000  0.4880800000000  0.5262610000000 1.0
C      1  0.5271250000000  0.6140610000000  0.4876680000000 1.0
C      1  0.4875500000000  0.5270210000000  0.6141480000000 1.0
C      1  0.3920610000000  0.4867030000000  0.4744120000000 1.0
C      1  0.6091100000000  0.5107720000000  0.4731040000000 1.0
C      1  0.3895010000000  0.5140310000000  0.5254870000000 1.0
C      1  0.4751260000000  0.6153660000000  0.5139190000000 1.0
C      1  0.5274370000000  0.3854500000000  0.5156610000000 1.0
C      1  0.4773710000000  0.3833550000000  0.4884080000000 1.0
C      1  0.5102300000000  0.5292340000000  0.3842850000000 1.0
C      1  0.4926130000000  0.4730490000000  0.3819680000000 1.0
C      1  0.5092340000000  0.4738820000000  0.6147950000000 1.0
C      1  0.5392510000000  0.5031870000000  0.4688220000000 1.0
C      1  0.4749070000000  0.5460280000000  0.5110420000000 1.0
C      1  0.5085000000000  0.4667940000000  0.5516540000000 1.0
C      1  0.4517640000000  0.4992130000000  0.5290350000000 1.0
C      1  0.5410150000000  0.4984450000000  0.5332690000000 1.0
C      1  0.4672710000000  0.5017250000000  0.4765460000000 1.0
C      1  0.5218390000000  0.5444840000000  0.4949000000000 1.0
C      1  0.4764420000000  0.4572740000000  0.4968090000000 1.0
C      1  0.5233210000000  0.4595000000000  0.5027570000000 1.0
C      1  0.4855550000000  0.4679900000000  0.4456750000000 1.0
C      1  0.5066740000000  0.5338200000000  0.4482840000000 1.0
C      1  0.5014250000000  0.5335010000000  0.5518040000000 1.0
C      1  0.4974360000000  0.4306490000000  0.4148790000000 1.0
C      1  0.4260920000000  0.4949960000000  0.4384660000000 1.0
C      1  0.4400560000000  0.4173950000000  0.4956830000000 1.0
C      1  0.5021490000000  0.4345540000000  0.5827730000000 1.0
C      1  0.4970460000000  0.5691090000000  0.5846850000000 1.0
C      1  0.5038620000000  0.5704440000000  0.4168990000000 1.0
C      1  0.5793530000000  0.4968340000000  0.5663700000000 1.0
C      1  0.4217640000000  0.5045880000000  0.5642690000000 1.0
C      1  0.5757900000000  0.5031520000000  0.4348390000000 1.0
C      1  0.5602070000000  0.4219820000000  0.5061800000000 1.0
C      1  0.4369390000000  0.5819600000000  0.5063430000000 1.0
C      1  0.5630720000000  0.5781750000000  0.4950780000000 1.0
C      1  0.4702790000000  0.3567750000000  0.4861550000000 1.0
C      1  0.4954450000000  0.4637810000000  0.3560170000000 1.0
C      1  0.3659430000000  0.4823390000000  0.4661400000000 1.0
C      1  0.5357030000000  0.3595660000000  0.5203960000000 1.0
C      1  0.4675800000000  0.6419290000000  0.5165760000000 1.0
C      1  0.5361950000000  0.6401760000000  0.4853870000000 1.0
C      1  0.5103570000000  0.4661760000000  0.6413620000000 1.0
C      1  0.4868760000000  0.5353720000000  0.6405170000000 1.0
C      1  0.5084220000000  0.5396520000000  0.3585300000000 1.0
C      1  0.6364950000000  0.4855040000000  0.5336270000000 1.0
C      1  0.3627280000000  0.5171820000000  0.5319100000000 1.0
C      1  0.6353030000000  0.5112820000000  0.4641160000000 1.0
C      1  0.4802070000000  0.4684830000000  0.5623390000000 1.0
C      1  0.5589300000000  0.4811060000000  0.4704960000000 1.0
C      1  0.4735690000000  0.5695320000000  0.4840570000000 1.0
C      1  0.5184300000000  0.4682820000000  0.4269200000000 1.0
C      1  0.4825060000000  0.5350410000000  0.4314700000000 1.0
C      1  0.5219930000000  0.5335210000000  0.5729820000000 1.0
C      1  0.4313390000000  0.4788500000000  0.5276500000000 1.0
C      1  0.5623120000000  0.5183410000000  0.5308280000000 1.0
C      1  0.4426880000000  0.5193950000000  0.4744560000000 1.0
C      1  0.5267660000000  0.5703450000000  0.5190160000000 1.0
C      1  0.4748350000000  0.4356920000000  0.5180230000000 1.0
C      1  0.5248600000000  0.4386200000000  0.4810350000000 1.0
C      1  0.4503110000000  0.4343840000000  0.5782140000000 1.0
C      1  0.5751750000000  0.4510710000000  0.4362070000000 1.0
C      1  0.4360250000000  0.5776530000000  0.4550910000000 1.0
C      1  0.5483940000000  0.4309670000000  0.4231850000000 1.0
C      1  0.4513930000000  0.5695810000000  0.4237480000000 1.0
C      1  0.5496000000000  0.5711960000000  0.5788720000000 1.0
C      1  0.4215900000000  0.4516600000000  0.5657130000000 1.0
C      1  0.5767840000000  0.5491770000000  0.5648750000000 1.0
C      1  0.4257590000000  0.5466410000000  0.4390870000000 1.0
C      1  0.5651100000000  0.5779430000000  0.5467990000000 1.0
C      1  0.4373280000000  0.4231740000000  0.5464200000000 1.0
C      1  0.5617290000000  0.4216960000000  0.4553610000000 1.0
C      1  0.5026010000000  0.3888430000000  0.5012920000000 1.0
C      1  0.6052640000000  0.5000590000000  0.5000090000000 1.0
C      1  0.5009320000000  0.6110070000000  0.5006020000000 1.0
C      1  0.4968820000000  0.4997870000000  0.6096950000000 1.0
C      1  0.3948560000000  0.5013590000000  0.4996050000000 1.0
C      1  0.5007860000000  0.5012140000000  0.3867210000000 1.0
C      1  0.5559910000000  0.5581290000000  0.4410080000000 1.0
C      1  0.4436890000000  0.5599540000000  0.5595130000000 1.0
C      1  0.5564590000000  0.4425360000000  0.5607980000000 1.0
C      1  0.4384950000000  0.4308440000000  0.4433770000000 1.0
C      1  0.4967270000000  0.4995600000000  0.5147970000000 1.0
END
