TITL C-3623289-7120-969 -2.5879489109702e-07 125000 -18.9723641415037 0 0 4 (D(inf)h) n - 1
REM
REM in /home/nfs/bkarasulu/CARBON/AIRSS/Generating-Clusters/LCBOP/Higher-Symm/SD-CG/FIRE-CG
REM
REM
REM
REM
REM
REM ./C.cell (b20cbc046b6831c77cfcea5457e17084)
REM AIRSS Version 0.9.1 bugfix July 2018 build 013d7b7c2542+ Fri, 06 Jul 2018 19:26:36 +0100
REM compiler GCC version 9.2.1 20190827 (Red Hat 9.2.1-1)
REM options -cpp -mtune=generic -march=x86-64 -g -O0 -fpre-include=/usr/include/finclude/math-vector-fortran.h
REM seed -713102928 -699123110 -3693027 646066547 -1545636109 979711994 -1826761421 1238359274 -1696259288 1470606162 1979371297 1926726548 749142828 1720776753 -494205653 -1448170592 58854295 353590046 -1037152219 -1619620402 1598086956 -1103864348 -1444522763 17251058 654834246 765827235 -1892396904 -1243175642 1227543152 -865574153 863523086 -1027262407 -1685074330
REM
CELL 1.54180   50.00000   50.00000   50.00000   90.00000   90.00000   90.00000
LATT -1
SFAC C  
C      1  0.5018010000000  0.5021850000000  0.5132570000000 1.0
C      1  0.5018010000000  0.5021850000000  0.4867430000000 1.0
C      1  0.5018010000000  0.5021850000000  0.4606730000000 1.0
C      1  0.5018010000000  0.5021850000000  0.5393270000000 1.0
END
