TITL C-3623284-6838-795 0.165566436398449 125000 -1197.79530435785 0 0 191 (C1) n - 1
REM
REM in /home/nfs/bkarasulu/CARBON/AIRSS/Generating-Clusters/LCBOP/Higher-Symm/SD-CG/FIRE-CG
REM
REM
REM
REM
REM
REM ./C.cell (b20cbc046b6831c77cfcea5457e17084)
REM AIRSS Version 0.9.1 bugfix July 2018 build 013d7b7c2542+ Fri, 06 Jul 2018 19:26:36 +0100
REM compiler GCC version 9.2.1 20190827 (Red Hat 9.2.1-1)
REM options -cpp -mtune=generic -march=x86-64 -g -O0 -fpre-include=/usr/include/finclude/math-vector-fortran.h
REM seed 434375685 1795209125 1332087773 -274278765 -1805963811 757174509 -2072950552 1938004091 -984222104 -1640450597 -846293368 888578436 -89194302 274395292 -1148270131 77099180 1153790606 -280694369 -1768869102 -611793923 -39264236 760185124 -161288820 -172661790 1845138929 1181644883 -1731122345 1304963969 -794268975 -49675221 -1816215057 -1945058362 -576569133
REM
CELL 1.54180   50.00000   50.00000   50.00000   90.00000   90.00000   90.00000
LATT -1
SFAC C  
C      1  0.4135290000000  0.4288800000000  0.4488290000000 1.0
C      1  0.5921200000000  0.4349590000000  0.5533730000000 1.0
C      1  0.3995540000000  0.4781580000000  0.4532240000000 1.0
C      1  0.6068590000000  0.4669320000000  0.5879740000000 1.0
C      1  0.4548690000000  0.5431590000000  0.5598950000000 1.0
C      1  0.5587280000000  0.5402380000000  0.4307360000000 1.0
C      1  0.3993010000000  0.5176120000000  0.5866810000000 1.0
C      1  0.6109970000000  0.5103430000000  0.4120060000000 1.0
C      1  0.6204750000000  0.4964740000000  0.5217830000000 1.0
C      1  0.3995920000000  0.4779540000000  0.4823410000000 1.0
C      1  0.4578180000000  0.3951900000000  0.4867930000000 1.0
C      1  0.5467600000000  0.4071610000000  0.5149550000000 1.0
C      1  0.5764970000000  0.5055440000000  0.5942410000000 1.0
C      1  0.4249390000000  0.4989320000000  0.4131090000000 1.0
C      1  0.5824270000000  0.4774030000000  0.5982320000000 1.0
C      1  0.4224750000000  0.4735760000000  0.3995620000000 1.0
C      1  0.4555120000000  0.4157550000000  0.5715990000000 1.0
C      1  0.5451100000000  0.4059100000000  0.4273640000000 1.0
C      1  0.5048160000000  0.4510640000000  0.4638790000000 1.0
C      1  0.5051010000000  0.4643550000000  0.5460390000000 1.0
C      1  0.3739090000000  0.5274370000000  0.4655510000000 1.0
C      1  0.6193100000000  0.5227930000000  0.5313720000000 1.0
C      1  0.4914170000000  0.4236140000000  0.4622020000000 1.0
C      1  0.5183900000000  0.4444730000000  0.5298080000000 1.0
C      1  0.4108040000000  0.5284610000000  0.5352570000000 1.0
C      1  0.5879350000000  0.5146200000000  0.4639600000000 1.0
C      1  0.4474590000000  0.5289390000000  0.5026490000000 1.0
C      1  0.5546970000000  0.5379300000000  0.5046030000000 1.0
C      1  0.5353100000000  0.4145720000000  0.4018750000000 1.0
C      1  0.4697550000000  0.4230730000000  0.5950160000000 1.0
C      1  0.4508260000000  0.5852140000000  0.4650670000000 1.0
C      1  0.5235530000000  0.5932240000000  0.5380690000000 1.0
C      1  0.3995960000000  0.5053310000000  0.5221300000000 1.0
C      1  0.6034120000000  0.4899440000000  0.4724440000000 1.0
C      1  0.5581250000000  0.5691720000000  0.4336870000000 1.0
C      1  0.4431330000000  0.5692010000000  0.5697530000000 1.0
C      1  0.4519280000000  0.5092430000000  0.5244400000000 1.0
C      1  0.5396990000000  0.5085240000000  0.4625000000000 1.0
C      1  0.5170410000000  0.6021870000000  0.4439180000000 1.0
C      1  0.4782720000000  0.6050120000000  0.5550540000000 1.0
C      1  0.4781600000000  0.4705930000000  0.5373580000000 1.0
C      1  0.5317870000000  0.4601180000000  0.4612550000000 1.0
C      1  0.3943410000000  0.5513090000000  0.5318990000000 1.0
C      1  0.6111500000000  0.5321790000000  0.4577370000000 1.0
C      1  0.3975150000000  0.5988900000000  0.5337010000000 1.0
C      1  0.5768790000000  0.6017100000000  0.4861940000000 1.0
C      1  0.4939450000000  0.5139790000000  0.4774860000000 1.0
C      1  0.4917940000000  0.5265830000000  0.5365160000000 1.0
C      1  0.4321740000000  0.5149450000000  0.4833680000000 1.0
C      1  0.5600830000000  0.5096260000000  0.5114570000000 1.0
C      1  0.4868180000000  0.4677130000000  0.4780340000000 1.0
C      1  0.5547400000000  0.4831670000000  0.4992950000000 1.0
C      1  0.5455810000000  0.4667740000000  0.4165120000000 1.0
C      1  0.4614140000000  0.4740750000000  0.5812510000000 1.0
C      1  0.3929870000000  0.6059510000000  0.5081270000000 1.0
C      1  0.5614920000000  0.5892450000000  0.5062620000000 1.0
C      1  0.6247100000000  0.4892130000000  0.4522990000000 1.0
C      1  0.3831410000000  0.4938490000000  0.5425990000000 1.0
C      1  0.6152180000000  0.5433630000000  0.5100560000000 1.0
C      1  0.3723270000000  0.5494270000000  0.4841250000000 1.0
C      1  0.4729810000000  0.5645550000000  0.6143760000000 1.0
C      1  0.5296770000000  0.5645090000000  0.3821640000000 1.0
C      1  0.5185320000000  0.5766060000000  0.4045710000000 1.0
C      1  0.4820270000000  0.5839900000000  0.5963410000000 1.0
C      1  0.4254030000000  0.4433860000000  0.5052860000000 1.0
C      1  0.5926900000000  0.4263020000000  0.4799100000000 1.0
C      1  0.4866570000000  0.5244710000000  0.3808000000000 1.0
C      1  0.5205980000000  0.5327540000000  0.6268140000000 1.0
C      1  0.4064920000000  0.5029850000000  0.4365130000000 1.0
C      1  0.5963690000000  0.5201160000000  0.5797800000000 1.0
C      1  0.4630530000000  0.5897340000000  0.5746270000000 1.0
C      1  0.5344660000000  0.5842690000000  0.4280620000000 1.0
C      1  0.4027380000000  0.5460940000000  0.5862660000000 1.0
C      1  0.6019410000000  0.5835930000000  0.4184090000000 1.0
C      1  0.4748500000000  0.5696540000000  0.4671080000000 1.0
C      1  0.5187640000000  0.5650890000000  0.5344970000000 1.0
C      1  0.4670600000000  0.6155140000000  0.5316770000000 1.0
C      1  0.5206490000000  0.6152010000000  0.4682700000000 1.0
C      1  0.5870620000000  0.4461450000000  0.4987170000000 1.0
C      1  0.4433950000000  0.4520680000000  0.4858050000000 1.0
C      1  0.5305320000000  0.3853440000000  0.4716690000000 1.0
C      1  0.4722930000000  0.3920330000000  0.5348430000000 1.0
C      1  0.5127690000000  0.5212890000000  0.3751620000000 1.0
C      1  0.4947440000000  0.5247070000000  0.6257840000000 1.0
C      1  0.4413420000000  0.4871510000000  0.5954200000000 1.0
C      1  0.5676030000000  0.4806560000000  0.4055170000000 1.0
C      1  0.5850710000000  0.5983850000000  0.4611130000000 1.0
C      1  0.4006090000000  0.5744620000000  0.5471670000000 1.0
C      1  0.4940200000000  0.4750710000000  0.4133540000000 1.0
C      1  0.5100230000000  0.4752380000000  0.5736540000000 1.0
C      1  0.4693520000000  0.4862790000000  0.4235780000000 1.0
C      1  0.5327440000000  0.4930580000000  0.5768900000000 1.0
C      1  0.5632600000000  0.4572660000000  0.5094280000000 1.0
C      1  0.4605990000000  0.4643440000000  0.4684890000000 1.0
C      1  0.4196320000000  0.5022320000000  0.5987670000000 1.0
C      1  0.5903390000000  0.4950120000000  0.4033710000000 1.0
C      1  0.5650860000000  0.5054750000000  0.5385640000000 1.0
C      1  0.4489780000000  0.5087240000000  0.4609790000000 1.0
C      1  0.4560870000000  0.6159750000000  0.5073170000000 1.0
C      1  0.5248390000000  0.6172330000000  0.4946730000000 1.0
C      1  0.5347290000000  0.5367180000000  0.3834910000000 1.0
C      1  0.4767780000000  0.5371720000000  0.6080350000000 1.0
C      1  0.3825760000000  0.5032300000000  0.5683290000000 1.0
C      1  0.6240290000000  0.5143910000000  0.4370350000000 1.0
C      1  0.4768120000000  0.5318710000000  0.5797930000000 1.0
C      1  0.5514920000000  0.5301660000000  0.4051320000000 1.0
C      1  0.5952390000000  0.5601270000000  0.5226990000000 1.0
C      1  0.3873650000000  0.5704710000000  0.4709090000000 1.0
C      1  0.5072450000000  0.6013400000000  0.5603870000000 1.0
C      1  0.4908800000000  0.5995580000000  0.4310560000000 1.0
C      1  0.6427540000000  0.4123340000000  0.4660990000000 1.0
C      1  0.3761170000000  0.4422260000000  0.5077980000000 1.0
C      1  0.4999330000000  0.3995350000000  0.5325380000000 1.0
C      1  0.5053180000000  0.3845770000000  0.4855100000000 1.0
C      1  0.5379780000000  0.6033590000000  0.5155660000000 1.0
C      1  0.4487520000000  0.6064420000000  0.4833830000000 1.0
C      1  0.6183660000000  0.4184110000000  0.4729840000000 1.0
C      1  0.3992780000000  0.4539120000000  0.4992910000000 1.0
C      1  0.4881450000000  0.4678810000000  0.5913540000000 1.0
C      1  0.5187700000000  0.4620850000000  0.4051730000000 1.0
C      1  0.6078790000000  0.5324520000000  0.5571290000000 1.0
C      1  0.3970410000000  0.5290410000000  0.4469020000000 1.0
C      1  0.4576740000000  0.4619350000000  0.5553510000000 1.0
C      1  0.5490620000000  0.4513340000000  0.4405970000000 1.0
C      1  0.3740970000000  0.5497210000000  0.5121090000000 1.0
C      1  0.6207330000000  0.5439750000000  0.4820350000000 1.0
C      1  0.5513350000000  0.4003830000000  0.4860650000000 1.0
C      1  0.4532970000000  0.4030960000000  0.5146840000000 1.0
C      1  0.4631750000000  0.5519850000000  0.5089720000000 1.0
C      1  0.5289790000000  0.5427690000000  0.4931660000000 1.0
C      1  0.4469470000000  0.4315060000000  0.4170820000000 1.0
C      1  0.5529450000000  0.4407480000000  0.5796080000000 1.0
C      1  0.4729030000000  0.3799180000000  0.4007640000000 1.0
C      1  0.4458780000000  0.3207170000000  0.5984790000000 1.0
C      1  0.4144560000000  0.5678950000000  0.5713580000000 1.0
C      1  0.5823800000000  0.5836600000000  0.4374860000000 1.0
C      1  0.5206780000000  0.5495640000000  0.5597230000000 1.0
C      1  0.4762100000000  0.5485170000000  0.4480110000000 1.0
C      1  0.5022030000000  0.4243560000000  0.5165060000000 1.0
C      1  0.5004850000000  0.4138420000000  0.4899920000000 1.0
C      1  0.5276280000000  0.3904280000000  0.5311420000000 1.0
C      1  0.4784910000000  0.3744070000000  0.4843820000000 1.0
C      1  0.4871520000000  0.4421340000000  0.6034110000000 1.0
C      1  0.5198030000000  0.4356160000000  0.3938710000000 1.0
C      1  0.5273290000000  0.5604270000000  0.5857200000000 1.0
C      1  0.4769060000000  0.5526580000000  0.4196790000000 1.0
C      1  0.6116870000000  0.4855480000000  0.4989480000000 1.0
C      1  0.4091750000000  0.5010270000000  0.4952890000000 1.0
C      1  0.4352710000000  0.4497290000000  0.4007660000000 1.0
C      1  0.5615880000000  0.4578550000000  0.5989120000000 1.0
C      1  0.5596760000000  0.4248950000000  0.4430990000000 1.0
C      1  0.4465960000000  0.4356150000000  0.5517710000000 1.0
C      1  0.4407740000000  0.4223640000000  0.4434920000000 1.0
C      1  0.5635490000000  0.4350560000000  0.5538340000000 1.0
C      1  0.4300020000000  0.5728050000000  0.4501210000000 1.0
C      1  0.5939300000000  0.5795610000000  0.5688440000000 1.0
C      1  0.5000870000000  0.4041570000000  0.4401030000000 1.0
C      1  0.4556240000000  0.3660110000000  0.5736540000000 1.0
C      1  0.5416550000000  0.4829910000000  0.4743270000000 1.0
C      1  0.4727170000000  0.4904540000000  0.5183670000000 1.0
C      1  0.4381060000000  0.4263940000000  0.5249130000000 1.0
C      1  0.5693520000000  0.4151620000000  0.4686110000000 1.0
C      1  0.4839470000000  0.3940240000000  0.4197140000000 1.0
C      1  0.4507020000000  0.3431780000000  0.5861540000000 1.0
C      1  0.5104670000000  0.5592930000000  0.5066120000000 1.0
C      1  0.4841570000000  0.5636730000000  0.4935900000000 1.0
C      1  0.5011600000000  0.5286650000000  0.5629760000000 1.0
C      1  0.4735440000000  0.5236370000000  0.4602820000000 1.0
C      1  0.5502360000000  0.4908060000000  0.5547060000000 1.0
C      1  0.4551620000000  0.4832710000000  0.4490260000000 1.0
C      1  0.4060100000000  0.5580360000000  0.4517740000000 1.0
C      1  0.5984080000000  0.5594590000000  0.5512240000000 1.0
C      1  0.4609750000000  0.3899470000000  0.5607820000000 1.0
C      1  0.5261880000000  0.3927180000000  0.4439370000000 1.0
C      1  0.5360940000000  0.5377940000000  0.6034950000000 1.0
C      1  0.4692020000000  0.5304610000000  0.4023220000000 1.0
C      1  0.4367260000000  0.5225380000000  0.5466230000000 1.0
C      1  0.5628400000000  0.5211650000000  0.4519620000000 1.0
C      1  0.5101360000000  0.5853290000000  0.5864890000000 1.0
C      1  0.4904390000000  0.5770280000000  0.4122900000000 1.0
C      1  0.5479020000000  0.5128170000000  0.5935770000000 1.0
C      1  0.4531820000000  0.5081630000000  0.4109050000000 1.0
C      1  0.6100590000000  0.4487710000000  0.5681570000000 1.0
C      1  0.3993160000000  0.4514000000000  0.4435420000000 1.0
C      1  0.3894290000000  0.5953630000000  0.4836900000000 1.0
C      1  0.5694200000000  0.5621230000000  0.5116820000000 1.0
C      1  0.4721750000000  0.5480560000000  0.5351110000000 1.0
C      1  0.5197750000000  0.5241780000000  0.4745280000000 1.0
C      1  0.4601220000000  0.4149350000000  0.4639650000000 1.0
C      1  0.5484310000000  0.4373150000000  0.5272820000000 1.0
C      1  0.4882940000000  0.4911310000000  0.4938040000000 1.0
END
