TITL C-3623285-6872-1709 241294.958780854 125000 -760.935643332711 0 0 123 (C1) n - 1
REM
REM in /home/nfs/bkarasulu/CARBON/AIRSS/Generating-Clusters/LCBOP/Higher-Symm/SD-CG/FIRE-CG
REM
REM
REM
REM
REM
REM ./C.cell (b20cbc046b6831c77cfcea5457e17084)
REM AIRSS Version 0.9.1 bugfix July 2018 build 013d7b7c2542+ Fri, 06 Jul 2018 19:26:36 +0100
REM compiler GCC version 9.2.1 20190827 (Red Hat 9.2.1-1)
REM options -cpp -mtune=generic -march=x86-64 -g -O0 -fpre-include=/usr/include/finclude/math-vector-fortran.h
REM seed 816152068 -1727214691 1666681037 510176770 -1498398954 -1190488558 419471936 -1457505147 749672751 1259745086 2043959222 388528681 -124260895 -239971346 1249386858 -122081209 -1061422842 44704415 705851300 1262668738 1864992432 1345095080 -1268189768 1554570559 -471656883 584393522 -191675648 1543329495 -877281591 973998013 126997306 1470100884 2019342518
REM
CELL 1.54180   50.00000   50.00000   50.00000   90.00000   90.00000   90.00000
LATT -1
SFAC C  
C      1  0.5058430000000  0.5042980000000  0.6079180000000 1.0
C      1  0.5109730000000  0.5016490000000  0.3944380000000 1.0
C      1  0.4777780000000  0.5005870000000  0.6065810000000 1.0
C      1  0.4827310000000  0.5023400000000  0.3964260000000 1.0
C      1  0.5147550000000  0.5879690000000  0.5504940000000 1.0
C      1  0.5099100000000  0.4094880000000  0.4419130000000 1.0
C      1  0.4873510000000  0.5871190000000  0.5516360000000 1.0
C      1  0.4826200000000  0.4090850000000  0.4448180000000 1.0
C      1  0.4528020000000  0.5002270000000  0.5181450000000 1.0
C      1  0.4550930000000  0.4918150000000  0.4904610000000 1.0
C      1  0.5459110000000  0.5024170000000  0.5096080000000 1.0
C      1  0.5469210000000  0.4929120000000  0.4824290000000 1.0
C      1  0.4337320000000  0.5025090000000  0.5854350000000 1.0
C      1  0.4392730000000  0.4975670000000  0.4183600000000 1.0
C      1  0.5492900000000  0.5206410000000  0.6009380000000 1.0
C      1  0.5565250000000  0.4934760000000  0.4028990000000 1.0
C      1  0.5758840000000  0.4348880000000  0.5184380000000 1.0
C      1  0.5816070000000  0.5693980000000  0.4836520000000 1.0
C      1  0.4213940000000  0.4312610000000  0.5118770000000 1.0
C      1  0.4193090000000  0.5700930000000  0.4878680000000 1.0
C      1  0.4888650000000  0.4596980000000  0.5399270000000 1.0
C      1  0.4931870000000  0.5312290000000  0.4819760000000 1.0
C      1  0.5181920000000  0.4591440000000  0.5368750000000 1.0
C      1  0.5191660000000  0.5333120000000  0.4736090000000 1.0
C      1  0.5335390000000  0.4494120000000  0.4587740000000 1.0
C      1  0.5322490000000  0.5461180000000  0.5323030000000 1.0
C      1  0.4664150000000  0.4507090000000  0.4641000000000 1.0
C      1  0.4677850000000  0.5450470000000  0.5361780000000 1.0
C      1  0.4542430000000  0.5168040000000  0.6003050000000 1.0
C      1  0.4608520000000  0.4844530000000  0.4039450000000 1.0
C      1  0.5239130000000  0.5266810000000  0.6104180000000 1.0
C      1  0.5329810000000  0.4829560000000  0.3922710000000 1.0
C      1  0.4685350000000  0.4735430000000  0.5997520000000 1.0
C      1  0.4711340000000  0.5288140000000  0.4021270000000 1.0
C      1  0.5242700000000  0.4822670000000  0.5989380000000 1.0
C      1  0.5252660000000  0.5262640000000  0.4033560000000 1.0
C      1  0.5325010000000  0.5099890000000  0.4644190000000 1.0
C      1  0.5248350000000  0.4876220000000  0.5258200000000 1.0
C      1  0.4826880000000  0.5031600000000  0.4834290000000 1.0
C      1  0.4766240000000  0.4864120000000  0.5318550000000 1.0
C      1  0.4914620000000  0.6228650000000  0.4407880000000 1.0
C      1  0.4813380000000  0.3732770000000  0.5639680000000 1.0
C      1  0.5181220000000  0.6219070000000  0.4390730000000 1.0
C      1  0.5079760000000  0.3757580000000  0.5636470000000 1.0
C      1  0.5961490000000  0.5218920000000  0.4792550000000 1.0
C      1  0.5948010000000  0.4838010000000  0.5228700000000 1.0
C      1  0.4070890000000  0.5216530000000  0.4817610000000 1.0
C      1  0.4053790000000  0.4785130000000  0.5199400000000 1.0
C      1  0.5136210000000  0.5514870000000  0.3993340000000 1.0
C      1  0.5139840000000  0.4559050000000  0.5994920000000 1.0
C      1  0.4853410000000  0.5528700000000  0.3993030000000 1.0
C      1  0.4857500000000  0.4514710000000  0.6000010000000 1.0
C      1  0.4720350000000  0.4231430000000  0.4674770000000 1.0
C      1  0.4748210000000  0.5721000000000  0.5305830000000 1.0
C      1  0.5245630000000  0.4225060000000  0.4629180000000 1.0
C      1  0.5264760000000  0.5735010000000  0.5287510000000 1.0
C      1  0.4565650000000  0.4166210000000  0.5731530000000 1.0
C      1  0.4579080000000  0.5854010000000  0.4282700000000 1.0
C      1  0.5327420000000  0.4216440000000  0.5674890000000 1.0
C      1  0.5462620000000  0.5811800000000  0.4241970000000 1.0
C      1  0.5918760000000  0.4561720000000  0.5191090000000 1.0
C      1  0.5989500000000  0.5490690000000  0.4861760000000 1.0
C      1  0.4045760000000  0.4520870000000  0.5097630000000 1.0
C      1  0.4043850000000  0.5481000000000  0.4914420000000 1.0
C      1  0.5527300000000  0.5299430000000  0.5201370000000 1.0
C      1  0.5540670000000  0.4667810000000  0.4700940000000 1.0
C      1  0.4462680000000  0.5272690000000  0.5283470000000 1.0
C      1  0.4466350000000  0.4685440000000  0.4749490000000 1.0
C      1  0.4664150000000  0.5836440000000  0.4847870000000 1.0
C      1  0.4685960000000  0.4170590000000  0.5149090000000 1.0
C      1  0.5333010000000  0.5803690000000  0.4818150000000 1.0
C      1  0.5348200000000  0.4086720000000  0.5070780000000 1.0
C      1  0.5885830000000  0.4952350000000  0.5492080000000 1.0
C      1  0.5856610000000  0.5171660000000  0.4522000000000 1.0
C      1  0.4153610000000  0.4799440000000  0.5473720000000 1.0
C      1  0.4187380000000  0.5204350000000  0.4550100000000 1.0
C      1  0.4601090000000  0.3892440000000  0.5676100000000 1.0
C      1  0.4681780000000  0.6100960000000  0.4373500000000 1.0
C      1  0.5271470000000  0.3942170000000  0.5657230000000 1.0
C      1  0.5397290000000  0.6071990000000  0.4331760000000 1.0
C      1  0.4703720000000  0.5756360000000  0.4050940000000 1.0
C      1  0.4733560000000  0.4274380000000  0.5929540000000 1.0
C      1  0.5314090000000  0.5726620000000  0.4020270000000 1.0
C      1  0.5305720000000  0.4348520000000  0.5918990000000 1.0
C      1  0.4180540000000  0.5057620000000  0.5614990000000 1.0
C      1  0.4224170000000  0.4946250000000  0.4414400000000 1.0
C      1  0.5926560000000  0.5233320000000  0.5484200000000 1.0
C      1  0.5894460000000  0.4899410000000  0.4444770000000 1.0
C      1  0.4445760000000  0.4261470000000  0.5270190000000 1.0
C      1  0.4423660000000  0.5757020000000  0.4729520000000 1.0
C      1  0.5501210000000  0.4254980000000  0.5232300000000 1.0
C      1  0.5573120000000  0.5712270000000  0.4696970000000 1.0
C      1  0.5154810000000  0.4637780000000  0.4424350000000 1.0
C      1  0.5159000000000  0.5313600000000  0.5495490000000 1.0
C      1  0.4860460000000  0.4644980000000  0.4496340000000 1.0
C      1  0.4869270000000  0.5310550000000  0.5519800000000 1.0
C      1  0.5785260000000  0.4678620000000  0.4556370000000 1.0
C      1  0.5781000000000  0.5371130000000  0.5304420000000 1.0
C      1  0.4241970000000  0.4722920000000  0.4581900000000 1.0
C      1  0.4231310000000  0.5278310000000  0.5447610000000 1.0
C      1  0.4870770000000  0.4939750000000  0.4553080000000 1.0
C      1  0.4818740000000  0.5039350000000  0.5549920000000 1.0
C      1  0.5175880000000  0.4959580000000  0.4457450000000 1.0
C      1  0.5222440000000  0.5044050000000  0.5506390000000 1.0
C      1  0.4432290000000  0.4341290000000  0.5546760000000 1.0
C      1  0.4432120000000  0.5675590000000  0.4456110000000 1.0
C      1  0.5348420000000  0.4373710000000  0.5438760000000 1.0
C      1  0.5579400000000  0.5618560000000  0.4423300000000 1.0
C      1  0.5145340000000  0.4146070000000  0.4889540000000 1.0
C      1  0.5147320000000  0.5799350000000  0.5030520000000 1.0
C      1  0.4855310000000  0.4164470000000  0.4923570000000 1.0
C      1  0.4855730000000  0.5793930000000  0.5044390000000 1.0
C      1  0.5525700000000  0.5203470000000  0.4138300000000 1.0
C      1  0.5510140000000  0.4933930000000  0.5901750000000 1.0
C      1  0.4468670000000  0.5264320000000  0.4171500000000 1.0
C      1  0.4435230000000  0.4741850000000  0.5854320000000 1.0
C      1  0.4347530000000  0.5407670000000  0.4393490000000 1.0
C      1  0.4325660000000  0.4599240000000  0.5622900000000 1.0
C      1  0.5667870000000  0.5340680000000  0.4356060000000 1.0
C      1  0.5709030000000  0.4866830000000  0.5705480000000 1.0
C      1  0.4023580000000  0.5001280000000  0.5007020000000 1.0
C      1  0.5994210000000  0.5012310000000  0.4996750000000 1.0
C      1  0.4981360000000  0.4927850000000  0.5090960000000 1.0
END
