TITL C-3623283-6828-1659 2.05497772596076 125000 -149.052704377835 0 0 27 (C1) n - 1
REM
REM in /home/nfs/bkarasulu/CARBON/AIRSS/Generating-Clusters/LCBOP/Higher-Symm/SD-CG/FIRE-CG
REM
REM
REM
REM
REM
REM ./C.cell (b20cbc046b6831c77cfcea5457e17084)
REM AIRSS Version 0.9.1 bugfix July 2018 build 013d7b7c2542+ Fri, 06 Jul 2018 19:26:36 +0100
REM compiler GCC version 9.2.1 20190827 (Red Hat 9.2.1-1)
REM options -cpp -mtune=generic -march=x86-64 -g -O0 -fpre-include=/usr/include/finclude/math-vector-fortran.h
REM seed 212619416 838934880 454594437 1763007402 2051227818 -2003689732 -400277870 -1696606874 -904446573 460555332 -1057001758 722071825 -199578670 -550012758 -1073301200 -1404410393 1734334203 970795039 2037104137 -939490628 -164129016 759568543 -1881065365 917170480 -69580174 572004142 -990509133 872948193 973969005 707469937 971489882 1847047327 -1048726156
REM
CELL 1.54180   50.00000   50.00000   50.00000   90.00000   90.00000   90.00000
LATT -1
SFAC C  
C      1  0.4337450000000  0.4121860000000  0.5081610000000 1.0
C      1  0.4179570000000  0.4190610000000  0.6238190000000 1.0
C      1  0.4575560000000  0.4441120000000  0.4807000000000 1.0
C      1  0.5654090000000  0.5505950000000  0.4746310000000 1.0
C      1  0.6168400000000  0.5890200000000  0.5119650000000 1.0
C      1  0.4871910000000  0.4878260000000  0.4763970000000 1.0
C      1  0.4101200000000  0.3867120000000  0.5812610000000 1.0
C      1  0.5455890000000  0.5324460000000  0.4754870000000 1.0
C      1  0.4182290000000  0.3953740000000  0.5559410000000 1.0
C      1  0.4419350000000  0.4210700000000  0.4829780000000 1.0
C      1  0.4141380000000  0.4033920000000  0.6033460000000 1.0
C      1  0.5850020000000  0.6536510000000  0.5071300000000 1.0
C      1  0.5930380000000  0.6294850000000  0.5015980000000 1.0
C      1  0.3983910000000  0.3622010000000  0.5843910000000 1.0
C      1  0.5175350000000  0.5325880000000  0.4719900000000 1.0
C      1  0.6073090000000  0.5946280000000  0.4478640000000 1.0
C      1  0.5020050000000  0.5096780000000  0.4742450000000 1.0
C      1  0.5674850000000  0.5783730000000  0.4698410000000 1.0
C      1  0.4345030000000  0.4069110000000  0.4600720000000 1.0
C      1  0.5921190000000  0.5921460000000  0.4704910000000 1.0
C      1  0.5065580000000  0.5579660000000  0.4660060000000 1.0
C      1  0.5175720000000  0.5823520000000  0.4629220000000 1.0
C      1  0.6009240000000  0.6034760000000  0.4950450000000 1.0
C      1  0.4723700000000  0.4659640000000  0.4785500000000 1.0
C      1  0.4259830000000  0.4037690000000  0.5320460000000 1.0
C      1  0.5429270000000  0.5913170000000  0.4644240000000 1.0
C      1  0.4275690000000  0.3937010000000  0.4387020000000 1.0
END
