TITL C-3623283-6828-529 8.73033512237941e-07 125000 -762.920466899661 0 0 124 (C1) n - 1
REM
REM in /home/nfs/bkarasulu/CARBON/AIRSS/Generating-Clusters/LCBOP/Higher-Symm/SD-CG/FIRE-CG
REM
REM
REM
REM
REM
REM ./C.cell (b20cbc046b6831c77cfcea5457e17084)
REM AIRSS Version 0.9.1 bugfix July 2018 build 013d7b7c2542+ Fri, 06 Jul 2018 19:26:36 +0100
REM compiler GCC version 9.2.1 20190827 (Red Hat 9.2.1-1)
REM options -cpp -mtune=generic -march=x86-64 -g -O0 -fpre-include=/usr/include/finclude/math-vector-fortran.h
REM seed 1124886148 -871296740 1836224129 336396736 291369323 -17877595 -1882771431 -228572689 -796140369 1397897621 -1419209672 407590992 530227976 838175108 -1050263303 -905562188 1500454818 -182651221 869931616 -1598016075 1491884745 1476397595 -544738166 -896719746 1407998834 1807687365 10076223 -1616545786 412829073 1288968726 -919066241 -2112170007 1358308380
REM
CELL 1.54180   50.00000   50.00000   50.00000   90.00000   90.00000   90.00000
LATT -1
SFAC C  
C      1  0.4855150000000  0.4180430000000  0.4682510000000 1.0
C      1  0.5135470000000  0.5803420000000  0.4688000000000 1.0
C      1  0.4966040000000  0.4226290000000  0.5291470000000 1.0
C      1  0.5031010000000  0.5780160000000  0.5299430000000 1.0
C      1  0.4729210000000  0.5155550000000  0.5930800000000 1.0
C      1  0.5271730000000  0.4846120000000  0.5930720000000 1.0
C      1  0.4731210000000  0.5161040000000  0.4168260000000 1.0
C      1  0.5266890000000  0.4837570000000  0.4174970000000 1.0
C      1  0.5557160000000  0.4344000000000  0.5039170000000 1.0
C      1  0.4442410000000  0.5655240000000  0.5038470000000 1.0
C      1  0.5489050000000  0.4372540000000  0.4756940000000 1.0
C      1  0.4510880000000  0.5629160000000  0.4756360000000 1.0
C      1  0.5327340000000  0.4156950000000  0.4668250000000 1.0
C      1  0.4668270000000  0.5849170000000  0.4671000000000 1.0
C      1  0.5415980000000  0.4131460000000  0.5165350000000 1.0
C      1  0.4580760000000  0.5867800000000  0.5167610000000 1.0
C      1  0.4942830000000  0.4460460000000  0.4298480000000 1.0
C      1  0.5052850000000  0.5532240000000  0.4298500000000 1.0
C      1  0.4984480000000  0.4458870000000  0.5727630000000 1.0
C      1  0.5019100000000  0.5547170000000  0.5737200000000 1.0
C      1  0.5533990000000  0.4726770000000  0.4380600000000 1.0
C      1  0.4468590000000  0.5275430000000  0.4378930000000 1.0
C      1  0.5541110000000  0.4752190000000  0.5801130000000 1.0
C      1  0.4459950000000  0.5249030000000  0.5799940000000 1.0
C      1  0.5056530000000  0.5384740000000  0.4549360000000 1.0
C      1  0.4929490000000  0.4597680000000  0.4551960000000 1.0
C      1  0.5012770000000  0.5378570000000  0.5509210000000 1.0
C      1  0.4996950000000  0.4627880000000  0.5499400000000 1.0
C      1  0.5992100000000  0.4721280000000  0.4892460000000 1.0
C      1  0.4009120000000  0.5280970000000  0.4891630000000 1.0
C      1  0.5883160000000  0.4699750000000  0.5159600000000 1.0
C      1  0.4119230000000  0.5300150000000  0.5157850000000 1.0
C      1  0.4947030000000  0.4888910000000  0.5515960000000 1.0
C      1  0.5059760000000  0.5117130000000  0.5525740000000 1.0
C      1  0.5005580000000  0.4851750000000  0.4620810000000 1.0
C      1  0.4995750000000  0.5120900000000  0.4560320000000 1.0
C      1  0.4489380000000  0.4730270000000  0.4241680000000 1.0
C      1  0.5509430000000  0.5270790000000  0.4239180000000 1.0
C      1  0.4530380000000  0.4731900000000  0.5761890000000 1.0
C      1  0.5472630000000  0.5270370000000  0.5766360000000 1.0
C      1  0.4099780000000  0.5083860000000  0.5349670000000 1.0
C      1  0.5901560000000  0.4916840000000  0.5351320000000 1.0
C      1  0.4049740000000  0.5078090000000  0.4691390000000 1.0
C      1  0.5951600000000  0.4924900000000  0.4692050000000 1.0
C      1  0.4908900000000  0.5910000000000  0.4819070000000 1.0
C      1  0.5088220000000  0.4088170000000  0.4815060000000 1.0
C      1  0.4860770000000  0.5910020000000  0.5110260000000 1.0
C      1  0.5135910000000  0.4091510000000  0.5106020000000 1.0
C      1  0.4776120000000  0.4451970000000  0.4745740000000 1.0
C      1  0.5200020000000  0.5528660000000  0.4748550000000 1.0
C      1  0.4944660000000  0.4523640000000  0.5234780000000 1.0
C      1  0.5057710000000  0.5483500000000  0.5243910000000 1.0
C      1  0.4606110000000  0.4146110000000  0.5604940000000 1.0
C      1  0.5394900000000  0.5859170000000  0.5610380000000 1.0
C      1  0.4539290000000  0.4134150000000  0.4342810000000 1.0
C      1  0.5454140000000  0.5861170000000  0.4348120000000 1.0
C      1  0.4295200000000  0.5109620000000  0.5585340000000 1.0
C      1  0.5706560000000  0.4891720000000  0.5587610000000 1.0
C      1  0.4239140000000  0.5088210000000  0.4450860000000 1.0
C      1  0.5762700000000  0.4915730000000  0.4449950000000 1.0
C      1  0.4356150000000  0.4506950000000  0.5778040000000 1.0
C      1  0.5644830000000  0.5496790000000  0.5782030000000 1.0
C      1  0.4315750000000  0.4508130000000  0.4193020000000 1.0
C      1  0.5683470000000  0.5493970000000  0.4193490000000 1.0
C      1  0.4862940000000  0.5314670000000  0.5099220000000 1.0
C      1  0.5143450000000  0.4683370000000  0.5085470000000 1.0
C      1  0.4991940000000  0.5121970000000  0.4959300000000 1.0
C      1  0.5029440000000  0.4863600000000  0.4906880000000 1.0
C      1  0.5724090000000  0.5895380000000  0.5129030000000 1.0
C      1  0.4271390000000  0.4105360000000  0.5126790000000 1.0
C      1  0.5742860000000  0.5897920000000  0.4857690000000 1.0
C      1  0.4250970000000  0.4102330000000  0.4855460000000 1.0
C      1  0.5602830000000  0.5158430000000  0.4482880000000 1.0
C      1  0.4397370000000  0.4844950000000  0.4484070000000 1.0
C      1  0.5528060000000  0.5113320000000  0.5533730000000 1.0
C      1  0.4475050000000  0.4889400000000  0.5530050000000 1.0
C      1  0.4541090000000  0.5128700000000  0.4831670000000 1.0
C      1  0.5472580000000  0.4873950000000  0.4833970000000 1.0
C      1  0.4590900000000  0.5196310000000  0.5128990000000 1.0
C      1  0.5413020000000  0.4804910000000  0.5129380000000 1.0
C      1  0.4160440000000  0.4483210000000  0.3970490000000 1.0
C      1  0.5840000000000  0.5521450000000  0.3972140000000 1.0
C      1  0.4177510000000  0.4473870000000  0.5981540000000 1.0
C      1  0.5823210000000  0.5531620000000  0.5985490000000 1.0
C      1  0.5381460000000  0.5368900000000  0.4885430000000 1.0
C      1  0.4609390000000  0.4626600000000  0.4885730000000 1.0
C      1  0.5323120000000  0.5342220000000  0.5159230000000 1.0
C      1  0.4681210000000  0.4663820000000  0.5154570000000 1.0
C      1  0.4012580000000  0.4817370000000  0.4810890000000 1.0
C      1  0.5987510000000  0.5185320000000  0.4812890000000 1.0
C      1  0.4053540000000  0.4825970000000  0.5216350000000 1.0
C      1  0.5946680000000  0.5175350000000  0.5218220000000 1.0
C      1  0.5005730000000  0.5300170000000  0.4119150000000 1.0
C      1  0.4992310000000  0.4698350000000  0.4127790000000 1.0
C      1  0.4995590000000  0.5323760000000  0.5944490000000 1.0
C      1  0.5005850000000  0.4680120000000  0.5936780000000 1.0
C      1  0.4129730000000  0.4556960000000  0.5158870000000 1.0
C      1  0.5868870000000  0.5444450000000  0.5161680000000 1.0
C      1  0.4101720000000  0.4552140000000  0.4853690000000 1.0
C      1  0.5896170000000  0.5449670000000  0.4856320000000 1.0
C      1  0.5472800000000  0.4636760000000  0.4649420000000 1.0
C      1  0.4534640000000  0.5365290000000  0.4647460000000 1.0
C      1  0.5621430000000  0.4587790000000  0.5168480000000 1.0
C      1  0.4380820000000  0.5410910000000  0.5165990000000 1.0
C      1  0.5750570000000  0.5669850000000  0.5304310000000 1.0
C      1  0.4247500000000  0.4331730000000  0.5301380000000 1.0
C      1  0.5790820000000  0.5670300000000  0.4687700000000 1.0
C      1  0.4205230000000  0.4330200000000  0.4684860000000 1.0
C      1  0.5488990000000  0.5147510000000  0.4742230000000 1.0
C      1  0.4513420000000  0.4854510000000  0.4742090000000 1.0
C      1  0.5401920000000  0.5092970000000  0.5285270000000 1.0
C      1  0.4601420000000  0.4911320000000  0.5281630000000 1.0
C      1  0.5268730000000  0.5135870000000  0.4128120000000 1.0
C      1  0.4731060000000  0.4862620000000  0.4130840000000 1.0
C      1  0.5255080000000  0.5154060000000  0.5936070000000 1.0
C      1  0.4747570000000  0.4847800000000  0.5931310000000 1.0
C      1  0.4883920000000  0.4210890000000  0.5584450000000 1.0
C      1  0.5115510000000  0.5797000000000  0.5593500000000 1.0
C      1  0.4818710000000  0.4192420000000  0.4381200000000 1.0
C      1  0.5178510000000  0.5796390000000  0.4390210000000 1.0
C      1  0.5678190000000  0.5687820000000  0.4410550000000 1.0
C      1  0.4318950000000  0.4311760000000  0.4407670000000 1.0
C      1  0.5619420000000  0.5686070000000  0.5566590000000 1.0
C      1  0.4380190000000  0.4317290000000  0.5562780000000 1.0
END
