TITL C-3623284-6838-752 20691.4418290684 125000 -680.496879767425 0 0 111 (C1) n - 1
REM
REM in /home/nfs/bkarasulu/CARBON/AIRSS/Generating-Clusters/LCBOP/Higher-Symm/SD-CG/FIRE-CG
REM
REM
REM
REM
REM
REM ./C.cell (b20cbc046b6831c77cfcea5457e17084)
REM AIRSS Version 0.9.1 bugfix July 2018 build 013d7b7c2542+ Fri, 06 Jul 2018 19:26:36 +0100
REM compiler GCC version 9.2.1 20190827 (Red Hat 9.2.1-1)
REM options -cpp -mtune=generic -march=x86-64 -g -O0 -fpre-include=/usr/include/finclude/math-vector-fortran.h
REM seed 1643560617 1142073166 2136522761 2010967546 1774060778 1519739883 60854202 -1153919833 552722553 -249623868 -367593216 1373935026 54479298 1243738005 -366331622 1349432877 2139019239 -1900743279 -1787848672 -113267768 1804455644 1569068904 193813186 -2115956832 -130431420 -956400352 -935772005 -415971007 -98168992 1856237976 -1467275845 -601111695 -549085596
REM
CELL 1.54180   50.00000   50.00000   50.00000   90.00000   90.00000   90.00000
LATT -1
SFAC C  
C      1  0.4790670000000  0.5767130000000  0.5949440000000 1.0
C      1  0.5143330000000  0.5943650000000  0.4041310000000 1.0
C      1  0.4875790000000  0.5970660000000  0.4043460000000 1.0
C      1  0.5057320000000  0.5801720000000  0.5970470000000 1.0
C      1  0.5095860000000  0.5382020000000  0.5307370000000 1.0
C      1  0.4819320000000  0.5417030000000  0.4729200000000 1.0
C      1  0.5088930000000  0.5355700000000  0.4664340000000 1.0
C      1  0.4835010000000  0.5418810000000  0.5202920000000 1.0
C      1  0.5185050000000  0.5664690000000  0.5320890000000 1.0
C      1  0.4749170000000  0.5698840000000  0.4721660000000 1.0
C      1  0.5206210000000  0.5629250000000  0.4699960000000 1.0
C      1  0.4718350000000  0.5678960000000  0.5248520000000 1.0
C      1  0.5329440000000  0.4411940000000  0.4664300000000 1.0
C      1  0.4758150000000  0.4511410000000  0.5391660000000 1.0
C      1  0.5297580000000  0.4530150000000  0.5388430000000 1.0
C      1  0.4715840000000  0.4450760000000  0.4622430000000 1.0
C      1  0.4652840000000  0.4661160000000  0.6004510000000 1.0
C      1  0.5379530000000  0.4661420000000  0.4114170000000 1.0
C      1  0.4575180000000  0.4736470000000  0.4062550000000 1.0
C      1  0.5441390000000  0.4662100000000  0.5954170000000 1.0
C      1  0.4623020000000  0.4058170000000  0.4878200000000 1.0
C      1  0.5342580000000  0.4064610000000  0.5199620000000 1.0
C      1  0.4640160000000  0.4079200000000  0.5164180000000 1.0
C      1  0.5358510000000  0.4012590000000  0.4917480000000 1.0
C      1  0.4407630000000  0.4650430000000  0.5877200000000 1.0
C      1  0.5610780000000  0.4611690000000  0.4248460000000 1.0
C      1  0.4355770000000  0.4735320000000  0.4233880000000 1.0
C      1  0.5678030000000  0.4622580000000  0.5820300000000 1.0
C      1  0.4849320000000  0.3933740000000  0.5291020000000 1.0
C      1  0.5122520000000  0.3890180000000  0.4808110000000 1.0
C      1  0.4871320000000  0.4000340000000  0.4733360000000 1.0
C      1  0.5118660000000  0.3939770000000  0.5322090000000 1.0
C      1  0.5880350000000  0.4533880000000  0.4718010000000 1.0
C      1  0.4210460000000  0.4677990000000  0.5363410000000 1.0
C      1  0.5888880000000  0.4568180000000  0.5318500000000 1.0
C      1  0.4160110000000  0.4680020000000  0.4754440000000 1.0
C      1  0.5191550000000  0.4757520000000  0.5845560000000 1.0
C      1  0.4857350000000  0.4703710000000  0.4130890000000 1.0
C      1  0.5137170000000  0.4816190000000  0.4108230000000 1.0
C      1  0.4898550000000  0.4713310000000  0.5863860000000 1.0
C      1  0.4218240000000  0.4720080000000  0.4471690000000 1.0
C      1  0.5829840000000  0.4609210000000  0.5595150000000 1.0
C      1  0.4262610000000  0.4662900000000  0.5646270000000 1.0
C      1  0.5788020000000  0.4582090000000  0.4451820000000 1.0
C      1  0.5516900000000  0.5105590000000  0.5083560000000 1.0
C      1  0.4500720000000  0.5109130000000  0.4802230000000 1.0
C      1  0.5552640000000  0.5085140000000  0.4793430000000 1.0
C      1  0.4520280000000  0.5113120000000  0.5087970000000 1.0
C      1  0.4590240000000  0.5615600000000  0.5850170000000 1.0
C      1  0.5344660000000  0.5773970000000  0.4097070000000 1.0
C      1  0.4654080000000  0.5828490000000  0.4104730000000 1.0
C      1  0.5294290000000  0.5687800000000  0.5901360000000 1.0
C      1  0.4457810000000  0.5514980000000  0.4438460000000 1.0
C      1  0.5523110000000  0.5444890000000  0.5512440000000 1.0
C      1  0.4380400000000  0.5401050000000  0.5442320000000 1.0
C      1  0.5554160000000  0.5483030000000  0.4448650000000 1.0
C      1  0.4308670000000  0.4466120000000  0.5181410000000 1.0
C      1  0.5741500000000  0.4340900000000  0.4883650000000 1.0
C      1  0.4278020000000  0.4449410000000  0.4887250000000 1.0
C      1  0.5727050000000  0.4383150000000  0.5169900000000 1.0
C      1  0.4874120000000  0.4912480000000  0.4544130000000 1.0
C      1  0.5145710000000  0.5062520000000  0.5403270000000 1.0
C      1  0.4843190000000  0.5011270000000  0.5473560000000 1.0
C      1  0.5128450000000  0.5065970000000  0.4542560000000 1.0
C      1  0.4902490000000  0.4307750000000  0.5556450000000 1.0
C      1  0.5154820000000  0.4305780000000  0.4473600000000 1.0
C      1  0.4900770000000  0.4222670000000  0.4555390000000 1.0
C      1  0.5162030000000  0.4356670000000  0.5589790000000 1.0
C      1  0.5621670000000  0.5244820000000  0.5317980000000 1.0
C      1  0.4404500000000  0.5268170000000  0.4581750000000 1.0
C      1  0.5660700000000  0.5251170000000  0.4585100000000 1.0
C      1  0.4307250000000  0.5166040000000  0.5274440000000 1.0
C      1  0.5263780000000  0.4836700000000  0.5583170000000 1.0
C      1  0.4831280000000  0.4657050000000  0.4413120000000 1.0
C      1  0.5176330000000  0.5072330000000  0.4242520000000 1.0
C      1  0.4792630000000  0.4746640000000  0.5591590000000 1.0
C      1  0.5175600000000  0.4680890000000  0.5099030000000 1.0
C      1  0.4732160000000  0.4644440000000  0.4860680000000 1.0
C      1  0.5281200000000  0.4653300000000  0.4808950000000 1.0
C      1  0.4857940000000  0.4673430000000  0.5127540000000 1.0
C      1  0.5341850000000  0.4912540000000  0.4690090000000 1.0
C      1  0.4735970000000  0.4961770000000  0.5199640000000 1.0
C      1  0.5272770000000  0.4967980000000  0.5154710000000 1.0
C      1  0.4680640000000  0.4904410000000  0.4740930000000 1.0
C      1  0.5621700000000  0.5784600000000  0.5139260000000 1.0
C      1  0.4290190000000  0.5806010000000  0.4827200000000 1.0
C      1  0.5630920000000  0.5775290000000  0.4870200000000 1.0
C      1  0.4268800000000  0.5764210000000  0.5093030000000 1.0
C      1  0.4475540000000  0.4283450000000  0.4745510000000 1.0
C      1  0.5475300000000  0.4313830000000  0.5274410000000 1.0
C      1  0.4542470000000  0.4330620000000  0.5273500000000 1.0
C      1  0.5503510000000  0.4220730000000  0.4780900000000 1.0
C      1  0.4481180000000  0.5732100000000  0.4635630000000 1.0
C      1  0.5466240000000  0.5685340000000  0.5350450000000 1.0
C      1  0.4435830000000  0.5648380000000  0.5287690000000 1.0
C      1  0.5480940000000  0.5670550000000  0.4657650000000 1.0
C      1  0.4057990000000  0.4872750000000  0.4947640000000 1.0
C      1  0.6058600000000  0.4717150000000  0.5145210000000 1.0
C      1  0.4135870000000  0.4925920000000  0.5227020000000 1.0
C      1  0.6052980000000  0.4700570000000  0.4872240000000 1.0
C      1  0.5329960000000  0.5444470000000  0.5748660000000 1.0
C      1  0.4636270000000  0.5562490000000  0.4207930000000 1.0
C      1  0.5377040000000  0.5514600000000  0.4209870000000 1.0
C      1  0.4564560000000  0.5389780000000  0.5677160000000 1.0
C      1  0.5149750000000  0.5338060000000  0.4153650000000 1.0
C      1  0.4805970000000  0.5231760000000  0.5671610000000 1.0
C      1  0.5068200000000  0.5308260000000  0.5776490000000 1.0
C      1  0.4873280000000  0.5416310000000  0.4140810000000 1.0
C      1  0.5001750000000  0.5829500000000  0.4765430000000 1.0
C      1  0.4965100000000  0.5844220000000  0.5245490000000 1.0
C      1  0.5012490000000  0.5983130000000  0.5002330000000 1.0
END
