TITL C-3623285-6872-474 2627303.15210728 125000 -775.697416742092 0 0 127 (C3) n - 1
REM
REM in /home/nfs/bkarasulu/CARBON/AIRSS/Generating-Clusters/LCBOP/Higher-Symm/SD-CG/FIRE-CG
REM
REM
REM
REM
REM
REM ./C.cell (b20cbc046b6831c77cfcea5457e17084)
REM AIRSS Version 0.9.1 bugfix July 2018 build 013d7b7c2542+ Fri, 06 Jul 2018 19:26:36 +0100
REM compiler GCC version 9.2.1 20190827 (Red Hat 9.2.1-1)
REM options -cpp -mtune=generic -march=x86-64 -g -O0 -fpre-include=/usr/include/finclude/math-vector-fortran.h
REM seed -1098235106 385852076 -1628854300 -840757329 1542249283 -368018983 153972164 730719293 -1286312476 -554693789 1880748152 -1974116576 25421829 -1917578455 567376520 86521297 -1913516891 1607864017 -1559071858 -483290273 568020157 1733362441 304777075 -937658039 2137719409 1944213158 389359163 -1135391321 -594281167 998995424 -1976756108 -435063528 983921558
REM
CELL 1.54180   50.00000   50.00000   50.00000   90.00000   90.00000   90.00000
LATT -1
SFAC C  
C      1  0.4377950000000  0.4690230000000  0.5846080000000 1.0
C      1  0.3899390000000  0.5286610000000  0.4890030000000 1.0
C      1  0.4579410000000  0.4690220000000  0.4036480000000 1.0
C      1  0.5646640000000  0.5286610000000  0.4100060000000 1.0
C      1  0.6045840000000  0.4690230000000  0.5115750000000 1.0
C      1  0.5457160000000  0.5286620000000  0.6008200000000 1.0
C      1  0.5801310000000  0.5027140000000  0.5364120000000 1.0
C      1  0.5073540000000  0.5016330000000  0.5887100000000 1.0
C      1  0.4285110000000  0.5027140000000  0.5510120000000 1.0
C      1  0.4196080000000  0.5016310000000  0.4618350000000 1.0
C      1  0.4916770000000  0.5027140000000  0.4124050000000 1.0
C      1  0.5733590000000  0.5016320000000  0.4492830000000 1.0
C      1  0.4227350000000  0.4644750000000  0.5073650000000 1.0
C      1  0.4310410000000  0.5364120000000  0.4242310000000 1.0
C      1  0.5323660000000  0.4644750000000  0.4292200000000 1.0
C      1  0.6002070000000  0.5364130000000  0.4779880000000 1.0
C      1  0.5452680000000  0.4644710000000  0.5632630000000 1.0
C      1  0.4690700000000  0.5364140000000  0.5976090000000 1.0
C      1  0.5381690000000  0.5213610000000  0.4898160000000 1.0
C      1  0.5211870000000  0.4793110000000  0.5216070000000 1.0
C      1  0.4898460000000  0.5213620000000  0.5379690000000 1.0
C      1  0.4708080000000  0.4793130000000  0.5073650000000 1.0
C      1  0.4723060000000  0.5213630000000  0.4720430000000 1.0
C      1  0.5083280000000  0.4793100000000  0.4708560000000 1.0
C      1  0.5830980000000  0.5465820000000  0.4571830000000 1.0
C      1  0.5668780000000  0.4556690000000  0.5464630000000 1.0
C      1  0.4956430000000  0.5465830000000  0.5931950000000 1.0
C      1  0.4264330000000  0.4556710000000  0.5345030000000 1.0
C      1  0.4215790000000  0.5465820000000  0.4494510000000 1.0
C      1  0.5070090000000  0.4556690000000  0.4188580000000 1.0
C      1  0.5049840000000  0.5437580000000  0.5455560000000 1.0
C      1  0.4718960000000  0.4556450000000  0.5277940000000 1.0
C      1  0.4581650000000  0.5437580000000  0.4813600000000 1.0
C      1  0.4900880000000  0.4556500000000  0.4615880000000 1.0
C      1  0.5371700000000  0.5437580000000  0.4729110000000 1.0
C      1  0.5383330000000  0.4556460000000  0.5104490000000 1.0
C      1  0.5089040000000  0.5862710000000  0.5578090000000 1.0
C      1  0.4590040000000  0.4135270000000  0.5403900000000 1.0
C      1  0.4455930000000  0.5862700000000  0.4786270000000 1.0
C      1  0.4856310000000  0.4135260000000  0.4441230000000 1.0
C      1  0.5458220000000  0.5862700000000  0.4633900000000 1.0
C      1  0.5556860000000  0.4135270000000  0.5153170000000 1.0
C      1  0.4821020000000  0.4265110000000  0.5852750000000 1.0
C      1  0.4183660000000  0.5740960000000  0.5216640000000 1.0
C      1  0.4352100000000  0.4265090000000  0.4416850000000 1.0
C      1  0.5221650000000  0.5740970000000  0.4182930000000 1.0
C      1  0.5830090000000  0.4265100000000  0.4728710000000 1.0
C      1  0.5597880000000  0.5740970000000  0.5598700000000 1.0
C      1  0.5160810000000  0.5272290000000  0.6016390000000 1.0
C      1  0.4241620000000  0.4738880000000  0.5575750000000 1.0
C      1  0.4040470000000  0.5272270000000  0.4629300000000 1.0
C      1  0.4881690000000  0.4738870000000  0.4053580000000 1.0
C      1  0.5801920000000  0.5272270000000  0.4352600000000 1.0
C      1  0.5879900000000  0.4738880000000  0.5368970000000 1.0
C      1  0.5252790000000  0.5033560000000  0.5644290000000 1.0
C      1  0.4558760000000  0.5057740000000  0.5611690000000 1.0
C      1  0.4316770000000  0.5033550000000  0.4894980000000 1.0
C      1  0.4691980000000  0.5057750000000  0.4310230000000 1.0
C      1  0.5433610000000  0.5033260000000  0.4459190000000 1.0
C      1  0.5752450000000  0.5057720000000  0.5076350000000 1.0
C      1  0.5563440000000  0.4399780000000  0.5261040000000 1.0
C      1  0.5005080000000  0.5604940000000  0.5684960000000 1.0
C      1  0.4493320000000  0.4399760000000  0.5355680000000 1.0
C      1  0.4405360000000  0.5604930000000  0.4660130000000 1.0
C      1  0.4946440000000  0.4399760000000  0.4381590000000 1.0
C      1  0.5592750000000  0.5604930000000  0.4653180000000 1.0
C      1  0.5351640000000  0.5896480000000  0.4365860000000 1.0
C      1  0.5740290000000  0.4108350000000  0.4932980000000 1.0
C      1  0.5374460000000  0.5896480000000  0.5619800000000 1.0
C      1  0.4689020000000  0.4108360000000  0.5672850000000 1.0
C      1  0.4277100000000  0.5896470000000  0.5012600000000 1.0
C      1  0.4573900000000  0.4108350000000  0.4392490000000 1.0
C      1  0.5989840000000  0.5122360000000  0.4925200000000 1.0
C      1  0.5485580000000  0.4893040000000  0.5751290000000 1.0
C      1  0.4570970000000  0.5122370000000  0.5892850000000 1.0
C      1  0.4107700000000  0.4892980000000  0.5043120000000 1.0
C      1  0.4442380000000  0.5122360000000  0.4180240000000 1.0
C      1  0.5409920000000  0.4893030000000  0.4203920000000 1.0
C      1  0.4643330000000  0.4963250000000  0.4598980000000 1.0
C      1  0.5152180000000  0.5053510000000  0.4570840000000 1.0
C      1  0.5526780000000  0.4963330000000  0.4889920000000 1.0
C      1  0.5296680000000  0.5053510000000  0.5344600000000 1.0
C      1  0.4833140000000  0.4963230000000  0.5509450000000 1.0
C      1  0.4554340000000  0.5053540000000  0.5082850000000 1.0
C      1  0.4744940000000  0.4174350000000  0.4898280000000 1.0
C      1  0.5003810000000  0.5788060000000  0.4730980000000 1.0
C      1  0.5216730000000  0.4174350000000  0.4828200000000 1.0
C      1  0.5232170000000  0.5788070000000  0.5136020000000 1.0
C      1  0.5041520000000  0.4174360000000  0.5271820000000 1.0
C      1  0.4767210000000  0.5788060000000  0.5131270000000 1.0
C      1  0.5340170000000  0.5272150000000  0.5168930000000 1.0
C      1  0.5101990000000  0.4674280000000  0.5464400000000 1.0
C      1  0.4684720000000  0.5272160000000  0.5208340000000 1.0
C      1  0.4547450000000  0.4674090000000  0.4854700000000 1.0
C      1  0.4978320000000  0.5272150000000  0.4621010000000 1.0
C      1  0.5353250000000  0.4674430000000  0.4678820000000 1.0
C      1  0.4772830000000  0.4083030000000  0.5174980000000 1.0
C      1  0.4750970000000  0.5891410000000  0.4846780000000 1.0
C      1  0.4963150000000  0.4083030000000  0.4714000000000 1.0
C      1  0.5258300000000  0.5891410000000  0.4859160000000 1.0
C      1  0.5267220000000  0.4083030000000  0.5109320000000 1.0
C      1  0.4993910000000  0.5891420000000  0.5292320000000 1.0
C      1  0.4592750000000  0.4849780000000  0.5992340000000 1.0
C      1  0.3961410000000  0.5122910000000  0.5133540000000 1.0
C      1  0.4345340000000  0.4849770000000  0.4149370000000 1.0
C      1  0.5404740000000  0.5122920000000  0.4032000000000 1.0
C      1  0.6065120000000  0.4849770000000  0.4856600000000 1.0
C      1  0.5637050000000  0.5122940000000  0.5832740000000 1.0
C      1  0.4219300000000  0.4783750000000  0.4411700000000 1.0
C      1  0.5127810000000  0.5226690000000  0.4045390000000 1.0
C      1  0.5900940000000  0.4783750000000  0.4616270000000 1.0
C      1  0.5763920000000  0.5226690000000  0.5586230000000 1.0
C      1  0.4882960000000  0.4783760000000  0.5970330000000 1.0
C      1  0.4111460000000  0.5226690000000  0.5366680000000 1.0
C      1  0.5116940000000  0.5510930000000  0.4083590000000 1.0
C      1  0.5858380000000  0.4500310000000  0.4595620000000 1.0
C      1  0.5736270000000  0.5510930000000  0.5557700000000 1.0
C      1  0.4922140000000  0.4500320000000  0.5943790000000 1.0
C      1  0.4149980000000  0.5510930000000  0.5356990000000 1.0
C      1  0.4222690000000  0.4500300000000  0.4458900000000 1.0
C      1  0.4970790000000  0.4442880000000  0.5374810000000 1.0
C      1  0.4657890000000  0.5519680000000  0.5085850000000 1.0
C      1  0.4691070000000  0.4442890000000  0.4785570000000 1.0
C      1  0.5097800000000  0.5519690000000  0.4659010000000 1.0
C      1  0.5341280000000  0.4442870000000  0.4837940000000 1.0
C      1  0.5247500000000  0.5519680000000  0.5253410000000 1.0
C      1  0.5001060000000  0.4832100000000  0.4999420000000 1.0
END
