TITL C-3623285-6872-1377 -3.07761394583127e-07 125000 -413.557268290426 0 0 69 (C1) n - 1
REM
REM in /home/nfs/bkarasulu/CARBON/AIRSS/Generating-Clusters/LCBOP/Higher-Symm/SD-CG/FIRE-CG
REM
REM
REM
REM
REM
REM ./C.cell (b20cbc046b6831c77cfcea5457e17084)
REM AIRSS Version 0.9.1 bugfix July 2018 build 013d7b7c2542+ Fri, 06 Jul 2018 19:26:36 +0100
REM compiler GCC version 9.2.1 20190827 (Red Hat 9.2.1-1)
REM options -cpp -mtune=generic -march=x86-64 -g -O0 -fpre-include=/usr/include/finclude/math-vector-fortran.h
REM seed -740347839 379881233 1836861421 953379156 -1874548139 -1620073231 -516960256 507752137 -1620182258 1614205699 -2049083477 506597310 2018304961 -1398520853 -1314512542 -2047563503 -723713805 872576759 224506083 -396606820 -627854279 -1643064860 1829115471 -1057742014 -1742636064 -187121988 1094909686 908299093 2122680669 -53917547 1705136908 1733061484 -311398853
REM
CELL 1.54180   50.00000   50.00000   50.00000   90.00000   90.00000   90.00000
LATT -1
SFAC C  
C      1  0.4760270000000  0.4194480000000  0.5055590000000 1.0
C      1  0.5192990000000  0.5812560000000  0.4949760000000 1.0
C      1  0.5264220000000  0.4826760000000  0.4914650000000 1.0
C      1  0.4603100000000  0.5182330000000  0.4932860000000 1.0
C      1  0.4992990000000  0.5669520000000  0.5401100000000 1.0
C      1  0.5002750000000  0.4342420000000  0.4629820000000 1.0
C      1  0.5129120000000  0.4584150000000  0.5705770000000 1.0
C      1  0.5315230000000  0.5391880000000  0.4152310000000 1.0
C      1  0.5511100000000  0.5480390000000  0.4778080000000 1.0
C      1  0.4460560000000  0.4523080000000  0.5256040000000 1.0
C      1  0.5190060000000  0.5156590000000  0.4248890000000 1.0
C      1  0.5009050000000  0.4849860000000  0.5669510000000 1.0
C      1  0.5263120000000  0.5626330000000  0.5503790000000 1.0
C      1  0.4747210000000  0.4393460000000  0.4493620000000 1.0
C      1  0.4257780000000  0.5262710000000  0.4609600000000 1.0
C      1  0.5577910000000  0.4737890000000  0.5507240000000 1.0
C      1  0.4634510000000  0.4207610000000  0.4320120000000 1.0
C      1  0.5398260000000  0.5824110000000  0.5645140000000 1.0
C      1  0.4086200000000  0.4920050000000  0.4907830000000 1.0
C      1  0.5665620000000  0.5027010000000  0.5110510000000 1.0
C      1  0.4767300000000  0.4779030000000  0.4756140000000 1.0
C      1  0.5241120000000  0.5227110000000  0.5243450000000 1.0
C      1  0.4507060000000  0.5677390000000  0.4832600000000 1.0
C      1  0.5339110000000  0.4360620000000  0.5311050000000 1.0
C      1  0.4617540000000  0.4743140000000  0.5177830000000 1.0
C      1  0.5320330000000  0.5270570000000  0.4795760000000 1.0
C      1  0.4354860000000  0.5503600000000  0.4689930000000 1.0
C      1  0.5368580000000  0.4543310000000  0.5531230000000 1.0
C      1  0.4225050000000  0.5069700000000  0.5367680000000 1.0
C      1  0.5818690000000  0.4898600000000  0.4673320000000 1.0
C      1  0.4366650000000  0.4774000000000  0.4516380000000 1.0
C      1  0.5604100000000  0.5225510000000  0.5539520000000 1.0
C      1  0.4838360000000  0.5060750000000  0.5761170000000 1.0
C      1  0.5292750000000  0.4892980000000  0.4253870000000 1.0
C      1  0.5233310000000  0.4467940000000  0.4509170000000 1.0
C      1  0.4790010000000  0.5513760000000  0.5539690000000 1.0
C      1  0.5352760000000  0.5797010000000  0.4468000000000 1.0
C      1  0.4752900000000  0.4261000000000  0.5542850000000 1.0
C      1  0.5044150000000  0.5280090000000  0.4710720000000 1.0
C      1  0.4899510000000  0.4731190000000  0.5188520000000 1.0
C      1  0.4625060000000  0.4645810000000  0.4553510000000 1.0
C      1  0.5377350000000  0.5369920000000  0.5448290000000 1.0
C      1  0.5002800000000  0.4739780000000  0.4921300000000 1.0
C      1  0.4980360000000  0.5292970000000  0.5174290000000 1.0
C      1  0.4188010000000  0.4597810000000  0.5261180000000 1.0
C      1  0.5776370000000  0.5376010000000  0.4799760000000 1.0
C      1  0.4939690000000  0.4369570000000  0.5705800000000 1.0
C      1  0.5349690000000  0.5643760000000  0.4244710000000 1.0
C      1  0.5231720000000  0.4269580000000  0.5080410000000 1.0
C      1  0.4704970000000  0.5770960000000  0.4992870000000 1.0
C      1  0.5397680000000  0.4685190000000  0.4418920000000 1.0
C      1  0.4675960000000  0.5260980000000  0.5622970000000 1.0
C      1  0.4420380000000  0.5183090000000  0.5517420000000 1.0
C      1  0.5653790000000  0.4738920000000  0.4531460000000 1.0
C      1  0.5379060000000  0.5075860000000  0.5023090000000 1.0
C      1  0.4581160000000  0.4906540000000  0.4944700000000 1.0
C      1  0.4211920000000  0.4981750000000  0.4655190000000 1.0
C      1  0.5673540000000  0.4984150000000  0.5396650000000 1.0
C      1  0.4993010000000  0.5212350000000  0.4444810000000 1.0
C      1  0.5023580000000  0.4866810000000  0.5389320000000 1.0
C      1  0.5003040000000  0.4244520000000  0.4908980000000 1.0
C      1  0.4962290000000  0.5774300000000  0.5123190000000 1.0
C      1  0.4622570000000  0.4288210000000  0.5290490000000 1.0
C      1  0.5379210000000  0.5732700000000  0.4743680000000 1.0
C      1  0.5819410000000  0.5098780000000  0.4875850000000 1.0
C      1  0.4122210000000  0.4869660000000  0.5187930000000 1.0
C      1  0.5526690000000  0.6010160000000  0.5774760000000 1.0
C      1  0.4527550000000  0.4033130000000  0.4158800000000 1.0
C      1  0.4858010000000  0.5293330000000  0.4924390000000 1.0
END
