TITL C-3623284-6838-1527 23.6168909121846 125000 -1108.05949958169 0 0 184 (Ci) n - 1
REM
REM in /home/nfs/bkarasulu/CARBON/AIRSS/Generating-Clusters/LCBOP/Higher-Symm/SD-CG/FIRE-CG
REM
REM
REM
REM
REM
REM ./C.cell (b20cbc046b6831c77cfcea5457e17084)
REM AIRSS Version 0.9.1 bugfix July 2018 build 013d7b7c2542+ Fri, 06 Jul 2018 19:26:36 +0100
REM compiler GCC version 9.2.1 20190827 (Red Hat 9.2.1-1)
REM options -cpp -mtune=generic -march=x86-64 -g -O0 -fpre-include=/usr/include/finclude/math-vector-fortran.h
REM seed 30818354 515872951 137710349 -836171494 -248383404 -197672048 1531831079 1156637323 -536022190 552300171 -1121661621 1600784900 1133786337 -621809648 -82903276 2132190824 -1870306330 1696000887 1375054650 1357301514 1448544378 1204133561 467935396 1513660058 -1842433544 88687860 415586758 -1438900575 -59362976 -1536746814 1052973440 863708938 -2100876960
REM
CELL 1.54180   50.00000   50.00000   50.00000   90.00000   90.00000   90.00000
LATT -1
SFAC C  
C      1  0.5654540000000  0.5583570000000  0.4033110000000 1.0
C      1  0.4964680000000  0.4512410000000  0.3945120000000 1.0
C      1  0.4307770000000  0.5620340000000  0.4026120000000 1.0
C      1  0.3953270000000  0.4472980000000  0.4687950000000 1.0
C      1  0.3928250000000  0.5559410000000  0.5358820000000 1.0
C      1  0.4342520000000  0.4416430000000  0.5957070000000 1.0
C      1  0.5032380000000  0.5487590000000  0.6045050000000 1.0
C      1  0.5689290000000  0.4379660000000  0.5964050000000 1.0
C      1  0.6043790000000  0.5527020000000  0.5302230000000 1.0
C      1  0.6068810000000  0.4440590000000  0.4631360000000 1.0
C      1  0.5843370000000  0.5525400000000  0.4493780000000 1.0
C      1  0.5419050000000  0.4565250000000  0.4211570000000 1.0
C      1  0.4824880000000  0.5563540000000  0.3965060000000 1.0
C      1  0.4390760000000  0.4625010000000  0.4426240000000 1.0
C      1  0.4003630000000  0.5515890000000  0.4841110000000 1.0
C      1  0.4153690000000  0.4474600000000  0.5496390000000 1.0
C      1  0.4578010000000  0.5434750000000  0.5778610000000 1.0
C      1  0.5172170000000  0.4436460000000  0.6025110000000 1.0
C      1  0.5606300000000  0.5374990000000  0.5563930000000 1.0
C      1  0.5993430000000  0.4484110000000  0.5149070000000 1.0
C      1  0.4208720000000  0.4891920000000  0.6034900000000 1.0
C      1  0.4981070000000  0.5054180000000  0.6284920000000 1.0
C      1  0.5724630000000  0.4876230000000  0.6053500000000 1.0
C      1  0.6216230000000  0.5072950000000  0.5397710000000 1.0
C      1  0.6245000000000  0.4927230000000  0.4605040000000 1.0
C      1  0.5788340000000  0.5108080000000  0.3955280000000 1.0
C      1  0.5015990000000  0.4945820000000  0.3705260000000 1.0
C      1  0.4272430000000  0.5123770000000  0.3936680000000 1.0
C      1  0.3780830000000  0.4927050000000  0.4592460000000 1.0
C      1  0.3752060000000  0.5072770000000  0.5385130000000 1.0
C      1  0.3819580000000  0.4853090000000  0.5548790000000 1.0
C      1  0.4371280000000  0.5103830000000  0.6080490000000 1.0
C      1  0.5161810000000  0.4843970000000  0.6306450000000 1.0
C      1  0.5820680000000  0.5081960000000  0.5899890000000 1.0
C      1  0.6277730000000  0.4871200000000  0.5227020000000 1.0
C      1  0.6177480000000  0.5146910000000  0.4441390000000 1.0
C      1  0.5625780000000  0.4896170000000  0.3909680000000 1.0
C      1  0.4835250000000  0.5156030000000  0.3683730000000 1.0
C      1  0.4176380000000  0.4918040000000  0.4090290000000 1.0
C      1  0.3719330000000  0.5128800000000  0.4763160000000 1.0
C      1  0.5535040000000  0.5767770000000  0.4237160000000 1.0
C      1  0.5018670000000  0.4323780000000  0.4161310000000 1.0
C      1  0.4476560000000  0.5791920000000  0.4204510000000 1.0
C      1  0.4195720000000  0.4313590000000  0.4737180000000 1.0
C      1  0.4130130000000  0.5740310000000  0.5236090000000 1.0
C      1  0.4462020000000  0.4232230000000  0.5753020000000 1.0
C      1  0.4978390000000  0.5676220000000  0.5828870000000 1.0
C      1  0.5520500000000  0.4208080000000  0.5785670000000 1.0
C      1  0.5801340000000  0.5686410000000  0.5253000000000 1.0
C      1  0.5866930000000  0.4259690000000  0.4754090000000 1.0
C      1  0.5241390000000  0.4204360000000  0.5855540000000 1.0
C      1  0.5592300000000  0.5639890000000  0.5440820000000 1.0
C      1  0.5860060000000  0.4251040000000  0.5038870000000 1.0
C      1  0.5675670000000  0.5763140000000  0.4488430000000 1.0
C      1  0.5279080000000  0.4322300000000  0.4267860000000 1.0
C      1  0.4755670000000  0.5795640000000  0.4134640000000 1.0
C      1  0.4404760000000  0.4360110000000  0.4549350000000 1.0
C      1  0.4137000000000  0.5748960000000  0.4951310000000 1.0
C      1  0.4321390000000  0.4236860000000  0.5501750000000 1.0
C      1  0.4717980000000  0.5677700000000  0.5722310000000 1.0
C      1  0.4742350000000  0.4161350000000  0.5731000000000 1.0
C      1  0.5177210000000  0.5739880000000  0.5638470000000 1.0
C      1  0.5585730000000  0.4153330000000  0.5504440000000 1.0
C      1  0.5706050000000  0.5774860000000  0.4993570000000 1.0
C      1  0.5617000000000  0.4201020000000  0.4628140000000 1.0
C      1  0.5254710000000  0.5838650000000  0.4259180000000 1.0
C      1  0.4819850000000  0.4260120000000  0.4351710000000 1.0
C      1  0.4411330000000  0.5846670000000  0.4485730000000 1.0
C      1  0.4291010000000  0.4225140000000  0.4996610000000 1.0
C      1  0.4380060000000  0.5798980000000  0.5362040000000 1.0
C      1  0.4018160000000  0.5393320000000  0.4313950000000 1.0
C      1  0.3947680000000  0.4705790000000  0.5088460000000 1.0
C      1  0.4141950000000  0.5214930000000  0.5577120000000 1.0
C      1  0.4695650000000  0.4698800000000  0.6076010000000 1.0
C      1  0.5276800000000  0.5128440000000  0.5868400000000 1.0
C      1  0.5978900000000  0.4606680000000  0.5676230000000 1.0
C      1  0.6049380000000  0.5294210000000  0.4901720000000 1.0
C      1  0.5855110000000  0.4785070000000  0.4413060000000 1.0
C      1  0.5301410000000  0.5301200000000  0.3914160000000 1.0
C      1  0.4720260000000  0.4871560000000  0.4121780000000 1.0
C      1  0.6213370000000  0.4670910000000  0.4763960000000 1.0
C      1  0.5855820000000  0.5362210000000  0.4073180000000 1.0
C      1  0.5152060000000  0.4714830000000  0.3833640000000 1.0
C      1  0.4403980000000  0.5377500000000  0.3876750000000 1.0
C      1  0.3933470000000  0.4701660000000  0.4498740000000 1.0
C      1  0.3783690000000  0.5329090000000  0.5226210000000 1.0
C      1  0.4141230000000  0.4637790000000  0.5917000000000 1.0
C      1  0.4845000000000  0.5285170000000  0.6156540000000 1.0
C      1  0.5593080000000  0.4622500000000  0.6113420000000 1.0
C      1  0.6063590000000  0.5298340000000  0.5491440000000 1.0
C      1  0.4823100000000  0.5980680000000  0.5226610000000 1.0
C      1  0.5028230000000  0.3970880000000  0.5348970000000 1.0
C      1  0.5197410000000  0.5952880000000  0.5201380000000 1.0
C      1  0.5316800000000  0.3984770000000  0.5108790000000 1.0
C      1  0.5284300000000  0.6003530000000  0.4840450000000 1.0
C      1  0.5173960000000  0.4019320000000  0.4763570000000 1.0
C      1  0.4968820000000  0.6029120000000  0.4641200000000 1.0
C      1  0.4799650000000  0.4047120000000  0.4788800000000 1.0
C      1  0.4680260000000  0.6015230000000  0.4881390000000 1.0
C      1  0.4712760000000  0.3996470000000  0.5149730000000 1.0
C      1  0.5787190000000  0.4649990000000  0.5246770000000 1.0
C      1  0.5676160000000  0.5326580000000  0.4611700000000 1.0
C      1  0.5422590000000  0.4722600000000  0.4445120000000 1.0
C      1  0.4912920000000  0.5370680000000  0.4156180000000 1.0
C      1  0.4570830000000  0.4810520000000  0.4550590000000 1.0
C      1  0.4209870000000  0.5350010000000  0.4743410000000 1.0
C      1  0.4320900000000  0.4673420000000  0.5378470000000 1.0
C      1  0.4574470000000  0.5277400000000  0.5545060000000 1.0
C      1  0.5084140000000  0.4629320000000  0.5834000000000 1.0
C      1  0.5426230000000  0.5189480000000  0.5439580000000 1.0
C      1  0.4753740000000  0.4534890000000  0.4851440000000 1.0
C      1  0.4599640000000  0.5550240000000  0.4877000000000 1.0
C      1  0.4701350000000  0.4456040000000  0.5274460000000 1.0
C      1  0.4823760000000  0.5494740000000  0.5245070000000 1.0
C      1  0.5104920000000  0.4434070000000  0.5433680000000 1.0
C      1  0.5243310000000  0.5465110000000  0.5138740000000 1.0
C      1  0.5397420000000  0.4449760000000  0.5113180000000 1.0
C      1  0.5295710000000  0.5543960000000  0.4715720000000 1.0
C      1  0.5173300000000  0.4505260000000  0.4745110000000 1.0
C      1  0.4892140000000  0.5565930000000  0.4556500000000 1.0
C      1  0.5954760000000  0.4419110000000  0.5869510000000 1.0
C      1  0.6179210000000  0.5466360000000  0.5061490000000 1.0
C      1  0.5993520000000  0.4554250000000  0.4380640000000 1.0
C      1  0.5465560000000  0.5500020000000  0.3838280000000 1.0
C      1  0.4716930000000  0.4649330000000  0.3968630000000 1.0
C      1  0.4042300000000  0.5580890000000  0.4120660000000 1.0
C      1  0.3817850000000  0.4533640000000  0.4928680000000 1.0
C      1  0.4003540000000  0.5445750000000  0.5609540000000 1.0
C      1  0.4531500000000  0.4499980000000  0.6151890000000 1.0
C      1  0.5280130000000  0.5350670000000  0.6021550000000 1.0
C      1  0.5491660000000  0.4702990000000  0.5595130000000 1.0
C      1  0.5577210000000  0.5110040000000  0.4992950000000 1.0
C      1  0.5576530000000  0.4849650000000  0.4878530000000 1.0
C      1  0.5225990000000  0.5164230000000  0.4414030000000 1.0
C      1  0.5043270000000  0.4950930000000  0.4502000000000 1.0
C      1  0.4505400000000  0.5297010000000  0.4395040000000 1.0
C      1  0.4419850000000  0.4889960000000  0.4997220000000 1.0
C      1  0.4420530000000  0.5150350000000  0.5111650000000 1.0
C      1  0.4771070000000  0.4835770000000  0.5576150000000 1.0
C      1  0.4953790000000  0.5049070000000  0.5488180000000 1.0
C      1  0.4433810000000  0.5344690000000  0.4914530000000 1.0
C      1  0.4604370000000  0.4670120000000  0.5412130000000 1.0
C      1  0.4814040000000  0.5276590000000  0.5397340000000 1.0
C      1  0.5226260000000  0.4614660000000  0.5591650000000 1.0
C      1  0.5392180000000  0.5239150000000  0.5165320000000 1.0
C      1  0.5563250000000  0.4655310000000  0.5075650000000 1.0
C      1  0.5392690000000  0.5329880000000  0.4578050000000 1.0
C      1  0.5183020000000  0.4723410000000  0.4592840000000 1.0
C      1  0.4770800000000  0.5385340000000  0.4398530000000 1.0
C      1  0.4604880000000  0.4760850000000  0.4824860000000 1.0
C      1  0.4218010000000  0.4755770000000  0.5134250000000 1.0
C      1  0.4357280000000  0.5188920000000  0.5394580000000 1.0
C      1  0.4833220000000  0.4743950000000  0.5837700000000 1.0
C      1  0.5215900000000  0.5093330000000  0.5596560000000 1.0
C      1  0.5760410000000  0.4691440000000  0.5517130000000 1.0
C      1  0.5779050000000  0.5244230000000  0.4855930000000 1.0
C      1  0.5639780000000  0.4811080000000  0.4595600000000 1.0
C      1  0.5163840000000  0.5256050000000  0.4152480000000 1.0
C      1  0.4781160000000  0.4906670000000  0.4393620000000 1.0
C      1  0.4236650000000  0.5308560000000  0.4473040000000 1.0
C      1  0.5306410000000  0.5733110000000  0.5364110000000 1.0
C      1  0.5537600000000  0.4175410000000  0.5194270000000 1.0
C      1  0.5493110000000  0.5800370000000  0.4761760000000 1.0
C      1  0.5313420000000  0.4219200000000  0.4602350000000 1.0
C      1  0.4971630000000  0.5841900000000  0.4400810000000 1.0
C      1  0.4690650000000  0.4266890000000  0.4626070000000 1.0
C      1  0.4459460000000  0.5824590000000  0.4795910000000 1.0
C      1  0.4503950000000  0.4199630000000  0.5228420000000 1.0
C      1  0.4683640000000  0.5780800000000  0.5387830000000 1.0
C      1  0.5025430000000  0.4158100000000  0.5589360000000 1.0
C      1  0.3790900000000  0.5343820000000  0.4938540000000 1.0
C      1  0.3982420000000  0.4634160000000  0.5671390000000 1.0
C      1  0.4584210000000  0.5286330000000  0.6028610000000 1.0
C      1  0.5318200000000  0.4612830000000  0.6208750000000 1.0
C      1  0.5844280000000  0.5262560000000  0.5675830000000 1.0
C      1  0.6206160000000  0.4656180000000  0.5051630000000 1.0
C      1  0.6014640000000  0.5365840000000  0.4318790000000 1.0
C      1  0.5412850000000  0.4713670000000  0.3961570000000 1.0
C      1  0.4678860000000  0.5387170000000  0.3781420000000 1.0
C      1  0.4152780000000  0.4737440000000  0.4314350000000 1.0
C      1  0.4972180000000  0.5556970000000  0.4910280000000 1.0
C      1  0.5024880000000  0.4443030000000  0.5079900000000 1.0
C      1  0.4984510000000  0.5816770000000  0.4942100000000 1.0
C      1  0.5012550000000  0.4183230000000  0.5048070000000 1.0
END
