TITL C-3623286-7563-488 -9.80751945917385e-07 125000 -202.164726985171 0 0 33 (C1) n - 1
REM
REM in /home/nfs/bkarasulu/CARBON/AIRSS/Generating-Clusters/LCBOP/Higher-Symm/SD-CG/FIRE-CG
REM
REM
REM
REM
REM
REM ./C.cell (b20cbc046b6831c77cfcea5457e17084)
REM AIRSS Version 0.9.1 bugfix July 2018 build 013d7b7c2542+ Fri, 06 Jul 2018 19:26:36 +0100
REM compiler GCC version 9.2.1 20190827 (Red Hat 9.2.1-1)
REM options -cpp -mtune=generic -march=x86-64 -g -O0 -fpre-include=/usr/include/finclude/math-vector-fortran.h
REM seed 518313590 1640085281 -666410519 -469277848 -1381887507 -169058623 -1135395727 111465172 -167346 -380188949 819608970 -938423951 -1122371438 384144539 -1059334155 442201119 648580219 1605324423 -577950640 -1381292221 1716677627 393085250 -1611381213 1809809146 -1354106364 1752306332 1709206060 -899780919 1117337098 1618852794 -434171692 1698809972 1535397183
REM
CELL 1.54180   50.00000   50.00000   50.00000   90.00000   90.00000   90.00000
LATT -1
SFAC C  
C      1  0.4754510000000  0.4520850000000  0.4854390000000 1.0
C      1  0.5252270000000  0.4519080000000  0.4860320000000 1.0
C      1  0.4997900000000  0.4520180000000  0.5289010000000 1.0
C      1  0.4754350000000  0.5456010000000  0.4854040000000 1.0
C      1  0.5250850000000  0.5456050000000  0.4860300000000 1.0
C      1  0.4997010000000  0.5455900000000  0.5287400000000 1.0
C      1  0.4753760000000  0.4520470000000  0.5146360000000 1.0
C      1  0.5252220000000  0.4519760000000  0.5143010000000 1.0
C      1  0.4999510000000  0.4521540000000  0.4713020000000 1.0
C      1  0.4754140000000  0.5456010000000  0.5146680000000 1.0
C      1  0.5250980000000  0.5455920000000  0.5140990000000 1.0
C      1  0.4997360000000  0.5455910000000  0.4713610000000 1.0
C      1  0.5008950000000  0.4743670000000  0.5476150000000 1.0
C      1  0.4584060000000  0.4744470000000  0.4767450000000 1.0
C      1  0.5411690000000  0.4744580000000  0.4756280000000 1.0
C      1  0.5008140000000  0.5236300000000  0.5474260000000 1.0
C      1  0.4585520000000  0.5237860000000  0.4769130000000 1.0
C      1  0.5407870000000  0.5236900000000  0.4756560000000 1.0
C      1  0.5010230000000  0.4743420000000  0.4525050000000 1.0
C      1  0.4583460000000  0.4744480000000  0.5232740000000 1.0
C      1  0.5408320000000  0.4743610000000  0.5246170000000 1.0
C      1  0.5008320000000  0.5237270000000  0.4525880000000 1.0
C      1  0.4585110000000  0.5237710000000  0.5231180000000 1.0
C      1  0.5407100000000  0.5236190000000  0.5244250000000 1.0
C      1  0.5274060000000  0.4851650000000  0.5474750000000 1.0
C      1  0.5274790000000  0.4851800000000  0.4522380000000 1.0
C      1  0.4446010000000  0.4852140000000  0.4999870000000 1.0
C      1  0.5274160000000  0.5130730000000  0.4523180000000 1.0
C      1  0.5273820000000  0.5129270000000  0.5474180000000 1.0
C      1  0.4447500000000  0.5132140000000  0.4999930000000 1.0
C      1  0.5459220000000  0.4978200000000  0.4991130000000 1.0
C      1  0.4762790000000  0.4978460000000  0.5392350000000 1.0
C      1  0.4764000000000  0.4978600000000  0.4607990000000 1.0
END
