TITL C-3623288-6813-702 48672.2631125605 125000 -700.521518410816 0 0 119 (C1) n - 1
REM
REM in /home/nfs/bkarasulu/CARBON/AIRSS/Generating-Clusters/LCBOP/Higher-Symm/SD-CG/FIRE-CG
REM
REM
REM
REM
REM
REM ./C.cell (b20cbc046b6831c77cfcea5457e17084)
REM AIRSS Version 0.9.1 bugfix July 2018 build 013d7b7c2542+ Fri, 06 Jul 2018 19:26:36 +0100
REM compiler GCC version 9.2.1 20190827 (Red Hat 9.2.1-1)
REM options -cpp -mtune=generic -march=x86-64 -g -O0 -fpre-include=/usr/include/finclude/math-vector-fortran.h
REM seed -550018419 -147742918 790025779 1465234820 61514041 722339937 -279099255 586256344 -529587569 1181487501 -742107785 12377642 -252515997 826229842 -429827552 -286178401 -1459304045 2119929055 -959518326 708508741 -608492258 879271950 -1900996533 -941412630 1429882840 65737729 459883291 144286636 -2122666058 -274380628 2146828831 1622855928 -1554516911
REM
CELL 1.54180   50.00000   50.00000   50.00000   90.00000   90.00000   90.00000
LATT -1
SFAC C  
C      1  0.4958840000000  0.5252940000000  0.5896150000000 1.0
C      1  0.4732040000000  0.5030350000000  0.5929880000000 1.0
C      1  0.4890270000000  0.4755110000000  0.5920650000000 1.0
C      1  0.5197400000000  0.4819580000000  0.5881240000000 1.0
C      1  0.5236890000000  0.5123950000000  0.5873350000000 1.0
C      1  0.4319670000000  0.5715180000000  0.5038010000000 1.0
C      1  0.4078350000000  0.4566900000000  0.5074360000000 1.0
C      1  0.5109010000000  0.4013790000000  0.5035540000000 1.0
C      1  0.5952000000000  0.4842350000000  0.5016990000000 1.0
C      1  0.5476780000000  0.5904090000000  0.5051310000000 1.0
C      1  0.4577790000000  0.4673850000000  0.4223120000000 1.0
C      1  0.5161460000000  0.4462310000000  0.4234310000000 1.0
C      1  0.5470140000000  0.5080740000000  0.4289330000000 1.0
C      1  0.5165140000000  0.5571600000000  0.4195390000000 1.0
C      1  0.4693580000000  0.5273300000000  0.4218250000000 1.0
C      1  0.5640880000000  0.5634800000000  0.5420510000000 1.0
C      1  0.4638330000000  0.5722600000000  0.5370880000000 1.0
C      1  0.4107970000000  0.4880510000000  0.5446150000000 1.0
C      1  0.4854120000000  0.4172250000000  0.5410420000000 1.0
C      1  0.5764220000000  0.4610080000000  0.5399760000000 1.0
C      1  0.4123720000000  0.5321660000000  0.5317980000000 1.0
C      1  0.4405620000000  0.4243320000000  0.5330670000000 1.0
C      1  0.5511720000000  0.4238680000000  0.5288030000000 1.0
C      1  0.5919550000000  0.5288030000000  0.5289810000000 1.0
C      1  0.5024170000000  0.5956980000000  0.5306790000000 1.0
C      1  0.5851050000000  0.5459390000000  0.5051790000000 1.0
C      1  0.4852750000000  0.5960100000000  0.5057140000000 1.0
C      1  0.4060110000000  0.5150510000000  0.5079180000000 1.0
C      1  0.4545680000000  0.4150160000000  0.5079880000000 1.0
C      1  0.5634420000000  0.4355480000000  0.5041320000000 1.0
C      1  0.5063080000000  0.4467050000000  0.4970300000000 1.0
C      1  0.5540490000000  0.5071130000000  0.5027290000000 1.0
C      1  0.5185220000000  0.5534260000000  0.4990580000000 1.0
C      1  0.4545900000000  0.5244430000000  0.4927430000000 1.0
C      1  0.4523360000000  0.4714750000000  0.5024540000000 1.0
C      1  0.5433420000000  0.4664960000000  0.5782350000000 1.0
C      1  0.5464890000000  0.5303910000000  0.5775900000000 1.0
C      1  0.4858130000000  0.5499960000000  0.5760150000000 1.0
C      1  0.4446340000000  0.5015640000000  0.5814320000000 1.0
C      1  0.4811270000000  0.4482730000000  0.5808230000000 1.0
C      1  0.4618750000000  0.4280500000000  0.5551670000000 1.0
C      1  0.5555930000000  0.4432990000000  0.5516030000000 1.0
C      1  0.5744840000000  0.5376850000000  0.5527400000000 1.0
C      1  0.4884120000000  0.5783270000000  0.5516400000000 1.0
C      1  0.4199880000000  0.5142790000000  0.5551890000000 1.0
C      1  0.4579910000000  0.5846620000000  0.5118420000000 1.0
C      1  0.4032140000000  0.4858810000000  0.5164350000000 1.0
C      1  0.4829610000000  0.4064280000000  0.5142890000000 1.0
C      1  0.5819980000000  0.4586330000000  0.5114740000000 1.0
C      1  0.5690350000000  0.5703270000000  0.5140450000000 1.0
C      1  0.4118970000000  0.5016040000000  0.4629570000000 1.0
C      1  0.4677330000000  0.4175510000000  0.4633070000000 1.0
C      1  0.5598540000000  0.4524710000000  0.4604840000000 1.0
C      1  0.5701840000000  0.5518290000000  0.4605660000000 1.0
C      1  0.4760380000000  0.5818920000000  0.4621580000000 1.0
C      1  0.5055660000000  0.4438100000000  0.4488350000000 1.0
C      1  0.5318470000000  0.5092440000000  0.4522820000000 1.0
C      1  0.5132830000000  0.5550230000000  0.4460840000000 1.0
C      1  0.4792180000000  0.5180000000000  0.4461670000000 1.0
C      1  0.4573630000000  0.4687780000000  0.4490370000000 1.0
C      1  0.5216740000000  0.5504290000000  0.5272420000000 1.0
C      1  0.4655340000000  0.5281670000000  0.5176770000000 1.0
C      1  0.4514470000000  0.4692860000000  0.5306920000000 1.0
C      1  0.5126880000000  0.4525970000000  0.5238350000000 1.0
C      1  0.5550690000000  0.5020610000000  0.5309180000000 1.0
C      1  0.5342090000000  0.5560100000000  0.5747660000000 1.0
C      1  0.4604230000000  0.5406620000000  0.5667460000000 1.0
C      1  0.4376390000000  0.4741720000000  0.5780730000000 1.0
C      1  0.5068380000000  0.4380940000000  0.5731310000000 1.0
C      1  0.5652190000000  0.4847170000000  0.5762590000000 1.0
C      1  0.5361880000000  0.5641790000000  0.5477980000000 1.0
C      1  0.4574240000000  0.5445850000000  0.5390850000000 1.0
C      1  0.4307310000000  0.4690890000000  0.5509590000000 1.0
C      1  0.5079250000000  0.4344090000000  0.5451340000000 1.0
C      1  0.5722970000000  0.4878290000000  0.5488580000000 1.0
C      1  0.5298920000000  0.6020090000000  0.5250400000000 1.0
C      1  0.4158920000000  0.5596850000000  0.5248330000000 1.0
C      1  0.4148570000000  0.4361270000000  0.5270720000000 1.0
C      1  0.5326720000000  0.4026050000000  0.5230990000000 1.0
C      1  0.6042580000000  0.5039130000000  0.5212140000000 1.0
C      1  0.5530000000000  0.5735650000000  0.4610800000000 1.0
C      1  0.4514830000000  0.5687100000000  0.4613500000000 1.0
C      1  0.4129460000000  0.4737670000000  0.4633870000000 1.0
C      1  0.4968850000000  0.4181820000000  0.4592060000000 1.0
C      1  0.5743100000000  0.4761160000000  0.4597580000000 1.0
C      1  0.5280210000000  0.5014930000000  0.5376810000000 1.0
C      1  0.5123440000000  0.5253380000000  0.5343000000000 1.0
C      1  0.4909710000000  0.5176060000000  0.5174690000000 1.0
C      1  0.4754360000000  0.4751060000000  0.5423660000000 1.0
C      1  0.5152740000000  0.4803200000000  0.5234100000000 1.0
C      1  0.4613870000000  0.5212560000000  0.4673910000000 1.0
C      1  0.4572190000000  0.4717980000000  0.4758940000000 1.0
C      1  0.5053520000000  0.4601160000000  0.4721130000000 1.0
C      1  0.5439330000000  0.5099590000000  0.4780180000000 1.0
C      1  0.5132640000000  0.5500890000000  0.4727630000000 1.0
C      1  0.5170520000000  0.5476910000000  0.3944200000000 1.0
C      1  0.4665710000000  0.5271940000000  0.3952500000000 1.0
C      1  0.4662870000000  0.4718740000000  0.3973110000000 1.0
C      1  0.5198510000000  0.4550230000000  0.3986100000000 1.0
C      1  0.5494090000000  0.5036390000000  0.4026920000000 1.0
C      1  0.4982710000000  0.5919310000000  0.4795430000000 1.0
C      1  0.4128320000000  0.5248750000000  0.4807870000000 1.0
C      1  0.4459310000000  0.4256330000000  0.4817690000000 1.0
C      1  0.5495390000000  0.4318050000000  0.4785120000000 1.0
C      1  0.5833780000000  0.5330450000000  0.4784820000000 1.0
C      1  0.4299450000000  0.5571290000000  0.4781950000000 1.0
C      1  0.4190650000000  0.4505960000000  0.4808280000000 1.0
C      1  0.5196800000000  0.4107510000000  0.4773520000000 1.0
C      1  0.5871370000000  0.4966450000000  0.4762760000000 1.0
C      1  0.5348810000000  0.5885490000000  0.4786970000000 1.0
C      1  0.5132650000000  0.4771220000000  0.3829530000000 1.0
C      1  0.5294810000000  0.5011580000000  0.3831550000000 1.0
C      1  0.5120240000000  0.5242100000000  0.3796270000000 1.0
C      1  0.4847000000000  0.5139310000000  0.3784990000000 1.0
C      1  0.4853290000000  0.4849230000000  0.3812170000000 1.0
C      1  0.5034580000000  0.5049060000000  0.4537630000000 1.0
C      1  0.4991320000000  0.4945840000000  0.5029200000000 1.0
C      1  0.4875070000000  0.4948300000000  0.5532650000000 1.0
C      1  0.5004110000000  0.4871280000000  0.4758240000000 1.0
END
