TITL C-3623289-7120-11 -4.82730335102562e-07 125000 -376.985298715945 0 0 63 (C1) n - 1
REM
REM in /home/nfs/bkarasulu/CARBON/AIRSS/Generating-Clusters/LCBOP/Higher-Symm/SD-CG/FIRE-CG
REM
REM
REM
REM
REM
REM ./C.cell (b20cbc046b6831c77cfcea5457e17084)
REM AIRSS Version 0.9.1 bugfix July 2018 build 013d7b7c2542+ Fri, 06 Jul 2018 19:26:36 +0100
REM compiler GCC version 9.2.1 20190827 (Red Hat 9.2.1-1)
REM options -cpp -mtune=generic -march=x86-64 -g -O0 -fpre-include=/usr/include/finclude/math-vector-fortran.h
REM seed 1606639373 -426885405 846737684 -1704836375 482406239 363801491 -103399830 -1818146112 112653920 -1111396274 1490010553 516279319 -924992848 -424347049 -1795831191 508460521 -807553145 -58366210 1299239556 -1470019589 1770220398 -1172386751 -1143008204 277541967 2101491508 944175051 1462105459 307296094 1981249193 77078653 2012735099 2022187098 -1848711378
REM
CELL 1.54180   50.00000   50.00000   50.00000   90.00000   90.00000   90.00000
LATT -1
SFAC C  
C      1  0.5699570000000  0.5551640000000  0.5002880000000 1.0
C      1  0.5735430000000  0.4753000000000  0.5434610000000 1.0
C      1  0.5727930000000  0.4779050000000  0.4524330000000 1.0
C      1  0.5904420000000  0.5163090000000  0.5228410000000 1.0
C      1  0.5917080000000  0.4762130000000  0.4975370000000 1.0
C      1  0.5899940000000  0.5181290000000  0.4754350000000 1.0
C      1  0.4763880000000  0.5170520000000  0.6197000000000 1.0
C      1  0.4800300000000  0.4078000000000  0.5068810000000 1.0
C      1  0.4804160000000  0.5993040000000  0.4181280000000 1.0
C      1  0.5322960000000  0.5520690000000  0.4483250000000 1.0
C      1  0.5312590000000  0.5171530000000  0.5690390000000 1.0
C      1  0.5389540000000  0.4312520000000  0.4795420000000 1.0
C      1  0.4404710000000  0.5578640000000  0.4996630000000 1.0
C      1  0.4440930000000  0.4589870000000  0.5473780000000 1.0
C      1  0.4439530000000  0.4752600000000  0.4534330000000 1.0
C      1  0.4412690000000  0.5867570000000  0.5013920000000 1.0
C      1  0.4235680000000  0.4435840000000  0.5580890000000 1.0
C      1  0.4211880000000  0.4743590000000  0.4374980000000 1.0
C      1  0.4676060000000  0.4887760000000  0.4453330000000 1.0
C      1  0.4647360000000  0.5494010000000  0.5146430000000 1.0
C      1  0.4687520000000  0.4474830000000  0.5388820000000 1.0
C      1  0.4852080000000  0.4356730000000  0.4697910000000 1.0
C      1  0.4796550000000  0.5627750000000  0.4578740000000 1.0
C      1  0.4805290000000  0.4986080000000  0.5691870000000 1.0
C      1  0.4657020000000  0.4469600000000  0.4889080000000 1.0
C      1  0.4605940000000  0.5414860000000  0.4575660000000 1.0
C      1  0.4618030000000  0.5063150000000  0.5491970000000 1.0
C      1  0.5507810000000  0.4752920000000  0.5573120000000 1.0
C      1  0.5508180000000  0.4637810000000  0.4470380000000 1.0
C      1  0.5468690000000  0.5654180000000  0.4918010000000 1.0
C      1  0.5096890000000  0.4886330000000  0.4222610000000 1.0
C      1  0.5062720000000  0.5739080000000  0.5291730000000 1.0
C      1  0.5149090000000  0.4354600000000  0.5472270000000 1.0
C      1  0.4780370000000  0.5078540000000  0.5953750000000 1.0
C      1  0.4895340000000  0.4090930000000  0.4807920000000 1.0
C      1  0.4796630000000  0.5817080000000  0.4373320000000 1.0
C      1  0.5257200000000  0.5620900000000  0.4738360000000 1.0
C      1  0.5277110000000  0.4897180000000  0.5637900000000 1.0
C      1  0.5305450000000  0.4484700000000  0.4588620000000 1.0
C      1  0.5859860000000  0.5323730000000  0.4998300000000 1.0
C      1  0.5878750000000  0.4879060000000  0.5231620000000 1.0
C      1  0.5874070000000  0.4899440000000  0.4728970000000 1.0
C      1  0.4924000000000  0.4752010000000  0.4399920000000 1.0
C      1  0.4864530000000  0.5714260000000  0.5075630000000 1.0
C      1  0.4941430000000  0.4541250000000  0.5509490000000 1.0
C      1  0.4672950000000  0.5954720000000  0.5054700000000 1.0
C      1  0.4045670000000  0.4287100000000  0.5679300000000 1.0
C      1  0.3999920000000  0.4740570000000  0.4223400000000 1.0
C      1  0.4420280000000  0.4869160000000  0.5444890000000 1.0
C      1  0.4453830000000  0.4627240000000  0.4784450000000 1.0
C      1  0.4382050000000  0.5450960000000  0.4746470000000 1.0
C      1  0.5205110000000  0.5635390000000  0.5490560000000 1.0
C      1  0.5323060000000  0.4248380000000  0.5300630000000 1.0
C      1  0.5239070000000  0.5108800000000  0.4186300000000 1.0
C      1  0.5023340000000  0.4524510000000  0.4546880000000 1.0
C      1  0.4980930000000  0.5654800000000  0.4799870000000 1.0
C      1  0.5008760000000  0.4798600000000  0.5618940000000 1.0
C      1  0.5411040000000  0.4237260000000  0.5049630000000 1.0
C      1  0.5320700000000  0.5340930000000  0.4287520000000 1.0
C      1  0.5293230000000  0.5430340000000  0.5634470000000 1.0
C      1  0.4655740000000  0.5287290000000  0.5330640000000 1.0
C      1  0.4683130000000  0.4332220000000  0.5145710000000 1.0
C      1  0.4664030000000  0.5168370000000  0.4459290000000 1.0
END
