TITL C-3623282-6910-124 1746.59403354232 125000 -928.72120344597 0 0 155 (C1) n - 1
REM
REM in /home/nfs/bkarasulu/CARBON/AIRSS/Generating-Clusters/LCBOP/Higher-Symm/SD-CG/FIRE-CG
REM
REM
REM
REM
REM
REM ./C.cell (b20cbc046b6831c77cfcea5457e17084)
REM AIRSS Version 0.9.1 bugfix July 2018 build 013d7b7c2542+ Fri, 06 Jul 2018 19:26:36 +0100
REM compiler GCC version 9.2.1 20190827 (Red Hat 9.2.1-1)
REM options -cpp -mtune=generic -march=x86-64 -g -O0 -fpre-include=/usr/include/finclude/math-vector-fortran.h
REM seed -39234762 -910938577 1591805405 -1025306435 -515164917 -568290728 1443477585 970471850 -1948475411 1840184809 279999720 -664985304 1717378615 -848287745 1220869526 93711727 -300821269 -1425396052 -941511002 -890656857 1052289279 1610128320 1276377360 45008883 -2104153045 -601937990 514832423 -2047775783 541031969 1872943810 -405236443 1198530521 -1496555967
REM
CELL 1.54180   50.00000   50.00000   50.00000   90.00000   90.00000   90.00000
LATT -1
SFAC C  
C      1  0.4505690000000  0.5072100000000  0.5339880000000 1.0
C      1  0.5700580000000  0.5262080000000  0.4602010000000 1.0
C      1  0.4416700000000  0.4974490000000  0.4331280000000 1.0
C      1  0.5755210000000  0.5207090000000  0.5532090000000 1.0
C      1  0.5397120000000  0.4426020000000  0.4631550000000 1.0
C      1  0.4687340000000  0.4474030000000  0.5262640000000 1.0
C      1  0.5464470000000  0.4237690000000  0.5125940000000 1.0
C      1  0.4874830000000  0.4426830000000  0.4689350000000 1.0
C      1  0.6024150000000  0.4652770000000  0.5169300000000 1.0
C      1  0.4140980000000  0.4518890000000  0.4548950000000 1.0
C      1  0.5972860000000  0.4720840000000  0.4663170000000 1.0
C      1  0.4019660000000  0.4680180000000  0.5003950000000 1.0
C      1  0.4541820000000  0.5850290000000  0.4247310000000 1.0
C      1  0.5370270000000  0.5790200000000  0.5960980000000 1.0
C      1  0.4574600000000  0.5548310000000  0.5902080000000 1.0
C      1  0.5296550000000  0.5801000000000  0.4218760000000 1.0
C      1  0.5576850000000  0.4364730000000  0.5372940000000 1.0
C      1  0.4695000000000  0.4431430000000  0.4451720000000 1.0
C      1  0.5557880000000  0.4476670000000  0.4394710000000 1.0
C      1  0.4409210000000  0.4470900000000  0.5346160000000 1.0
C      1  0.4856170000000  0.4398320000000  0.4210460000000 1.0
C      1  0.5385240000000  0.4321880000000  0.5605910000000 1.0
C      1  0.4424310000000  0.4280110000000  0.5564590000000 1.0
C      1  0.5386510000000  0.4426170000000  0.4163850000000 1.0
C      1  0.4368400000000  0.5493000000000  0.3913280000000 1.0
C      1  0.5603380000000  0.5433310000000  0.6198050000000 1.0
C      1  0.4539740000000  0.5081010000000  0.6050790000000 1.0
C      1  0.5398660000000  0.5345920000000  0.4008550000000 1.0
C      1  0.5637600000000  0.5243920000000  0.5995850000000 1.0
C      1  0.4372390000000  0.5225430000000  0.3901840000000 1.0
C      1  0.5509000000000  0.5156780000000  0.4184320000000 1.0
C      1  0.4651830000000  0.4941550000000  0.5833630000000 1.0
C      1  0.5363540000000  0.4173730000000  0.4034220000000 1.0
C      1  0.4645940000000  0.4135200000000  0.5649460000000 1.0
C      1  0.5177720000000  0.4109360000000  0.5638000000000 1.0
C      1  0.4885100000000  0.4147850000000  0.4078010000000 1.0
C      1  0.4646660000000  0.4925350000000  0.4509020000000 1.0
C      1  0.5540770000000  0.5018930000000  0.5608350000000 1.0
C      1  0.4687640000000  0.4969460000000  0.5143910000000 1.0
C      1  0.5533010000000  0.5023230000000  0.4640400000000 1.0
C      1  0.5501700000000  0.6076280000000  0.5323490000000 1.0
C      1  0.4275140000000  0.5801720000000  0.4894850000000 1.0
C      1  0.5447570000000  0.6103480000000  0.4819050000000 1.0
C      1  0.4319180000000  0.5832500000000  0.5369090000000 1.0
C      1  0.5430840000000  0.5343080000000  0.5209740000000 1.0
C      1  0.4254850000000  0.5277640000000  0.4660200000000 1.0
C      1  0.5476510000000  0.5630280000000  0.4844560000000 1.0
C      1  0.4583610000000  0.5403280000000  0.5028380000000 1.0
C      1  0.5711560000000  0.5451440000000  0.4812370000000 1.0
C      1  0.4413460000000  0.5322010000000  0.5251930000000 1.0
C      1  0.5713430000000  0.5345030000000  0.5289780000000 1.0
C      1  0.4201950000000  0.5112290000000  0.4455130000000 1.0
C      1  0.4934930000000  0.4888490000000  0.5817590000000 1.0
C      1  0.5388650000000  0.4967160000000  0.4386000000000 1.0
C      1  0.4900390000000  0.4974610000000  0.4398770000000 1.0
C      1  0.5422240000000  0.5085310000000  0.5867030000000 1.0
C      1  0.5382760000000  0.5857840000000  0.4696010000000 1.0
C      1  0.4546030000000  0.5805230000000  0.5510080000000 1.0
C      1  0.5404140000000  0.5908610000000  0.5507210000000 1.0
C      1  0.4476090000000  0.5861200000000  0.4723310000000 1.0
C      1  0.5749010000000  0.4589780000000  0.5248250000000 1.0
C      1  0.4427470000000  0.4526900000000  0.4564610000000 1.0
C      1  0.5813440000000  0.4604490000000  0.4466160000000 1.0
C      1  0.4280950000000  0.4613050000000  0.5114390000000 1.0
C      1  0.4422430000000  0.5007400000000  0.4051770000000 1.0
C      1  0.5840290000000  0.5296020000000  0.5792160000000 1.0
C      1  0.4506180000000  0.4961550000000  0.5594000000000 1.0
C      1  0.5739000000000  0.5270550000000  0.4322470000000 1.0
C      1  0.5353090000000  0.5610450000000  0.4038020000000 1.0
C      1  0.4491930000000  0.5345620000000  0.6055320000000 1.0
C      1  0.5505080000000  0.5680860000000  0.6164080000000 1.0
C      1  0.4433730000000  0.5717670000000  0.4042200000000 1.0
C      1  0.4659480000000  0.5843320000000  0.4505470000000 1.0
C      1  0.5251670000000  0.5774700000000  0.5704350000000 1.0
C      1  0.4717440000000  0.5665780000000  0.5686240000000 1.0
C      1  0.5192780000000  0.5833030000000  0.4481610000000 1.0
C      1  0.5119600000000  0.4504840000000  0.5239140000000 1.0
C      1  0.5132300000000  0.4769870000000  0.4850320000000 1.0
C      1  0.4483490000000  0.4643410000000  0.4863110000000 1.0
C      1  0.5607610000000  0.4655780000000  0.4990620000000 1.0
C      1  0.4526420000000  0.4154530000000  0.4932650000000 1.0
C      1  0.5807510000000  0.4202320000000  0.4805040000000 1.0
C      1  0.4913620000000  0.4526290000000  0.5436470000000 1.0
C      1  0.5135710000000  0.4579770000000  0.4634540000000 1.0
C      1  0.5078080000000  0.4755840000000  0.3624350000000 1.0
C      1  0.5480980000000  0.4604360000000  0.6269460000000 1.0
C      1  0.4914970000000  0.5498520000000  0.3247570000000 1.0
C      1  0.4898400000000  0.6022180000000  0.5985820000000 1.0
C      1  0.4585900000000  0.4941820000000  0.4832880000000 1.0
C      1  0.5522880000000  0.4913760000000  0.4902480000000 1.0
C      1  0.5022570000000  0.4645850000000  0.5685300000000 1.0
C      1  0.5133920000000  0.4784240000000  0.4386760000000 1.0
C      1  0.4825270000000  0.5538260000000  0.5048250000000 1.0
C      1  0.5313450000000  0.5565310000000  0.5077360000000 1.0
C      1  0.5064270000000  0.5331930000000  0.5656310000000 1.0
C      1  0.4921700000000  0.5448410000000  0.4463450000000 1.0
C      1  0.4908340000000  0.6127530000000  0.5735140000000 1.0
C      1  0.4917820000000  0.5569800000000  0.2996830000000 1.0
C      1  0.4482410000000  0.5237280000000  0.4818410000000 1.0
C      1  0.5401570000000  0.5088220000000  0.5091170000000 1.0
C      1  0.5565760000000  0.4367140000000  0.4872360000000 1.0
C      1  0.4698790000000  0.4417710000000  0.4951740000000 1.0
C      1  0.4910150000000  0.5337920000000  0.3752570000000 1.0
C      1  0.4978380000000  0.5551900000000  0.6210580000000 1.0
C      1  0.5007860000000  0.5610300000000  0.5662500000000 1.0
C      1  0.4924870000000  0.5725990000000  0.4514170000000 1.0
C      1  0.4904690000000  0.4023160000000  0.5575810000000 1.0
C      1  0.5125210000000  0.4047030000000  0.3998950000000 1.0
C      1  0.6051430000000  0.4124850000000  0.4884660000000 1.0
C      1  0.4265380000000  0.4084120000000  0.4922690000000 1.0
C      1  0.5865490000000  0.5343800000000  0.5042470000000 1.0
C      1  0.4144940000000  0.5415290000000  0.5200040000000 1.0
C      1  0.3927350000000  0.4944760000000  0.5057520000000 1.0
C      1  0.6039870000000  0.4832370000000  0.4931390000000 1.0
C      1  0.5280830000000  0.4538220000000  0.5768620000000 1.0
C      1  0.5112720000000  0.4586860000000  0.4153200000000 1.0
C      1  0.5078690000000  0.4773750000000  0.3364280000000 1.0
C      1  0.5571200000000  0.4645120000000  0.6510610000000 1.0
C      1  0.4910990000000  0.5272640000000  0.4009850000000 1.0
C      1  0.5045040000000  0.5300710000000  0.6128670000000 1.0
C      1  0.6232370000000  0.4221100000000  0.5059280000000 1.0
C      1  0.4024630000000  0.4205180000000  0.4883270000000 1.0
C      1  0.5389740000000  0.4582120000000  0.6021690000000 1.0
C      1  0.5083600000000  0.4714960000000  0.3886020000000 1.0
C      1  0.4188700000000  0.5703850000000  0.5150350000000 1.0
C      1  0.5507270000000  0.6169410000000  0.5072660000000 1.0
C      1  0.4922140000000  0.5813780000000  0.6159820000000 1.0
C      1  0.4912710000000  0.5422470000000  0.3501440000000 1.0
C      1  0.4925310000000  0.5233900000000  0.4286120000000 1.0
C      1  0.5121470000000  0.5130990000000  0.5880120000000 1.0
C      1  0.6031780000000  0.5115080000000  0.4985770000000 1.0
C      1  0.3963710000000  0.5205170000000  0.5131450000000 1.0
C      1  0.6222250000000  0.4453490000000  0.5196520000000 1.0
C      1  0.3987130000000  0.4475250000000  0.4791250000000 1.0
C      1  0.4824270000000  0.6857690000000  0.5077030000000 1.0
C      1  0.4929910000000  0.6146240000000  0.5448040000000 1.0
C      1  0.4951940000000  0.4954170000000  0.5221690000000 1.0
C      1  0.5031610000000  0.4011660000000  0.5123020000000 1.0
C      1  0.4318250000000  0.2680640000000  0.5171630000000 1.0
C      1  0.4426980000000  0.2920020000000  0.5204750000000 1.0
C      1  0.4757670000000  0.7544590000000  0.4690980000000 1.0
C      1  0.5184030000000  0.4245170000000  0.5137730000000 1.0
C      1  0.5053090000000  0.5683660000000  0.5130680000000 1.0
C      1  0.4539060000000  0.3157880000000  0.5237710000000 1.0
C      1  0.4211430000000  0.2440320000000  0.5138500000000 1.0
C      1  0.4880340000000  0.6396930000000  0.5332440000000 1.0
C      1  0.4779130000000  0.7318080000000  0.4818250000000 1.0
C      1  0.4778210000000  0.3626280000000  0.5301810000000 1.0
C      1  0.4801220000000  0.7087770000000  0.4947600000000 1.0
C      1  0.4997750000000  0.5930870000000  0.5267630000000 1.0
C      1  0.4107020000000  0.2203670000000  0.5105940000000 1.0
C      1  0.4656160000000  0.3393340000000  0.5270360000000 1.0
C      1  0.4849450000000  0.6627780000000  0.5206350000000 1.0
C      1  0.4898760000000  0.3874240000000  0.5329510000000 1.0
C      1  0.5115260000000  0.4756700000000  0.5117630000000 1.0
END
