TITL C-3623285-6872-1978 -1.25323977659717e-06 125000 -954.05816899293 0 0 160 (C2) n - 1
REM
REM in /home/nfs/bkarasulu/CARBON/AIRSS/Generating-Clusters/LCBOP/Higher-Symm/SD-CG/FIRE-CG
REM
REM
REM
REM
REM
REM ./C.cell (b20cbc046b6831c77cfcea5457e17084)
REM AIRSS Version 0.9.1 bugfix July 2018 build 013d7b7c2542+ Fri, 06 Jul 2018 19:26:36 +0100
REM compiler GCC version 9.2.1 20190827 (Red Hat 9.2.1-1)
REM options -cpp -mtune=generic -march=x86-64 -g -O0 -fpre-include=/usr/include/finclude/math-vector-fortran.h
REM seed -1504457027 1217238225 -525096955 829146775 -1102058492 -1557643467 1110728188 946182357 -2044100166 -964623823 1605158153 792460052 1772309367 345887239 1642902057 -1556735315 -208407030 564600032 1218999426 -2063908837 543239438 -471349804 -2060668892 -2119916729 -142758855 -1204651789 -2086622159 -505712125 -9993507 917174480 1068191265 1398093301 1330470135
REM
CELL 1.54180   50.00000   50.00000   50.00000   90.00000   90.00000   90.00000
LATT -1
SFAC C  
C      1  0.4127930000000  0.4190400000000  0.4466520000000 1.0
C      1  0.4534840000000  0.4123080000000  0.4159070000000 1.0
C      1  0.4224410000000  0.4510130000000  0.4108510000000 1.0
C      1  0.5811100000000  0.4190310000000  0.5410460000000 1.0
C      1  0.4127930000000  0.5806950000000  0.5534260000000 1.0
C      1  0.5811540000000  0.5806530000000  0.4591100000000 1.0
C      1  0.5422690000000  0.4160810000000  0.5708550000000 1.0
C      1  0.4534720000000  0.5874150000000  0.5841900000000 1.0
C      1  0.5423270000000  0.5836150000000  0.4292830000000 1.0
C      1  0.5796980000000  0.4447460000000  0.5830170000000 1.0
C      1  0.4224150000000  0.5487200000000  0.5892320000000 1.0
C      1  0.5797530000000  0.5549390000000  0.4171380000000 1.0
C      1  0.4942810000000  0.4701700000000  0.6156700000000 1.0
C      1  0.6183700000000  0.4872310000000  0.4613490000000 1.0
C      1  0.4548500000000  0.6141940000000  0.4794000000000 1.0
C      1  0.5302330000000  0.4571420000000  0.3928140000000 1.0
C      1  0.4943440000000  0.5295400000000  0.3844460000000 1.0
C      1  0.5301960000000  0.5425570000000  0.6073190000000 1.0
C      1  0.3996800000000  0.4808800000000  0.5366450000000 1.0
C      1  0.6183560000000  0.5124410000000  0.5388240000000 1.0
C      1  0.3997030000000  0.5188600000000  0.4634280000000 1.0
C      1  0.5300640000000  0.6198260000000  0.5115360000000 1.0
C      1  0.4548060000000  0.3855290000000  0.5206980000000 1.0
C      1  0.5300330000000  0.3798730000000  0.4885970000000 1.0
C      1  0.4845770000000  0.5804560000000  0.4779830000000 1.0
C      1  0.4727070000000  0.5065300000000  0.6019070000000 1.0
C      1  0.5881050000000  0.4672870000000  0.4868550000000 1.0
C      1  0.4971940000000  0.6065200000000  0.5380460000000 1.0
C      1  0.4845420000000  0.4192580000000  0.5221290000000 1.0
C      1  0.4971790000000  0.3931890000000  0.4620710000000 1.0
C      1  0.5393150000000  0.4943500000000  0.4193050000000 1.0
C      1  0.4727520000000  0.4931870000000  0.3981990000000 1.0
C      1  0.5392790000000  0.5053470000000  0.5808320000000 1.0
C      1  0.4200290000000  0.4633980000000  0.5004740000000 1.0
C      1  0.5881090000000  0.5323950000000  0.5133050000000 1.0
C      1  0.4200410000000  0.5363360000000  0.4996080000000 1.0
C      1  0.5799290000000  0.4579630000000  0.4327630000000 1.0
C      1  0.4301190000000  0.5735080000000  0.4567460000000 1.0
C      1  0.4554330000000  0.4494850000000  0.5834620000000 1.0
C      1  0.4332720000000  0.4499550000000  0.5630940000000 1.0
C      1  0.5799110000000  0.5417210000000  0.5673920000000 1.0
C      1  0.4333170000000  0.5497740000000  0.4369940000000 1.0
C      1  0.5546570000000  0.5879390000000  0.5482180000000 1.0
C      1  0.4300770000000  0.4262220000000  0.5433400000000 1.0
C      1  0.5546520000000  0.4117530000000  0.4519250000000 1.0
C      1  0.5553020000000  0.4333080000000  0.4312410000000 1.0
C      1  0.4554870000000  0.5502370000000  0.4166360000000 1.0
C      1  0.5552910000000  0.5663840000000  0.5689030000000 1.0
C      1  0.5056880000000  0.5195150000000  0.4622150000000 1.0
C      1  0.4535270000000  0.5135040000000  0.5343370000000 1.0
C      1  0.5171530000000  0.4530270000000  0.5011900000000 1.0
C      1  0.4845580000000  0.5406960000000  0.5574730000000 1.0
C      1  0.5056650000000  0.4801920000000  0.5379060000000 1.0
C      1  0.4845720000000  0.4590180000000  0.4426380000000 1.0
C      1  0.5584610000000  0.5259480000000  0.4764790000000 1.0
C      1  0.4535390000000  0.4862190000000  0.4657610000000 1.0
C      1  0.5584420000000  0.4737430000000  0.5236670000000 1.0
C      1  0.4606510000000  0.4277050000000  0.4693070000000 1.0
C      1  0.5171680000000  0.5466760000000  0.4989370000000 1.0
C      1  0.4606590000000  0.5720160000000  0.5307930000000 1.0
C      1  0.5215280000000  0.4839300000000  0.3984550000000 1.0
C      1  0.4062240000000  0.5120080000000  0.4910500000000 1.0
C      1  0.4806600000000  0.3930170000000  0.5090710000000 1.0
C      1  0.4986260000000  0.4991430000000  0.6120490000000 1.0
C      1  0.5214870000000  0.5157720000000  0.6016730000000 1.0
C      1  0.4986780000000  0.5005660000000  0.3880690000000 1.0
C      1  0.6079180000000  0.5104610000000  0.5115090000000 1.0
C      1  0.4062160000000  0.4877300000000  0.5090260000000 1.0
C      1  0.6079200000000  0.4892150000000  0.4886590000000 1.0
C      1  0.5007620000000  0.3832060000000  0.4888350000000 1.0
C      1  0.4806970000000  0.6066980000000  0.4910380000000 1.0
C      1  0.5007920000000  0.6165030000000  0.5112840000000 1.0
C      1  0.5500030000000  0.6005410000000  0.5217790000000 1.0
C      1  0.5319090000000  0.5657740000000  0.5892500000000 1.0
C      1  0.5979320000000  0.5157860000000  0.5607490000000 1.0
C      1  0.4321290000000  0.5946620000000  0.4785330000000 1.0
C      1  0.5499830000000  0.3991530000000  0.4783620000000 1.0
C      1  0.4320910000000  0.4050680000000  0.5215540000000 1.0
C      1  0.4825060000000  0.5481270000000  0.4042780000000 1.0
C      1  0.5319300000000  0.4339250000000  0.4108830000000 1.0
C      1  0.4824470000000  0.4515870000000  0.5958330000000 1.0
C      1  0.4160290000000  0.5245420000000  0.4393010000000 1.0
C      1  0.5979550000000  0.4838930000000  0.4394150000000 1.0
C      1  0.4159930000000  0.4751930000000  0.5607790000000 1.0
C      1  0.4246420000000  0.5934760000000  0.5072310000000 1.0
C      1  0.5038890000000  0.4452550000000  0.5779440000000 1.0
C      1  0.5888670000000  0.5117410000000  0.4366210000000 1.0
C      1  0.5561730000000  0.5829180000000  0.5002880000000 1.0
C      1  0.4246160000000  0.4062550000000  0.4928530000000 1.0
C      1  0.5561480000000  0.4167730000000  0.4998570000000 1.0
C      1  0.5028700000000  0.4246420000000  0.4119490000000 1.0
C      1  0.5039410000000  0.5544520000000  0.4221760000000 1.0
C      1  0.5028520000000  0.5750660000000  0.5881700000000 1.0
C      1  0.4212660000000  0.5030020000000  0.5709110000000 1.0
C      1  0.5888340000000  0.4879410000000  0.5635390000000 1.0
C      1  0.4212970000000  0.4967310000000  0.4291710000000 1.0
C      1  0.5010320000000  0.5859400000000  0.4553380000000 1.0
C      1  0.4472650000000  0.5136590000000  0.6112650000000 1.0
C      1  0.5947510000000  0.4427380000000  0.4992300000000 1.0
C      1  0.4882600000000  0.6150230000000  0.5632760000000 1.0
C      1  0.5009860000000  0.4137690000000  0.5447810000000 1.0
C      1  0.4882540000000  0.3846900000000  0.4368370000000 1.0
C      1  0.5550650000000  0.5145590000000  0.4070100000000 1.0
C      1  0.4473120000000  0.4860660000000  0.3888290000000 1.0
C      1  0.5550180000000  0.4851330000000  0.5931330000000 1.0
C      1  0.4032600000000  0.4465870000000  0.4855360000000 1.0
C      1  0.5947680000000  0.5569420000000  0.5009320000000 1.0
C      1  0.4032700000000  0.5531510000000  0.5145380000000 1.0
C      1  0.5787300000000  0.5267120000000  0.4149030000000 1.0
C      1  0.4072200000000  0.5786330000000  0.5249200000000 1.0
C      1  0.5147510000000  0.4214450000000  0.5677400000000 1.0
C      1  0.4260140000000  0.5205430000000  0.5935390000000 1.0
C      1  0.5786820000000  0.4729730000000  0.5852520000000 1.0
C      1  0.4260510000000  0.4791890000000  0.4065460000000 1.0
C      1  0.5803630000000  0.5768580000000  0.4871740000000 1.0
C      1  0.4072080000000  0.4211040000000  0.4751560000000 1.0
C      1  0.5803340000000  0.4228260000000  0.5129810000000 1.0
C      1  0.4817870000000  0.4041480000000  0.4168760000000 1.0
C      1  0.5148060000000  0.5782600000000  0.4323860000000 1.0
C      1  0.4817780000000  0.5955670000000  0.5832340000000 1.0
C      1  0.5496500000000  0.4858470000000  0.4998580000000 1.0
C      1  0.4968930000000  0.5357000000000  0.4834330000000 1.0
C      1  0.4738730000000  0.5157720000000  0.5527560000000 1.0
C      1  0.4576890000000  0.4874900000000  0.4932920000000 1.0
C      1  0.5496540000000  0.5138470000000  0.5002830000000 1.0
C      1  0.4576900000000  0.5122320000000  0.5068080000000 1.0
C      1  0.4845470000000  0.5604780000000  0.5383030000000 1.0
C      1  0.4968750000000  0.4640090000000  0.5166840000000 1.0
C      1  0.4845460000000  0.4392360000000  0.4618090000000 1.0
C      1  0.5176900000000  0.4943430000000  0.4628380000000 1.0
C      1  0.4738930000000  0.4839450000000  0.4473510000000 1.0
C      1  0.5176740000000  0.5053600000000  0.5372890000000 1.0
C      1  0.4481670000000  0.4053580000000  0.4768800000000 1.0
C      1  0.4890210000000  0.4496330000000  0.4167890000000 1.0
C      1  0.4284860000000  0.4831850000000  0.4536740000000 1.0
C      1  0.5353900000000  0.4343930000000  0.5049080000000 1.0
C      1  0.4481850000000  0.5943670000000  0.5232150000000 1.0
C      1  0.5354120000000  0.5653040000000  0.4952270000000 1.0
C      1  0.5101730000000  0.4668840000000  0.5617810000000 1.0
C      1  0.4889980000000  0.5500800000000  0.5833250000000 1.0
C      1  0.5102120000000  0.5328220000000  0.4383420000000 1.0
C      1  0.5795670000000  0.4762900000000  0.5396220000000 1.0
C      1  0.4284700000000  0.5165450000000  0.5464120000000 1.0
C      1  0.5795920000000  0.5233950000000  0.4605330000000 1.0
C      1  0.5613260000000  0.5247430000000  0.5242990000000 1.0
C      1  0.5050910000000  0.5790820000000  0.5381520000000 1.0
C      1  0.5406580000000  0.5142740000000  0.5517100000000 1.0
C      1  0.4494560000000  0.5371920000000  0.4938760000000 1.0
C      1  0.5613300000000  0.4749470000000  0.4758480000000 1.0
C      1  0.4494420000000  0.4625320000000  0.5062190000000 1.0
C      1  0.4730140000000  0.5525910000000  0.4835760000000 1.0
C      1  0.5050840000000  0.4206250000000  0.4619690000000 1.0
C      1  0.4729900000000  0.4471260000000  0.5165300000000 1.0
C      1  0.4726000000000  0.5004390000000  0.4254340000000 1.0
C      1  0.5406780000000  0.4854230000000  0.4484270000000 1.0
C      1  0.4725660000000  0.4992790000000  0.5746710000000 1.0
C      1  0.5688910000000  0.4246060000000  0.5660970000000 1.0
C      1  0.5689440000000  0.5750810000000  0.4340530000000 1.0
C      1  0.4290240000000  0.5734880000000  0.5763980000000 1.0
C      1  0.4290360000000  0.4262420000000  0.4236880000000 1.0
END
