TITL C-3623289-7120-1680 295.393497996905 125000 -539.940588221712 0 0 89 (C1) n - 1
REM
REM in /home/nfs/bkarasulu/CARBON/AIRSS/Generating-Clusters/LCBOP/Higher-Symm/SD-CG/FIRE-CG
REM
REM
REM
REM
REM
REM ./C.cell (b20cbc046b6831c77cfcea5457e17084)
REM AIRSS Version 0.9.1 bugfix July 2018 build 013d7b7c2542+ Fri, 06 Jul 2018 19:26:36 +0100
REM compiler GCC version 9.2.1 20190827 (Red Hat 9.2.1-1)
REM options -cpp -mtune=generic -march=x86-64 -g -O0 -fpre-include=/usr/include/finclude/math-vector-fortran.h
REM seed 800633789 1518870260 1956016630 497112624 1682912799 877424922 -1268741842 -331948482 19240586 -992027436 907073970 272702975 1618363458 -813560862 -1783993586 -1255447604 2070146747 475965719 2123030080 -374093831 1298421901 1507915182 -617193487 428024248 -1321152106 1121886568 -9138994 897943884 177720088 1038324431 1371335187 1604610341 -1471540296
REM
CELL 1.54180   50.00000   50.00000   50.00000   90.00000   90.00000   90.00000
LATT -1
SFAC C  
C      1  0.5394380000000  0.5281800000000  0.5820510000000 1.0
C      1  0.5699630000000  0.5334840000000  0.5282700000000 1.0
C      1  0.5267320000000  0.5753540000000  0.5351570000000 1.0
C      1  0.4653570000000  0.5261080000000  0.4241920000000 1.0
C      1  0.5409130000000  0.4719850000000  0.4191110000000 1.0
C      1  0.4610580000000  0.4710260000000  0.5828580000000 1.0
C      1  0.4188800000000  0.5393120000000  0.4729300000000 1.0
C      1  0.5705620000000  0.4662490000000  0.4726310000000 1.0
C      1  0.4297200000000  0.4664510000000  0.5294780000000 1.0
C      1  0.4709870000000  0.5694750000000  0.4660150000000 1.0
C      1  0.5275950000000  0.4234070000000  0.4645480000000 1.0
C      1  0.4721100000000  0.4238460000000  0.5357070000000 1.0
C      1  0.4369040000000  0.4479990000000  0.4800270000000 1.0
C      1  0.4795590000000  0.4373890000000  0.4455230000000 1.0
C      1  0.4474650000000  0.4805830000000  0.4384380000000 1.0
C      1  0.5628630000000  0.4450380000000  0.5215110000000 1.0
C      1  0.4373870000000  0.5538740000000  0.5225860000000 1.0
C      1  0.5615460000000  0.5544400000000  0.4802850000000 1.0
C      1  0.5195980000000  0.4372240000000  0.5550710000000 1.0
C      1  0.4809320000000  0.5612270000000  0.5546960000000 1.0
C      1  0.5198960000000  0.5619020000000  0.4453900000000 1.0
C      1  0.5517500000000  0.4798000000000  0.5624380000000 1.0
C      1  0.4489980000000  0.5193280000000  0.5633930000000 1.0
C      1  0.5553360000000  0.5208750000000  0.4378730000000 1.0
C      1  0.5679880000000  0.5577390000000  0.5109310000000 1.0
C      1  0.5105450000000  0.5691610000000  0.5596830000000 1.0
C      1  0.5584960000000  0.5090050000000  0.5706760000000 1.0
C      1  0.4292660000000  0.5593170000000  0.4923870000000 1.0
C      1  0.5688560000000  0.4418410000000  0.4900580000000 1.0
C      1  0.4306920000000  0.4429970000000  0.5111210000000 1.0
C      1  0.4889560000000  0.5677510000000  0.4421430000000 1.0
C      1  0.5105590000000  0.4300890000000  0.4402410000000 1.0
C      1  0.4892770000000  0.4297040000000  0.5600440000000 1.0
C      1  0.4409310000000  0.5101750000000  0.4307240000000 1.0
C      1  0.5608150000000  0.4910280000000  0.4301450000000 1.0
C      1  0.4420160000000  0.4903860000000  0.5718490000000 1.0
C      1  0.4660590000000  0.5624120000000  0.5281010000000 1.0
C      1  0.5241190000000  0.4667090000000  0.5622620000000 1.0
C      1  0.5629820000000  0.5276850000000  0.4667490000000 1.0
C      1  0.5334790000000  0.5638260000000  0.4722260000000 1.0
C      1  0.4642500000000  0.4367810000000  0.4722320000000 1.0
C      1  0.5348060000000  0.4353740000000  0.5286340000000 1.0
C      1  0.4757610000000  0.4668440000000  0.4382690000000 1.0
C      1  0.5282100000000  0.5338410000000  0.4360170000000 1.0
C      1  0.4768380000000  0.5319870000000  0.5626570000000 1.0
C      1  0.4379700000000  0.5266470000000  0.5356490000000 1.0
C      1  0.5625370000000  0.4722870000000  0.5346760000000 1.0
C      1  0.4383060000000  0.4757940000000  0.4670460000000 1.0
C      1  0.5223060000000  0.4693740000000  0.4658180000000 1.0
C      1  0.4660160000000  0.5203880000000  0.4698990000000 1.0
C      1  0.4798340000000  0.4459560000000  0.5192440000000 1.0
C      1  0.4785570000000  0.4699030000000  0.5349130000000 1.0
C      1  0.5219780000000  0.5290410000000  0.5342940000000 1.0
C      1  0.4820450000000  0.5178560000000  0.4461490000000 1.0
C      1  0.5463100000000  0.5175170000000  0.5257790000000 1.0
C      1  0.4538930000000  0.4814430000000  0.5271490000000 1.0
C      1  0.5463570000000  0.4817300000000  0.4739760000000 1.0
C      1  0.5201450000000  0.4453830000000  0.4812700000000 1.0
C      1  0.4726210000000  0.5453160000000  0.4812290000000 1.0
C      1  0.5193620000000  0.5530400000000  0.5186200000000 1.0
C      1  0.4457850000000  0.5797800000000  0.4770600000000 1.0
C      1  0.4752650000000  0.4476980000000  0.5791390000000 1.0
C      1  0.5808000000000  0.4761610000000  0.4470820000000 1.0
C      1  0.5541460000000  0.5797880000000  0.5258220000000 1.0
C      1  0.4444770000000  0.4200900000000  0.5257670000000 1.0
C      1  0.5552330000000  0.4194300000000  0.4744030000000 1.0
C      1  0.5253630000000  0.4491310000000  0.4220030000000 1.0
C      1  0.4746550000000  0.5534850000000  0.4200670000000 1.0
C      1  0.5251090000000  0.5514750000000  0.5784910000000 1.0
C      1  0.4209710000000  0.4761190000000  0.5556660000000 1.0
C      1  0.5791460000000  0.5236870000000  0.5543040000000 1.0
C      1  0.4225690000000  0.5247650000000  0.4495010000000 1.0
C      1  0.5180710000000  0.5481140000000  0.4913070000000 1.0
C      1  0.4964320000000  0.5196730000000  0.5440510000000 1.0
C      1  0.5463790000000  0.4907820000000  0.5190260000000 1.0
C      1  0.4787310000000  0.5454450000000  0.5081160000000 1.0
C      1  0.5206880000000  0.4505170000000  0.5082960000000 1.0
C      1  0.4794300000000  0.4513620000000  0.4921690000000 1.0
C      1  0.5090450000000  0.5182010000000  0.4515270000000 1.0
C      1  0.4964090000000  0.4780560000000  0.4567360000000 1.0
C      1  0.5047810000000  0.4787490000000  0.5433600000000 1.0
C      1  0.4563150000000  0.4950470000000  0.4801100000000 1.0
C      1  0.5456710000000  0.5086570000000  0.4804400000000 1.0
C      1  0.4541730000000  0.5080210000000  0.5201410000000 1.0
C      1  0.5187580000000  0.4804730000000  0.5159190000000 1.0
C      1  0.5170230000000  0.5186120000000  0.4819720000000 1.0
C      1  0.4821900000000  0.5172140000000  0.5174600000000 1.0
C      1  0.4825010000000  0.4807790000000  0.4841470000000 1.0
C      1  0.5003420000000  0.4995980000000  0.4997310000000 1.0
END
