TITL C-3623289-7120-1000 0.346199951595107 125000 -492.317819246331 0 0 82 (C1) n - 1
REM
REM in /home/nfs/bkarasulu/CARBON/AIRSS/Generating-Clusters/LCBOP/Higher-Symm/SD-CG/FIRE-CG
REM
REM
REM
REM
REM
REM ./C.cell (b20cbc046b6831c77cfcea5457e17084)
REM AIRSS Version 0.9.1 bugfix July 2018 build 013d7b7c2542+ Fri, 06 Jul 2018 19:26:36 +0100
REM compiler GCC version 9.2.1 20190827 (Red Hat 9.2.1-1)
REM options -cpp -mtune=generic -march=x86-64 -g -O0 -fpre-include=/usr/include/finclude/math-vector-fortran.h
REM seed -2051254822 1452861329 -464655638 949456708 -1378076984 1521385083 1742835104 -1834719981 -1919526586 -1614938397 338643498 -575529667 -1311453455 1383889419 1421772415 896807299 -1712442842 -2038589479 281225443 1073392061 1612818883 -740605592 -1362247936 -1255387419 -676738614 -1300775821 67085806 93022327 -87896571 -1570402710 -1223649366 -224706068 -1343485551
REM
CELL 1.54180   50.00000   50.00000   50.00000   90.00000   90.00000   90.00000
LATT -1
SFAC C  
C      1  0.5660360000000  0.5444340000000  0.4575180000000 1.0
C      1  0.4497990000000  0.5200400000000  0.6008210000000 1.0
C      1  0.4347110000000  0.4492500000000  0.4311800000000 1.0
C      1  0.5616380000000  0.4546820000000  0.5004590000000 1.0
C      1  0.5562280000000  0.5957420000000  0.4656450000000 1.0
C      1  0.4019610000000  0.5309650000000  0.5860400000000 1.0
C      1  0.4212950000000  0.4133350000000  0.4651980000000 1.0
C      1  0.6012310000000  0.4886650000000  0.4918410000000 1.0
C      1  0.3783260000000  0.5411980000000  0.5950500000000 1.0
C      1  0.4029020000000  0.3937120000000  0.4698010000000 1.0
C      1  0.6202710000000  0.4913400000000  0.4724150000000 1.0
C      1  0.5704560000000  0.6165650000000  0.4761840000000 1.0
C      1  0.6267860000000  0.5073170000000  0.5545800000000 1.0
C      1  0.5153710000000  0.6189110000000  0.4131580000000 1.0
C      1  0.3841780000000  0.4828580000000  0.5360030000000 1.0
C      1  0.4819890000000  0.3923770000000  0.4984430000000 1.0
C      1  0.4322110000000  0.5252360000000  0.5485340000000 1.0
C      1  0.4504280000000  0.4471080000000  0.4843070000000 1.0
C      1  0.5720750000000  0.5183050000000  0.5174030000000 1.0
C      1  0.5103500000000  0.5790510000000  0.4665500000000 1.0
C      1  0.6403660000000  0.5361120000000  0.5202680000000 1.0
C      1  0.5157830000000  0.6476690000000  0.4500820000000 1.0
C      1  0.3620300000000  0.5239550000000  0.5321970000000 1.0
C      1  0.4422930000000  0.3859960000000  0.5224620000000 1.0
C      1  0.3595170000000  0.4802930000000  0.5207600000000 1.0
C      1  0.4853110000000  0.3724640000000  0.5194070000000 1.0
C      1  0.6513490000000  0.5212620000000  0.5615300000000 1.0
C      1  0.5081890000000  0.6460490000000  0.4055470000000 1.0
C      1  0.5152400000000  0.5209440000000  0.4027720000000 1.0
C      1  0.4744860000000  0.4488690000000  0.5620490000000 1.0
C      1  0.5194980000000  0.4562200000000  0.4314680000000 1.0
C      1  0.5422160000000  0.4619330000000  0.5755930000000 1.0
C      1  0.4412090000000  0.4205090000000  0.4844830000000 1.0
C      1  0.5978260000000  0.5086260000000  0.5119760000000 1.0
C      1  0.5287040000000  0.5987250000000  0.4586500000000 1.0
C      1  0.4060110000000  0.5235410000000  0.5586840000000 1.0
C      1  0.5205380000000  0.6200070000000  0.4423790000000 1.0
C      1  0.3857350000000  0.5115470000000  0.5436170000000 1.0
C      1  0.4537040000000  0.4012770000000  0.5004860000000 1.0
C      1  0.6196740000000  0.5169260000000  0.5273980000000 1.0
C      1  0.4938920000000  0.4677350000000  0.5691770000000 1.0
C      1  0.5039820000000  0.4785950000000  0.4249630000000 1.0
C      1  0.5202080000000  0.4667270000000  0.5590170000000 1.0
C      1  0.5146580000000  0.5047070000000  0.4255270000000 1.0
C      1  0.5165260000000  0.5710800000000  0.3892430000000 1.0
C      1  0.4245000000000  0.4493340000000  0.5478340000000 1.0
C      1  0.5152380000000  0.4149470000000  0.4627000000000 1.0
C      1  0.5922210000000  0.4751950000000  0.5797580000000 1.0
C      1  0.5458720000000  0.5163010000000  0.5214730000000 1.0
C      1  0.5012110000000  0.5543080000000  0.4699080000000 1.0
C      1  0.4594130000000  0.5202770000000  0.5534410000000 1.0
C      1  0.4583800000000  0.4689040000000  0.4684920000000 1.0
C      1  0.4850220000000  0.4909040000000  0.5823270000000 1.0
C      1  0.4761460000000  0.4750930000000  0.4238890000000 1.0
C      1  0.5253200000000  0.4739710000000  0.5320170000000 1.0
C      1  0.5230560000000  0.5161480000000  0.4501540000000 1.0
C      1  0.4026480000000  0.4630660000000  0.5417070000000 1.0
C      1  0.5010870000000  0.4013630000000  0.4805580000000 1.0
C      1  0.6122860000000  0.4895330000000  0.5700050000000 1.0
C      1  0.5164540000000  0.5963880000000  0.3971600000000 1.0
C      1  0.4711990000000  0.4912670000000  0.4790800000000 1.0
C      1  0.5224010000000  0.5010940000000  0.5235660000000 1.0
C      1  0.5039890000000  0.5263920000000  0.4687940000000 1.0
C      1  0.4786150000000  0.5207460000000  0.5332470000000 1.0
C      1  0.5224420000000  0.4337990000000  0.4454390000000 1.0
C      1  0.5676980000000  0.4653500000000  0.5822250000000 1.0
C      1  0.5159720000000  0.5445900000000  0.3907260000000 1.0
C      1  0.4495090000000  0.4435840000000  0.5546580000000 1.0
C      1  0.4552620000000  0.4661430000000  0.4401140000000 1.0
C      1  0.5393580000000  0.4567200000000  0.5149320000000 1.0
C      1  0.5498650000000  0.5236240000000  0.4536550000000 1.0
C      1  0.4664660000000  0.5116160000000  0.5798600000000 1.0
C      1  0.6588750000000  0.5382060000000  0.5408600000000 1.0
C      1  0.5085540000000  0.6626160000000  0.4278260000000 1.0
C      1  0.3468710000000  0.5049350000000  0.5188140000000 1.0
C      1  0.4614970000000  0.3691250000000  0.5332830000000 1.0
C      1  0.4241270000000  0.5273930000000  0.6030660000000 1.0
C      1  0.4215830000000  0.4281660000000  0.4412420000000 1.0
C      1  0.5840320000000  0.4665130000000  0.4923080000000 1.0
C      1  0.5680700000000  0.5706130000000  0.4617850000000 1.0
C      1  0.4973290000000  0.5110430000000  0.5149220000000 1.0
C      1  0.4905960000000  0.5096140000000  0.4873070000000 1.0
END
