TITL C-3623285-6872-844 -0.0296307068787569 125000 -781.521640711516 0 0 133 (C1) n - 1
REM
REM in /home/nfs/bkarasulu/CARBON/AIRSS/Generating-Clusters/LCBOP/Higher-Symm/SD-CG/FIRE-CG
REM
REM
REM
REM
REM
REM ./C.cell (b20cbc046b6831c77cfcea5457e17084)
REM AIRSS Version 0.9.1 bugfix July 2018 build 013d7b7c2542+ Fri, 06 Jul 2018 19:26:36 +0100
REM compiler GCC version 9.2.1 20190827 (Red Hat 9.2.1-1)
REM options -cpp -mtune=generic -march=x86-64 -g -O0 -fpre-include=/usr/include/finclude/math-vector-fortran.h
REM seed 564119200 -1226387335 -1532064645 17835394 -1406933644 -724222400 -467312912 -1014120452 1789616792 -1323077048 -2073097677 -407244951 1712217037 -1188948865 84427611 -767224508 1317885875 828994073 336629064 1770225861 944507825 -1115593830 -2008656198 538420873 1755324575 2097866848 -992431655 -277360185 -1035938567 600790044 1969013874 1586303685 1753106908
REM
CELL 1.54180   50.00000   50.00000   50.00000   90.00000   90.00000   90.00000
LATT -1
SFAC C  
C      1  0.4379820000000  0.5384820000000  0.4244360000000 1.0
C      1  0.5555250000000  0.5365540000000  0.4180170000000 1.0
C      1  0.5976020000000  0.5382400000000  0.5248100000000 1.0
C      1  0.5071990000000  0.5416130000000  0.6011310000000 1.0
C      1  0.4065740000000  0.5360470000000  0.5347730000000 1.0
C      1  0.5619780000000  0.4639470000000  0.4233140000000 1.0
C      1  0.4460460000000  0.4629400000000  0.4155200000000 1.0
C      1  0.3993440000000  0.4637110000000  0.5255040000000 1.0
C      1  0.4947050000000  0.4653080000000  0.5950000000000 1.0
C      1  0.5942050000000  0.4605980000000  0.5374310000000 1.0
C      1  0.5090290000000  0.4684460000000  0.4250060000000 1.0
C      1  0.5761200000000  0.4662130000000  0.4871270000000 1.0
C      1  0.5379560000000  0.4671580000000  0.5679250000000 1.0
C      1  0.4415450000000  0.4633160000000  0.5596830000000 1.0
C      1  0.4293440000000  0.4655180000000  0.4655360000000 1.0
C      1  0.4907810000000  0.5337340000000  0.4267030000000 1.0
C      1  0.4243520000000  0.5304790000000  0.4857790000000 1.0
C      1  0.4634440000000  0.5338620000000  0.5665050000000 1.0
C      1  0.5551690000000  0.5351760000000  0.5558940000000 1.0
C      1  0.5712140000000  0.5307620000000  0.4684180000000 1.0
C      1  0.4401330000000  0.5076210000000  0.5293370000000 1.0
C      1  0.4519570000000  0.5077200000000  0.4529070000000 1.0
C      1  0.5306810000000  0.5088650000000  0.4416520000000 1.0
C      1  0.5689700000000  0.5071310000000  0.5117510000000 1.0
C      1  0.5142290000000  0.5142840000000  0.5680290000000 1.0
C      1  0.5618180000000  0.4899410000000  0.5318320000000 1.0
C      1  0.5485910000000  0.4922690000000  0.4544960000000 1.0
C      1  0.4694330000000  0.4901430000000  0.4417750000000 1.0
C      1  0.4313410000000  0.4897590000000  0.5094630000000 1.0
C      1  0.4941540000000  0.4969300000000  0.5628200000000 1.0
C      1  0.4841470000000  0.4158180000000  0.4335330000000 1.0
C      1  0.5546500000000  0.4224470000000  0.4583230000000 1.0
C      1  0.5518390000000  0.4149930000000  0.5424230000000 1.0
C      1  0.4860590000000  0.4121890000000  0.5623740000000 1.0
C      1  0.4249510000000  0.4198080000000  0.5011520000000 1.0
C      1  0.5249710000000  0.5773120000000  0.4325550000000 1.0
C      1  0.4440100000000  0.5813900000000  0.4682420000000 1.0
C      1  0.4408350000000  0.5777230000000  0.5400330000000 1.0
C      1  0.5251530000000  0.5866990000000  0.5631830000000 1.0
C      1  0.5655820000000  0.5798830000000  0.4965200000000 1.0
C      1  0.5238250000000  0.5991410000000  0.4834180000000 1.0
C      1  0.5172150000000  0.6217210000000  0.5251260000000 1.0
C      1  0.4826740000000  0.5980280000000  0.5401920000000 1.0
C      1  0.4775070000000  0.6164910000000  0.4912240000000 1.0
C      1  0.4852090000000  0.5951060000000  0.4487760000000 1.0
C      1  0.4582200000000  0.4021860000000  0.4736380000000 1.0
C      1  0.4785230000000  0.3966470000000  0.5176260000000 1.0
C      1  0.5250790000000  0.3839150000000  0.5140120000000 1.0
C      1  0.5365710000000  0.4037450000000  0.4969060000000 1.0
C      1  0.4973880000000  0.3808290000000  0.4723030000000 1.0
C      1  0.4752230000000  0.4280200000000  0.5093740000000 1.0
C      1  0.4795430000000  0.4265690000000  0.4779900000000 1.0
C      1  0.5104240000000  0.4393530000000  0.4788810000000 1.0
C      1  0.5251950000000  0.4308510000000  0.5052890000000 1.0
C      1  0.5030890000000  0.4403740000000  0.5239810000000 1.0
C      1  0.5212890000000  0.5594520000000  0.5098540000000 1.0
C      1  0.5154170000000  0.5696780000000  0.4803240000000 1.0
C      1  0.4857390000000  0.5672760000000  0.4781620000000 1.0
C      1  0.4749020000000  0.5663410000000  0.5070880000000 1.0
C      1  0.4972620000000  0.5732120000000  0.5277340000000 1.0
C      1  0.5506570000000  0.4406180000000  0.5240590000000 1.0
C      1  0.4936410000000  0.4398440000000  0.5539570000000 1.0
C      1  0.4430470000000  0.4409340000000  0.5110560000000 1.0
C      1  0.4729430000000  0.4398540000000  0.4498060000000 1.0
C      1  0.5354970000000  0.4453430000000  0.4603140000000 1.0
C      1  0.4497100000000  0.5556800000000  0.5210590000000 1.0
C      1  0.5083920000000  0.5618070000000  0.5558180000000 1.0
C      1  0.5533100000000  0.5556960000000  0.5095540000000 1.0
C      1  0.5288690000000  0.5565530000000  0.4545480000000 1.0
C      1  0.4622010000000  0.5562060000000  0.4636660000000 1.0
C      1  0.5169720000000  0.4754850000000  0.5232200000000 1.0
C      1  0.4736510000000  0.4736760000000  0.5261880000000 1.0
C      1  0.4734080000000  0.4786710000000  0.4954740000000 1.0
C      1  0.4990240000000  0.4695320000000  0.4792910000000 1.0
C      1  0.5235420000000  0.4830300000000  0.4945550000000 1.0
C      1  0.4871030000000  0.5183660000000  0.5213070000000 1.0
C      1  0.5147990000000  0.5304320000000  0.5198140000000 1.0
C      1  0.5254590000000  0.5143030000000  0.4951740000000 1.0
C      1  0.5022870000000  0.5199580000000  0.4765820000000 1.0
C      1  0.4770160000000  0.5119560000000  0.4921260000000 1.0
C      1  0.5808180000000  0.4820450000000  0.5526570000000 1.0
C      1  0.4777600000000  0.4853060000000  0.5836100000000 1.0
C      1  0.4034900000000  0.4819800000000  0.5033300000000 1.0
C      1  0.4664900000000  0.4834470000000  0.4130730000000 1.0
C      1  0.5737630000000  0.4826330000000  0.4421350000000 1.0
C      1  0.4210530000000  0.5165700000000  0.5505960000000 1.0
C      1  0.5275630000000  0.5219000000000  0.5922490000000 1.0
C      1  0.5962770000000  0.5164370000000  0.5056320000000 1.0
C      1  0.5338820000000  0.5175360000000  0.4136460000000 1.0
C      1  0.4269090000000  0.5173900000000  0.4409680000000 1.0
C      1  0.5244120000000  0.5347790000000  0.5484140000000 1.0
C      1  0.4625760000000  0.5299190000000  0.5343530000000 1.0
C      1  0.4549660000000  0.5269830000000  0.4768810000000 1.0
C      1  0.5109960000000  0.5307840000000  0.4510200000000 1.0
C      1  0.5530450000000  0.5267470000000  0.4938390000000 1.0
C      1  0.4675960000000  0.4561180000000  0.5485850000000 1.0
C      1  0.5407360000000  0.4686930000000  0.5369330000000 1.0
C      1  0.5461260000000  0.4712120000000  0.4772510000000 1.0
C      1  0.4891060000000  0.4685060000000  0.4500420000000 1.0
C      1  0.4460490000000  0.4682680000000  0.4916990000000 1.0
C      1  0.5555680000000  0.5165560000000  0.5819110000000 1.0
C      1  0.4398870000000  0.5144210000000  0.5737270000000 1.0
C      1  0.4095160000000  0.5134490000000  0.4647270000000 1.0
C      1  0.5048700000000  0.5153750000000  0.4056980000000 1.0
C      1  0.5951230000000  0.5127370000000  0.4758940000000 1.0
C      1  0.4491130000000  0.4864090000000  0.5779490000000 1.0
C      1  0.5620560000000  0.4866600000000  0.5763560000000 1.0
C      1  0.5912510000000  0.4844440000000  0.4666980000000 1.0
C      1  0.4948440000000  0.4872840000000  0.4052280000000 1.0
C      1  0.4053470000000  0.4848290000000  0.4730730000000 1.0
C      1  0.4650270000000  0.5473090000000  0.4333560000000 1.0
C      1  0.5577660000000  0.5450890000000  0.4469130000000 1.0
C      1  0.5709640000000  0.5473930000000  0.5344380000000 1.0
C      1  0.4877730000000  0.5495760000000  0.5780060000000 1.0
C      1  0.4220400000000  0.5447210000000  0.5108400000000 1.0
C      1  0.5343330000000  0.4560050000000  0.4309390000000 1.0
C      1  0.4437260000000  0.4513190000000  0.4431540000000 1.0
C      1  0.4233440000000  0.4544150000000  0.5389970000000 1.0
C      1  0.5126230000000  0.4535630000000  0.5751670000000 1.0
C      1  0.5786520000000  0.4510120000000  0.5129230000000 1.0
C      1  0.4942900000000  0.3931940000000  0.4474420000000 1.0
C      1  0.5543870000000  0.4020730000000  0.4757200000000 1.0
C      1  0.5381020000000  0.3908130000000  0.5391620000000 1.0
C      1  0.4766130000000  0.3931270000000  0.5455540000000 1.0
C      1  0.4331590000000  0.4011920000000  0.4833320000000 1.0
C      1  0.5041730000000  0.5941610000000  0.4313610000000 1.0
C      1  0.4545760000000  0.6044600000000  0.4809230000000 1.0
C      1  0.4567280000000  0.5982150000000  0.5474500000000 1.0
C      1  0.5269180000000  0.6096440000000  0.5478260000000 1.0
C      1  0.5521590000000  0.6008170000000  0.4855420000000 1.0
C      1  0.4982250000000  0.3815730000000  0.5021490000000 1.0
C      1  0.5059270000000  0.6158810000000  0.4989790000000 1.0
C      1  0.4947080000000  0.4913520000000  0.5343110000000 1.0
END
