TITL C-3623289-7120-1561 112.519515542804 125000 -1090.32436743585 0 0 178 (C1) n - 1
REM
REM in /home/nfs/bkarasulu/CARBON/AIRSS/Generating-Clusters/LCBOP/Higher-Symm/SD-CG/FIRE-CG
REM
REM
REM
REM
REM
REM ./C.cell (b20cbc046b6831c77cfcea5457e17084)
REM AIRSS Version 0.9.1 bugfix July 2018 build 013d7b7c2542+ Fri, 06 Jul 2018 19:26:36 +0100
REM compiler GCC version 9.2.1 20190827 (Red Hat 9.2.1-1)
REM options -cpp -mtune=generic -march=x86-64 -g -O0 -fpre-include=/usr/include/finclude/math-vector-fortran.h
REM seed 1288522112 1025532375 477618497 1289956342 -2054994535 -1354916603 -1521904159 -276465333 -1131245932 -267664229 -1242849232 -1269771909 -2026779671 -516440545 706790408 -108206778 621935195 919827246 913931017 438363377 -471599583 -1147523597 1033291311 -1859869276 39352016 -801659698 -1150001175 -1878679553 908492126 -2109890021 -2021328913 1558745672 -1667314447
REM
CELL 1.54180   50.00000   50.00000   50.00000   90.00000   90.00000   90.00000
LATT -1
SFAC C  
C      1  0.4430420000000  0.4290490000000  0.4909600000000 1.0
C      1  0.4429480000000  0.4303840000000  0.5224170000000 1.0
C      1  0.4644450000000  0.5619850000000  0.5761440000000 1.0
C      1  0.4578000000000  0.5643440000000  0.4206260000000 1.0
C      1  0.3874100000000  0.5288640000000  0.5425700000000 1.0
C      1  0.3825540000000  0.5233030000000  0.4558100000000 1.0
C      1  0.4040590000000  0.4806190000000  0.4490410000000 1.0
C      1  0.4043260000000  0.4872240000000  0.5495200000000 1.0
C      1  0.4400640000000  0.6085760000000  0.5612520000000 1.0
C      1  0.4458670000000  0.6119760000000  0.4269230000000 1.0
C      1  0.4616500000000  0.6244300000000  0.4464080000000 1.0
C      1  0.4344920000000  0.6311440000000  0.5484670000000 1.0
C      1  0.5758830000000  0.5234360000000  0.5349830000000 1.0
C      1  0.5821920000000  0.5293290000000  0.4561110000000 1.0
C      1  0.5409440000000  0.3320940000000  0.5278480000000 1.0
C      1  0.5466840000000  0.3301560000000  0.4490080000000 1.0
C      1  0.4500610000000  0.4172460000000  0.5665200000000 1.0
C      1  0.4449160000000  0.4232750000000  0.4417420000000 1.0
C      1  0.6247980000000  0.5661350000000  0.4849000000000 1.0
C      1  0.6114770000000  0.5537110000000  0.5400740000000 1.0
C      1  0.5393460000000  0.6101400000000  0.5419850000000 1.0
C      1  0.5418400000000  0.5813720000000  0.4738990000000 1.0
C      1  0.4372440000000  0.5450130000000  0.4677470000000 1.0
C      1  0.4291140000000  0.5489670000000  0.5207120000000 1.0
C      1  0.4633580000000  0.5412190000000  0.6186740000000 1.0
C      1  0.4773600000000  0.5207430000000  0.4210940000000 1.0
C      1  0.4529170000000  0.5586620000000  0.5093610000000 1.0
C      1  0.4577530000000  0.5561110000000  0.4820480000000 1.0
C      1  0.5718390000000  0.5362110000000  0.5097400000000 1.0
C      1  0.5901020000000  0.5334210000000  0.4852910000000 1.0
C      1  0.5595930000000  0.5966550000000  0.4929750000000 1.0
C      1  0.5583600000000  0.6019500000000  0.5227630000000 1.0
C      1  0.5104760000000  0.5304410000000  0.6164860000000 1.0
C      1  0.5078380000000  0.5251490000000  0.3804190000000 1.0
C      1  0.6176850000000  0.5397140000000  0.4926540000000 1.0
C      1  0.6242590000000  0.5358460000000  0.5205990000000 1.0
C      1  0.5055480000000  0.3918190000000  0.5127870000000 1.0
C      1  0.5024910000000  0.3903890000000  0.4840600000000 1.0
C      1  0.4717700000000  0.4772290000000  0.4749860000000 1.0
C      1  0.4697900000000  0.4832680000000  0.5248200000000 1.0
C      1  0.5415220000000  0.3592240000000  0.4060410000000 1.0
C      1  0.5364780000000  0.3601120000000  0.5719700000000 1.0
C      1  0.5321530000000  0.5244750000000  0.5751500000000 1.0
C      1  0.5559040000000  0.5168070000000  0.4535440000000 1.0
C      1  0.4722070000000  0.4319480000000  0.4840840000000 1.0
C      1  0.4720250000000  0.4385050000000  0.5301870000000 1.0
C      1  0.5432050000000  0.3274290000000  0.5017820000000 1.0
C      1  0.5454070000000  0.3265620000000  0.4753130000000 1.0
C      1  0.4653970000000  0.5264530000000  0.5417290000000 1.0
C      1  0.4871900000000  0.5218870000000  0.4661530000000 1.0
C      1  0.5339190000000  0.3841720000000  0.4002230000000 1.0
C      1  0.5348390000000  0.3848600000000  0.5817460000000 1.0
C      1  0.4824440000000  0.5009750000000  0.5443150000000 1.0
C      1  0.4920120000000  0.4956290000000  0.4713280000000 1.0
C      1  0.4171720000000  0.4631570000000  0.5597150000000 1.0
C      1  0.4070100000000  0.4676460000000  0.4244960000000 1.0
C      1  0.5472340000000  0.5507400000000  0.5113060000000 1.0
C      1  0.5343720000000  0.5528890000000  0.4842200000000 1.0
C      1  0.4500940000000  0.5852680000000  0.5689380000000 1.0
C      1  0.4423090000000  0.5872250000000  0.4174730000000 1.0
C      1  0.5435890000000  0.5563460000000  0.4096030000000 1.0
C      1  0.5496170000000  0.5625640000000  0.5923440000000 1.0
C      1  0.5275800000000  0.4342680000000  0.4054280000000 1.0
C      1  0.5336970000000  0.4351850000000  0.5926390000000 1.0
C      1  0.5256440000000  0.4608740000000  0.4643710000000 1.0
C      1  0.5346410000000  0.4589940000000  0.5228420000000 1.0
C      1  0.4276020000000  0.5214840000000  0.4578920000000 1.0
C      1  0.4344370000000  0.5265390000000  0.5398200000000 1.0
C      1  0.5730260000000  0.5566690000000  0.5760070000000 1.0
C      1  0.5708100000000  0.5487110000000  0.4119660000000 1.0
C      1  0.5828520000000  0.5948280000000  0.5362220000000 1.0
C      1  0.5876720000000  0.5978160000000  0.4854420000000 1.0
C      1  0.5593980000000  0.4492090000000  0.5969910000000 1.0
C      1  0.5548730000000  0.4441450000000  0.4049750000000 1.0
C      1  0.4957870000000  0.5898540000000  0.5291820000000 1.0
C      1  0.4834480000000  0.6100640000000  0.4582890000000 1.0
C      1  0.5491220000000  0.4435300000000  0.5422140000000 1.0
C      1  0.5463630000000  0.4677950000000  0.4469210000000 1.0
C      1  0.5016780000000  0.5862600000000  0.5570930000000 1.0
C      1  0.4980540000000  0.5888950000000  0.4456150000000 1.0
C      1  0.5259630000000  0.5986920000000  0.5644800000000 1.0
C      1  0.5271270000000  0.5873300000000  0.4488480000000 1.0
C      1  0.5920260000000  0.5076960000000  0.4133570000000 1.0
C      1  0.5950680000000  0.5146430000000  0.5797070000000 1.0
C      1  0.4368340000000  0.4957140000000  0.3981510000000 1.0
C      1  0.4428370000000  0.4943670000000  0.5924050000000 1.0
C      1  0.4434490000000  0.6605840000000  0.4799880000000 1.0
C      1  0.4363710000000  0.6607180000000  0.5056030000000 1.0
C      1  0.4518650000000  0.5362910000000  0.4168250000000 1.0
C      1  0.4501210000000  0.5443960000000  0.5937910000000 1.0
C      1  0.5667800000000  0.4823840000000  0.4888360000000 1.0
C      1  0.5602460000000  0.4986700000000  0.5417170000000 1.0
C      1  0.5358550000000  0.4185140000000  0.5473920000000 1.0
C      1  0.5178310000000  0.4037490000000  0.4403780000000 1.0
C      1  0.4332450000000  0.6497690000000  0.5295970000000 1.0
C      1  0.4528710000000  0.6481330000000  0.4584640000000 1.0
C      1  0.5743580000000  0.4508710000000  0.5513550000000 1.0
C      1  0.5704510000000  0.4515020000000  0.4509210000000 1.0
C      1  0.3881960000000  0.4785760000000  0.4730160000000 1.0
C      1  0.3848700000000  0.4817250000000  0.5282490000000 1.0
C      1  0.4285350000000  0.4531880000000  0.4816660000000 1.0
C      1  0.4240000000000  0.4509240000000  0.5322170000000 1.0
C      1  0.4832150000000  0.4604390000000  0.5174620000000 1.0
C      1  0.4827650000000  0.4562780000000  0.4900530000000 1.0
C      1  0.5247540000000  0.4370280000000  0.5060180000000 1.0
C      1  0.5230590000000  0.4355020000000  0.4777300000000 1.0
C      1  0.5195090000000  0.5406800000000  0.4025090000000 1.0
C      1  0.5314610000000  0.5399390000000  0.5990670000000 1.0
C      1  0.4428510000000  0.4048860000000  0.5386360000000 1.0
C      1  0.4384320000000  0.4061440000000  0.4723230000000 1.0
C      1  0.5511710000000  0.5044810000000  0.5701920000000 1.0
C      1  0.5525960000000  0.4936870000000  0.4362130000000 1.0
C      1  0.5653650000000  0.4760450000000  0.6056260000000 1.0
C      1  0.5619770000000  0.4699200000000  0.3951570000000 1.0
C      1  0.3971830000000  0.4577670000000  0.5165520000000 1.0
C      1  0.4011210000000  0.4584870000000  0.4889860000000 1.0
C      1  0.5386730000000  0.3423730000000  0.5522600000000 1.0
C      1  0.5457570000000  0.3405240000000  0.4245320000000 1.0
C      1  0.4842080000000  0.5120110000000  0.3741210000000 1.0
C      1  0.4833350000000  0.5206070000000  0.6186720000000 1.0
C      1  0.4862940000000  0.4822190000000  0.5682580000000 1.0
C      1  0.4815930000000  0.4922570000000  0.4220720000000 1.0
C      1  0.5036650000000  0.4500100000000  0.4084380000000 1.0
C      1  0.5077060000000  0.4467540000000  0.5939460000000 1.0
C      1  0.4779890000000  0.3777130000000  0.4760890000000 1.0
C      1  0.4832350000000  0.3805510000000  0.5265280000000 1.0
C      1  0.4263720000000  0.4996150000000  0.5330190000000 1.0
C      1  0.4286400000000  0.4935970000000  0.4588380000000 1.0
C      1  0.6050580000000  0.5799380000000  0.5275630000000 1.0
C      1  0.6099720000000  0.5857470000000  0.4989360000000 1.0
C      1  0.5385040000000  0.4982700000000  0.4932960000000 1.0
C      1  0.5346110000000  0.4921520000000  0.5239800000000 1.0
C      1  0.4980990000000  0.5422580000000  0.4219740000000 1.0
C      1  0.5160720000000  0.5349470000000  0.5530830000000 1.0
C      1  0.4838410000000  0.5475580000000  0.4754710000000 1.0
C      1  0.4746890000000  0.5486460000000  0.5253860000000 1.0
C      1  0.5217620000000  0.4125910000000  0.5227960000000 1.0
C      1  0.5155160000000  0.4097150000000  0.4673240000000 1.0
C      1  0.4553590000000  0.3856280000000  0.5192660000000 1.0
C      1  0.4522860000000  0.3846720000000  0.4880360000000 1.0
C      1  0.4907690000000  0.6103280000000  0.5111940000000 1.0
C      1  0.4889220000000  0.6159540000000  0.4852610000000 1.0
C      1  0.4264200000000  0.5209040000000  0.4128560000000 1.0
C      1  0.4309730000000  0.5228660000000  0.5856100000000 1.0
C      1  0.5345210000000  0.4118940000000  0.5749470000000 1.0
C      1  0.5252160000000  0.4070720000000  0.4136760000000 1.0
C      1  0.5395960000000  0.5240150000000  0.4755080000000 1.0
C      1  0.5262860000000  0.5515720000000  0.5308070000000 1.0
C      1  0.4857980000000  0.5679200000000  0.4294520000000 1.0
C      1  0.4922970000000  0.5607800000000  0.5673260000000 1.0
C      1  0.4676770000000  0.4973370000000  0.6093730000000 1.0
C      1  0.4592780000000  0.5012320000000  0.3795580000000 1.0
C      1  0.4845140000000  0.4563090000000  0.5807390000000 1.0
C      1  0.4802890000000  0.4631930000000  0.4186010000000 1.0
C      1  0.5685990000000  0.4917110000000  0.4119580000000 1.0
C      1  0.5720010000000  0.4985630000000  0.5893150000000 1.0
C      1  0.4443450000000  0.4751960000000  0.4718030000000 1.0
C      1  0.4427850000000  0.4814550000000  0.5222900000000 1.0
C      1  0.5106870000000  0.5083060000000  0.5374990000000 1.0
C      1  0.5168240000000  0.4841840000000  0.4778490000000 1.0
C      1  0.4533480000000  0.4508820000000  0.4220150000000 1.0
C      1  0.4576320000000  0.4445380000000  0.5791030000000 1.0
C      1  0.5890740000000  0.5327060000000  0.4273600000000 1.0
C      1  0.5908200000000  0.5383850000000  0.5583360000000 1.0
C      1  0.4371180000000  0.4663890000000  0.5801860000000 1.0
C      1  0.4320950000000  0.4690630000000  0.4109320000000 1.0
C      1  0.5387350000000  0.5883300000000  0.5874210000000 1.0
C      1  0.5391930000000  0.5803650000000  0.4242540000000 1.0
C      1  0.5802510000000  0.4625320000000  0.4754240000000 1.0
C      1  0.5808600000000  0.4765200000000  0.5420220000000 1.0
C      1  0.5794150000000  0.4417670000000  0.5775490000000 1.0
C      1  0.5721530000000  0.4359940000000  0.4271390000000 1.0
C      1  0.5053530000000  0.5575270000000  0.4898270000000 1.0
C      1  0.5003390000000  0.5623420000000  0.5183930000000 1.0
C      1  0.3800480000000  0.5081680000000  0.5150140000000 1.0
C      1  0.3801770000000  0.5061790000000  0.4831180000000 1.0
C      1  0.4072920000000  0.5252320000000  0.4370300000000 1.0
C      1  0.4136220000000  0.5306220000000  0.5619020000000 1.0
END
