TITL C-3623284-6838-1062 3385.66798259682 125000 -988.276166355998 0 0 162 (C1) n - 1
REM
REM in /home/nfs/bkarasulu/CARBON/AIRSS/Generating-Clusters/LCBOP/Higher-Symm/SD-CG/FIRE-CG
REM
REM
REM
REM
REM
REM ./C.cell (b20cbc046b6831c77cfcea5457e17084)
REM AIRSS Version 0.9.1 bugfix July 2018 build 013d7b7c2542+ Fri, 06 Jul 2018 19:26:36 +0100
REM compiler GCC version 9.2.1 20190827 (Red Hat 9.2.1-1)
REM options -cpp -mtune=generic -march=x86-64 -g -O0 -fpre-include=/usr/include/finclude/math-vector-fortran.h
REM seed -318799682 -718471832 -56609157 -989057123 733882566 1951733263 1904183776 2088659971 1730006518 1028389318 1698756349 1373044845 -2002611436 -849627588 175830644 704020194 1853919061 -1780609080 -556825172 -1580873878 -795650627 890106339 1250225722 -1846879482 -1520142289 -541569113 -42815189 -1708181375 -9746263 242718301 2097569566 -271989854 1042628370
REM
CELL 1.54180   50.00000   50.00000   50.00000   90.00000   90.00000   90.00000
LATT -1
SFAC C  
C      1  0.4346260000000  0.4680030000000  0.4761170000000 1.0
C      1  0.5598250000000  0.4739870000000  0.5216020000000 1.0
C      1  0.4397250000000  0.5248510000000  0.4783850000000 1.0
C      1  0.5655290000000  0.5337780000000  0.5271360000000 1.0
C      1  0.5289580000000  0.5530490000000  0.4033220000000 1.0
C      1  0.4757530000000  0.5593920000000  0.5932100000000 1.0
C      1  0.5270990000000  0.4431560000000  0.4052690000000 1.0
C      1  0.4694550000000  0.4394610000000  0.5911240000000 1.0
C      1  0.4774950000000  0.4752910000000  0.4158060000000 1.0
C      1  0.5233330000000  0.4869010000000  0.5842960000000 1.0
C      1  0.4773520000000  0.5208270000000  0.4139560000000 1.0
C      1  0.5409970000000  0.5091140000000  0.5887820000000 1.0
C      1  0.4460690000000  0.4811860000000  0.5525800000000 1.0
C      1  0.5527800000000  0.4839780000000  0.4452180000000 1.0
C      1  0.4486980000000  0.5108440000000  0.5567170000000 1.0
C      1  0.5556020000000  0.5130540000000  0.4448620000000 1.0
C      1  0.5657010000000  0.4985510000000  0.5987350000000 1.0
C      1  0.4526520000000  0.5119950000000  0.4052490000000 1.0
C      1  0.5745500000000  0.4730770000000  0.5947500000000 1.0
C      1  0.4510650000000  0.4831970000000  0.4053490000000 1.0
C      1  0.4767610000000  0.4858410000000  0.5179630000000 1.0
C      1  0.5151970000000  0.4907870000000  0.4714500000000 1.0
C      1  0.4884190000000  0.5050160000000  0.5335790000000 1.0
C      1  0.5259110000000  0.5131700000000  0.4821590000000 1.0
C      1  0.5096260000000  0.5792120000000  0.5111880000000 1.0
C      1  0.4812780000000  0.5836060000000  0.4986780000000 1.0
C      1  0.5149370000000  0.4183100000000  0.5125000000000 1.0
C      1  0.4380570000000  0.4032380000000  0.5053680000000 1.0
C      1  0.5003380000000  0.5125330000000  0.4003720000000 1.0
C      1  0.5244640000000  0.4593440000000  0.6299830000000 1.0
C      1  0.5002210000000  0.4837430000000  0.4017160000000 1.0
C      1  0.5195770000000  0.4711200000000  0.6071530000000 1.0
C      1  0.6365850000000  0.4720230000000  0.4686060000000 1.0
C      1  0.3615670000000  0.4622180000000  0.5284210000000 1.0
C      1  0.6368840000000  0.5400920000000  0.4699210000000 1.0
C      1  0.3648780000000  0.5332410000000  0.5344780000000 1.0
C      1  0.4129300000000  0.5291290000000  0.4884030000000 1.0
C      1  0.5912870000000  0.5382840000000  0.5148900000000 1.0
C      1  0.4066220000000  0.4708330000000  0.4830560000000 1.0
C      1  0.5877720000000  0.4717020000000  0.5145060000000 1.0
C      1  0.4434160000000  0.4414350000000  0.5784910000000 1.0
C      1  0.5538480000000  0.4447410000000  0.4181830000000 1.0
C      1  0.4497870000000  0.5534820000000  0.5805040000000 1.0
C      1  0.5558630000000  0.5508180000000  0.4149250000000 1.0
C      1  0.4756880000000  0.4727830000000  0.4466200000000 1.0
C      1  0.5243410000000  0.4779320000000  0.5563820000000 1.0
C      1  0.4785660000000  0.5238040000000  0.4426100000000 1.0
C      1  0.5395660000000  0.5274730000000  0.5671420000000 1.0
C      1  0.4067430000000  0.4930430000000  0.4049680000000 1.0
C      1  0.5973630000000  0.5773640000000  0.6270530000000 1.0
C      1  0.4096120000000  0.5170330000000  0.4093320000000 1.0
C      1  0.5893400000000  0.5773090000000  0.6022580000000 1.0
C      1  0.4288010000000  0.4617560000000  0.5643300000000 1.0
C      1  0.5693490000000  0.4635930000000  0.4342900000000 1.0
C      1  0.4334080000000  0.5329810000000  0.5673410000000 1.0
C      1  0.5715770000000  0.5326010000000  0.4310540000000 1.0
C      1  0.4830660000000  0.5383200000000  0.6110770000000 1.0
C      1  0.5216830000000  0.5279190000000  0.3903120000000 1.0
C      1  0.4731590000000  0.4606270000000  0.6098480000000 1.0
C      1  0.5211780000000  0.4679910000000  0.3915260000000 1.0
C      1  0.4557110000000  0.5479670000000  0.4809710000000 1.0
C      1  0.5487780000000  0.5562380000000  0.5240720000000 1.0
C      1  0.4452370000000  0.4413670000000  0.4781440000000 1.0
C      1  0.5465740000000  0.4497710000000  0.5195930000000 1.0
C      1  0.5519690000000  0.5804180000000  0.5693050000000 1.0
C      1  0.4530760000000  0.5613860000000  0.4308080000000 1.0
C      1  0.5486090000000  0.4355830000000  0.5699240000000 1.0
C      1  0.4460890000000  0.4362060000000  0.4280620000000 1.0
C      1  0.5998440000000  0.5195210000000  0.4936060000000 1.0
C      1  0.4012760000000  0.5136740000000  0.5092700000000 1.0
C      1  0.5985770000000  0.4890320000000  0.4935770000000 1.0
C      1  0.3986530000000  0.4846540000000  0.5068760000000 1.0
C      1  0.4816650000000  0.5639480000000  0.4234140000000 1.0
C      1  0.5257710000000  0.5711400000000  0.5805550000000 1.0
C      1  0.4758530000000  0.4321800000000  0.4238860000000 1.0
C      1  0.5190050000000  0.4355820000000  0.5749410000000 1.0
C      1  0.5279990000000  0.5557140000000  0.5022980000000 1.0
C      1  0.4685600000000  0.5574210000000  0.5040720000000 1.0
C      1  0.5294160000000  0.4402100000000  0.4996740000000 1.0
C      1  0.4516770000000  0.4281650000000  0.5029610000000 1.0
C      1  0.4447280000000  0.4819610000000  0.4511490000000 1.0
C      1  0.5469140000000  0.4895350000000  0.5407850000000 1.0
C      1  0.4461720000000  0.5128150000000  0.4520320000000 1.0
C      1  0.5545660000000  0.5160850000000  0.5454400000000 1.0
C      1  0.4087090000000  0.5358130000000  0.5539950000000 1.0
C      1  0.5956550000000  0.5371010000000  0.4454330000000 1.0
C      1  0.4038670000000  0.4608060000000  0.5511820000000 1.0
C      1  0.5937100000000  0.4628010000000  0.4489910000000 1.0
C      1  0.4850960000000  0.4445870000000  0.4497370000000 1.0
C      1  0.5102930000000  0.4529110000000  0.5509110000000 1.0
C      1  0.4930290000000  0.5479290000000  0.4472840000000 1.0
C      1  0.5211470000000  0.5485410000000  0.5627440000000 1.0
C      1  0.4070610000000  0.5465950000000  0.4447750000000 1.0
C      1  0.5975830000000  0.5699590000000  0.5536100000000 1.0
C      1  0.4031720000000  0.4620990000000  0.4359230000000 1.0
C      1  0.5946920000000  0.4484310000000  0.5577560000000 1.0
C      1  0.3931060000000  0.4554200000000  0.4619390000000 1.0
C      1  0.5966640000000  0.4463960000000  0.5286630000000 1.0
C      1  0.4037840000000  0.5524100000000  0.4727690000000 1.0
C      1  0.5972940000000  0.5667090000000  0.5243340000000 1.0
C      1  0.4615050000000  0.4676180000000  0.5318300000000 1.0
C      1  0.5334990000000  0.4722110000000  0.4627050000000 1.0
C      1  0.4702970000000  0.5236780000000  0.5426860000000 1.0
C      1  0.5427530000000  0.5280890000000  0.4654540000000 1.0
C      1  0.5733550000000  0.4504280000000  0.5775870000000 1.0
C      1  0.4313220000000  0.4689040000000  0.4245520000000 1.0
C      1  0.5800340000000  0.5761000000000  0.5760830000000 1.0
C      1  0.4293710000000  0.5334820000000  0.4275030000000 1.0
C      1  0.5621710000000  0.4080870000000  0.5266320000000 1.0
C      1  0.4138110000000  0.4103980000000  0.4638260000000 1.0
C      1  0.5573990000000  0.5994750000000  0.5198030000000 1.0
C      1  0.4382110000000  0.5898330000000  0.4736450000000 1.0
C      1  0.4737080000000  0.4901670000000  0.4914330000000 1.0
C      1  0.4884380000000  0.4869360000000  0.4686200000000 1.0
C      1  0.5127280000000  0.5145340000000  0.5272400000000 1.0
C      1  0.5190210000000  0.5276090000000  0.5045340000000 1.0
C      1  0.5517990000000  0.4309380000000  0.5414320000000 1.0
C      1  0.4370780000000  0.4253070000000  0.4539150000000 1.0
C      1  0.5513930000000  0.5798280000000  0.5404520000000 1.0
C      1  0.4502960000000  0.5675190000000  0.4589460000000 1.0
C      1  0.4118040000000  0.5795380000000  0.4801560000000 1.0
C      1  0.5840490000000  0.5901080000000  0.5111890000000 1.0
C      1  0.3905460000000  0.4270970000000  0.4653010000000 1.0
C      1  0.5884400000000  0.4191910000000  0.5188640000000 1.0
C      1  0.5397540000000  0.5112650000000  0.3754250000000 1.0
C      1  0.4789310000000  0.5126990000000  0.6180650000000 1.0
C      1  0.5393930000000  0.4837960000000  0.3760190000000 1.0
C      1  0.4731240000000  0.4865160000000  0.6171640000000 1.0
C      1  0.4673070000000  0.4407440000000  0.5233080000000 1.0
C      1  0.5278680000000  0.4462240000000  0.4726270000000 1.0
C      1  0.4749990000000  0.5491010000000  0.5308710000000 1.0
C      1  0.5352900000000  0.5553650000000  0.4727350000000 1.0
C      1  0.5149060000000  0.5652600000000  0.4563200000000 1.0
C      1  0.4991960000000  0.5659970000000  0.5396580000000 1.0
C      1  0.5089260000000  0.4316460000000  0.4583030000000 1.0
C      1  0.4943970000000  0.4301600000000  0.5329940000000 1.0
C      1  0.4921390000000  0.4231970000000  0.5805540000000 1.0
C      1  0.5048430000000  0.4234210000000  0.4141710000000 1.0
C      1  0.4965050000000  0.5796030000000  0.5841070000000 1.0
C      1  0.5084540000000  0.5741790000000  0.4130730000000 1.0
C      1  0.4917330000000  0.6312160000000  0.5219640000000 1.0
C      1  0.5061640000000  0.6290660000000  0.4709110000000 1.0
C      1  0.4863390000000  0.3686020000000  0.5220660000000 1.0
C      1  0.5023180000000  0.3699190000000  0.4716930000000 1.0
C      1  0.5137680000000  0.4097050000000  0.4397410000000 1.0
C      1  0.4873320000000  0.4087360000000  0.5550380000000 1.0
C      1  0.5174800000000  0.5879740000000  0.4383020000000 1.0
C      1  0.4910000000000  0.5906050000000  0.5571270000000 1.0
C      1  0.6104930000000  0.5321970000000  0.4693710000000 1.0
C      1  0.3917030000000  0.5275470000000  0.5327960000000 1.0
C      1  0.6091630000000  0.4747330000000  0.4700870000000 1.0
C      1  0.3881450000000  0.4691820000000  0.5290150000000 1.0
C      1  0.4603980000000  0.6009370000000  0.4885150000000 1.0
C      1  0.5307140000000  0.6025430000000  0.5086680000000 1.0
C      1  0.4204070000000  0.3943150000000  0.4864890000000 1.0
C      1  0.5367290000000  0.3976880000000  0.5161000000000 1.0
C      1  0.4885980000000  0.6156210000000  0.5439780000000 1.0
C      1  0.5138510000000  0.6133870000000  0.4501820000000 1.0
C      1  0.4838540000000  0.3828970000000  0.5447210000000 1.0
C      1  0.5111650000000  0.3840490000000  0.4506320000000 1.0
C      1  0.4981540000000  0.6358630000000  0.4959520000000 1.0
C      1  0.4929170000000  0.3649680000000  0.4963090000000 1.0
END
