TITL C-3623287-7182-1070 17853.5391132686 125000 -1198.20862823325 0 0 193 (C1) n - 1
REM
REM in /home/nfs/bkarasulu/CARBON/AIRSS/Generating-Clusters/LCBOP/Higher-Symm/SD-CG/FIRE-CG
REM
REM
REM
REM
REM
REM ./C.cell (b20cbc046b6831c77cfcea5457e17084)
REM AIRSS Version 0.9.1 bugfix July 2018 build 013d7b7c2542+ Fri, 06 Jul 2018 19:26:36 +0100
REM compiler GCC version 9.2.1 20190827 (Red Hat 9.2.1-1)
REM options -cpp -mtune=generic -march=x86-64 -g -O0 -fpre-include=/usr/include/finclude/math-vector-fortran.h
REM seed -882235440 -1733887496 356793876 192575488 -1130124174 1544289543 542094637 -217585744 -743838584 1058314395 -1374899190 447260314 -634820644 1635180235 2093082243 -497086120 -254962909 -596819615 806563572 1992768602 -1856076581 1760962693 1545646384 -862120471 188683647 1619627147 -1540148391 -981014606 914483323 -1994674907 592119631 1448020682 -1930301635
REM
CELL 1.54180   50.00000   50.00000   50.00000   90.00000   90.00000   90.00000
LATT -1
SFAC C  
C      1  0.5183030000000  0.4595390000000  0.4782510000000 1.0
C      1  0.4738840000000  0.4490000000000  0.4866550000000 1.0
C      1  0.5034320000000  0.4495600000000  0.5238510000000 1.0
C      1  0.5049140000000  0.5511990000000  0.4289520000000 1.0
C      1  0.4246660000000  0.5505700000000  0.5369180000000 1.0
C      1  0.5660870000000  0.5456520000000  0.5450570000000 1.0
C      1  0.4905890000000  0.4256560000000  0.5995900000000 1.0
C      1  0.5968680000000  0.4182210000000  0.4604350000000 1.0
C      1  0.4237880000000  0.4097600000000  0.4431320000000 1.0
C      1  0.4290180000000  0.5221840000000  0.5419200000000 1.0
C      1  0.5723110000000  0.5194700000000  0.5330240000000 1.0
C      1  0.4958410000000  0.5245070000000  0.4236900000000 1.0
C      1  0.5684880000000  0.4408140000000  0.5654890000000 1.0
C      1  0.5236920000000  0.4384770000000  0.4358560000000 1.0
C      1  0.4377460000000  0.4304470000000  0.5058230000000 1.0
C      1  0.4630630000000  0.4317200000000  0.5980940000000 1.0
C      1  0.6134910000000  0.4283200000000  0.4811460000000 1.0
C      1  0.4496490000000  0.4055440000000  0.4333550000000 1.0
C      1  0.4356500000000  0.4931550000000  0.5233070000000 1.0
C      1  0.5584990000000  0.4924990000000  0.5340050000000 1.0
C      1  0.5064560000000  0.4978100000000  0.4296280000000 1.0
C      1  0.4376820000000  0.5868760000000  0.5070060000000 1.0
C      1  0.5321360000000  0.5848540000000  0.5516630000000 1.0
C      1  0.5189800000000  0.5901610000000  0.4559430000000 1.0
C      1  0.5696080000000  0.5062970000000  0.6002480000000 1.0
C      1  0.5755480000000  0.4684740000000  0.3877970000000 1.0
C      1  0.3561720000000  0.5253810000000  0.4904990000000 1.0
C      1  0.4577570000000  0.4784740000000  0.3948890000000 1.0
C      1  0.4369650000000  0.4709050000000  0.5842490000000 1.0
C      1  0.6120070000000  0.4731580000000  0.5013000000000 1.0
C      1  0.5262270000000  0.3706120000000  0.5336150000000 1.0
C      1  0.5034330000000  0.3861210000000  0.4833430000000 1.0
C      1  0.5080590000000  0.3784720000000  0.5118130000000 1.0
C      1  0.4054730000000  0.5650620000000  0.5533120000000 1.0
C      1  0.5905550000000  0.5578220000000  0.5554520000000 1.0
C      1  0.5078260000000  0.5642260000000  0.4028200000000 1.0
C      1  0.5203720000000  0.3902560000000  0.4568660000000 1.0
C      1  0.4195300000000  0.3830840000000  0.5056540000000 1.0
C      1  0.5381290000000  0.3904850000000  0.5524660000000 1.0
C      1  0.4083160000000  0.4175660000000  0.4654070000000 1.0
C      1  0.5173360000000  0.4280100000000  0.5898700000000 1.0
C      1  0.5711220000000  0.4220680000000  0.4481800000000 1.0
C      1  0.5076850000000  0.4219470000000  0.5262280000000 1.0
C      1  0.5261690000000  0.4355290000000  0.4654350000000 1.0
C      1  0.4620520000000  0.4233980000000  0.4905060000000 1.0
C      1  0.4659970000000  0.4815040000000  0.6448730000000 1.0
C      1  0.6691480000000  0.4690970000000  0.4548800000000 1.0
C      1  0.3828900000000  0.4723640000000  0.3998540000000 1.0
C      1  0.5347370000000  0.5795260000000  0.5794600000000 1.0
C      1  0.5407600000000  0.5912120000000  0.4377570000000 1.0
C      1  0.4139080000000  0.5788940000000  0.4934620000000 1.0
C      1  0.5525780000000  0.4083690000000  0.5348440000000 1.0
C      1  0.4987810000000  0.3988070000000  0.4373760000000 1.0
C      1  0.4373680000000  0.3909650000000  0.5266920000000 1.0
C      1  0.4048710000000  0.5301930000000  0.4817120000000 1.0
C      1  0.5305220000000  0.5308410000000  0.5868580000000 1.0
C      1  0.5543270000000  0.5462260000000  0.4277920000000 1.0
C      1  0.5759000000000  0.4847510000000  0.5834440000000 1.0
C      1  0.5489120000000  0.4725790000000  0.3971620000000 1.0
C      1  0.3381170000000  0.5342750000000  0.5078130000000 1.0
C      1  0.4307460000000  0.4713820000000  0.3941970000000 1.0
C      1  0.4530010000000  0.4581420000000  0.6042530000000 1.0
C      1  0.6251220000000  0.4551800000000  0.4826290000000 1.0
C      1  0.4413040000000  0.4601470000000  0.5581540000000 1.0
C      1  0.5889890000000  0.4609330000000  0.5134760000000 1.0
C      1  0.4753860000000  0.4640980000000  0.4121740000000 1.0
C      1  0.4537850000000  0.4778100000000  0.5403000000000 1.0
C      1  0.5657310000000  0.4764430000000  0.5111540000000 1.0
C      1  0.4844990000000  0.4796030000000  0.4338980000000 1.0
C      1  0.6479190000000  0.4622790000000  0.4683680000000 1.0
C      1  0.4080300000000  0.4761610000000  0.4098630000000 1.0
C      1  0.4692660000000  0.4760760000000  0.6184050000000 1.0
C      1  0.5996300000000  0.4733600000000  0.3990120000000 1.0
C      1  0.3807670000000  0.5149200000000  0.4827600000000 1.0
C      1  0.5443570000000  0.5155030000000  0.6063640000000 1.0
C      1  0.5434230000000  0.5143800000000  0.4942810000000 1.0
C      1  0.4786050000000  0.5116620000000  0.4683510000000 1.0
C      1  0.4825410000000  0.5142590000000  0.5277470000000 1.0
C      1  0.4910260000000  0.5641150000000  0.5125300000000 1.0
C      1  0.5141590000000  0.5551870000000  0.5000640000000 1.0
C      1  0.4713260000000  0.5545370000000  0.4940370000000 1.0
C      1  0.5969130000000  0.5490130000000  0.4997280000000 1.0
C      1  0.4527450000000  0.5486490000000  0.4144260000000 1.0
C      1  0.4481630000000  0.5448000000000  0.5834730000000 1.0
C      1  0.3782520000000  0.5603680000000  0.5554350000000 1.0
C      1  0.6087810000000  0.5395910000000  0.5672600000000 1.0
C      1  0.5210590000000  0.5471520000000  0.3840940000000 1.0
C      1  0.5424030000000  0.4603480000000  0.4248480000000 1.0
C      1  0.4217360000000  0.4518380000000  0.4959900000000 1.0
C      1  0.5522660000000  0.4645390000000  0.5744840000000 1.0
C      1  0.4386230000000  0.4320060000000  0.5555300000000 1.0
C      1  0.5912430000000  0.4344080000000  0.5233850000000 1.0
C      1  0.4805170000000  0.4362160000000  0.4109540000000 1.0
C      1  0.5071820000000  0.4721380000000  0.5413890000000 1.0
C      1  0.5342250000000  0.4794480000000  0.4679780000000 1.0
C      1  0.4586050000000  0.4711430000000  0.4782330000000 1.0
C      1  0.4995900000000  0.5681180000000  0.4522670000000 1.0
C      1  0.4461400000000  0.5678430000000  0.5279560000000 1.0
C      1  0.5457000000000  0.5645180000000  0.5348070000000 1.0
C      1  0.6127060000000  0.5013340000000  0.5065190000000 1.0
C      1  0.4639850000000  0.5057660000000  0.3911010000000 1.0
C      1  0.4291360000000  0.4979900000000  0.5852520000000 1.0
C      1  0.4742830000000  0.5629540000000  0.4675450000000 1.0
C      1  0.4750640000000  0.5649880000000  0.5359550000000 1.0
C      1  0.5396460000000  0.5625580000000  0.5065200000000 1.0
C      1  0.5213340000000  0.5575430000000  0.5904730000000 1.0
C      1  0.5608560000000  0.5718250000000  0.4379120000000 1.0
C      1  0.4089320000000  0.5578600000000  0.4751640000000 1.0
C      1  0.5796880000000  0.4925060000000  0.4653280000000 1.0
C      1  0.4119930000000  0.4855180000000  0.4364570000000 1.0
C      1  0.4898600000000  0.4869630000000  0.6023320000000 1.0
C      1  0.4691330000000  0.6193860000000  0.5232210000000 1.0
C      1  0.5270950000000  0.6226120000000  0.5225260000000 1.0
C      1  0.4933230000000  0.6248080000000  0.4734620000000 1.0
C      1  0.5733540000000  0.4252850000000  0.5428210000000 1.0
C      1  0.5033040000000  0.4237330000000  0.4234500000000 1.0
C      1  0.4338060000000  0.4192490000000  0.5313630000000 1.0
C      1  0.4068850000000  0.4462330000000  0.4719220000000 1.0
C      1  0.5290740000000  0.4551340000000  0.5927830000000 1.0
C      1  0.5680840000000  0.4504900000000  0.4394020000000 1.0
C      1  0.4342840000000  0.5220370000000  0.5712540000000 1.0
C      1  0.5955160000000  0.5233580000000  0.5139220000000 1.0
C      1  0.4707260000000  0.5268420000000  0.4084600000000 1.0
C      1  0.5330010000000  0.5244730000000  0.4686160000000 1.0
C      1  0.4539970000000  0.5162440000000  0.4833950000000 1.0
C      1  0.5088070000000  0.5215000000000  0.5385990000000 1.0
C      1  0.5141920000000  0.6070780000000  0.5429770000000 1.0
C      1  0.5184780000000  0.6112560000000  0.4756340000000 1.0
C      1  0.4555420000000  0.6086240000000  0.4996260000000 1.0
C      1  0.3360460000000  0.5454440000000  0.5319130000000 1.0
C      1  0.6013760000000  0.4890070000000  0.5715970000000 1.0
C      1  0.5356370000000  0.4957530000000  0.3863940000000 1.0
C      1  0.5065710000000  0.5303470000000  0.4754410000000 1.0
C      1  0.4649790000000  0.5284050000000  0.5062600000000 1.0
C      1  0.5287330000000  0.5189780000000  0.5183600000000 1.0
C      1  0.5306680000000  0.4961000000000  0.6215870000000 1.0
C      1  0.6051760000000  0.4769910000000  0.4252600000000 1.0
C      1  0.3817420000000  0.4882000000000  0.4733590000000 1.0
C      1  0.5678860000000  0.5960930000000  0.5000870000000 1.0
C      1  0.4577960000000  0.5956450000000  0.4421950000000 1.0
C      1  0.4690380000000  0.5941110000000  0.5677630000000 1.0
C      1  0.6137850000000  0.5130920000000  0.5692130000000 1.0
C      1  0.5296680000000  0.5215630000000  0.3806910000000 1.0
C      1  0.3527940000000  0.5551250000000  0.5502070000000 1.0
C      1  0.4725260000000  0.5376220000000  0.6266700000000 1.0
C      1  0.6198380000000  0.5508350000000  0.4548210000000 1.0
C      1  0.4027480000000  0.5430820000000  0.4093620000000 1.0
C      1  0.5530850000000  0.5270450000000  0.4483460000000 1.0
C      1  0.4283510000000  0.5161530000000  0.4714620000000 1.0
C      1  0.5113190000000  0.5181070000000  0.5680950000000 1.0
C      1  0.4883390000000  0.5110180000000  0.5862940000000 1.0
C      1  0.5797390000000  0.5204230000000  0.4587010000000 1.0
C      1  0.4247170000000  0.5114530000000  0.4425980000000 1.0
C      1  0.5915850000000  0.5822090000000  0.5127290000000 1.0
C      1  0.4635600000000  0.5826980000000  0.4154840000000 1.0
C      1  0.4445100000000  0.5806110000000  0.5789260000000 1.0
C      1  0.4719130000000  0.3970860000000  0.4491500000000 1.0
C      1  0.4650760000000  0.3866860000000  0.5319170000000 1.0
C      1  0.5346090000000  0.4171840000000  0.5148870000000 1.0
C      1  0.4873860000000  0.5840090000000  0.3999090000000 1.0
C      1  0.4180370000000  0.5837200000000  0.5707800000000 1.0
C      1  0.5980670000000  0.5806500000000  0.5401340000000 1.0
C      1  0.4577010000000  0.4193450000000  0.4099560000000 1.0
C      1  0.4474640000000  0.4181750000000  0.5786560000000 1.0
C      1  0.6074440000000  0.4181000000000  0.5070850000000 1.0
C      1  0.4836870000000  0.6120760000000  0.5475930000000 1.0
C      1  0.5386980000000  0.6154840000000  0.4976550000000 1.0
C      1  0.4666720000000  0.6146230000000  0.4720300000000 1.0
C      1  0.4259350000000  0.5398720000000  0.4282420000000 1.0
C      1  0.4746930000000  0.5370110000000  0.5968450000000 1.0
C      1  0.5939350000000  0.5461080000000  0.4689360000000 1.0
C      1  0.4806040000000  0.4868920000000  0.5384930000000 1.0
C      1  0.5568130000000  0.4883050000000  0.4853280000000 1.0
C      1  0.4726280000000  0.4857100000000  0.4583160000000 1.0
C      1  0.4253870000000  0.5598360000000  0.4517090000000 1.0
C      1  0.4933360000000  0.5579970000000  0.5857560000000 1.0
C      1  0.5725120000000  0.5671890000000  0.4636970000000 1.0
C      1  0.5381700000000  0.4207010000000  0.4872110000000 1.0
C      1  0.4756280000000  0.4001590000000  0.4781530000000 1.0
C      1  0.4906260000000  0.3979970000000  0.5265140000000 1.0
C      1  0.5158670000000  0.4764630000000  0.6076450000000 1.0
C      1  0.5865150000000  0.4721640000000  0.4460740000000 1.0
C      1  0.3987480000000  0.4709420000000  0.4583460000000 1.0
C      1  0.5571810000000  0.5732470000000  0.4866890000000 1.0
C      1  0.4501210000000  0.5723610000000  0.4560740000000 1.0
C      1  0.4838980000000  0.5698080000000  0.5622070000000 1.0
C      1  0.5304940000000  0.4849180000000  0.4397320000000 1.0
C      1  0.4359060000000  0.4771230000000  0.4973010000000 1.0
C      1  0.5373160000000  0.4786980000000  0.5502940000000 1.0
C      1  0.4066530000000  0.3969890000000  0.4858030000000 1.0
C      1  0.5280550000000  0.4046570000000  0.5758200000000 1.0
C      1  0.5492430000000  0.4002770000000  0.4502490000000 1.0
C      1  0.4985210000000  0.4562970000000  0.4969730000000 1.0
END
