TITL C-3623285-6872-1897 -6.10910677874385e-07 125000 -299.758688190989 0 0 50 (C1) n - 1
REM
REM in /home/nfs/bkarasulu/CARBON/AIRSS/Generating-Clusters/LCBOP/Higher-Symm/SD-CG/FIRE-CG
REM
REM
REM
REM
REM
REM ./C.cell (b20cbc046b6831c77cfcea5457e17084)
REM AIRSS Version 0.9.1 bugfix July 2018 build 013d7b7c2542+ Fri, 06 Jul 2018 19:26:36 +0100
REM compiler GCC version 9.2.1 20190827 (Red Hat 9.2.1-1)
REM options -cpp -mtune=generic -march=x86-64 -g -O0 -fpre-include=/usr/include/finclude/math-vector-fortran.h
REM seed -2079629469 -1491900135 844334993 863275463 -1453020227 1223481456 -429856452 1712888735 1930503303 -2140222119 1885846923 2136428182 -1778368357 -1087996975 1761010311 -1950460553 552672768 129349550 1872334074 208629965 1006506192 -1031611481 -1231799469 -1186882864 -2128701980 -503481121 1019813631 452213080 -1768826328 560599864 336361599 -862594541 -1662959125
REM
CELL 1.54180   50.00000   50.00000   50.00000   90.00000   90.00000   90.00000
LATT -1
SFAC C  
C      1  0.4367800000000  0.4648730000000  0.4791330000000 1.0
C      1  0.4493520000000  0.5465010000000  0.4775760000000 1.0
C      1  0.5301690000000  0.5647750000000  0.4792410000000 1.0
C      1  0.5736770000000  0.4904460000000  0.4793230000000 1.0
C      1  0.5136800000000  0.4338700000000  0.4773790000000 1.0
C      1  0.5603660000000  0.4658580000000  0.4774610000000 1.0
C      1  0.5492140000000  0.5442940000000  0.4770940000000 1.0
C      1  0.4691720000000  0.5661640000000  0.4792860000000 1.0
C      1  0.4321250000000  0.4923830000000  0.4774070000000 1.0
C      1  0.4861060000000  0.4295300000000  0.4789430000000 1.0
C      1  0.5431330000000  0.4997790000000  0.4547780000000 1.0
C      1  0.5152210000000  0.4568710000000  0.4591640000000 1.0
C      1  0.4663560000000  0.4770690000000  0.4537330000000 1.0
C      1  0.4612760000000  0.5275560000000  0.4585790000000 1.0
C      1  0.5124370000000  0.5391550000000  0.4528890000000 1.0
C      1  0.4531210000000  0.5009140000000  0.4587650000000 1.0
C      1  0.4884160000000  0.4616870000000  0.4538700000000 1.0
C      1  0.5381490000000  0.4727630000000  0.4591780000000 1.0
C      1  0.5364270000000  0.5261470000000  0.4580090000000 1.0
C      1  0.4855800000000  0.5396400000000  0.4529750000000 1.0
C      1  0.4851990000000  0.5444390000000  0.5406340000000 1.0
C      1  0.5373820000000  0.5271020000000  0.5398840000000 1.0
C      1  0.5382940000000  0.4724520000000  0.5398260000000 1.0
C      1  0.4858300000000  0.4559370000000  0.5404030000000 1.0
C      1  0.4530280000000  0.5001180000000  0.5399580000000 1.0
C      1  0.5141100000000  0.5441470000000  0.5406810000000 1.0
C      1  0.4617820000000  0.5276470000000  0.5400530000000 1.0
C      1  0.4623080000000  0.4728030000000  0.5404830000000 1.0
C      1  0.5147040000000  0.4557280000000  0.5398520000000 1.0
C      1  0.5471460000000  0.4998880000000  0.5403630000000 1.0
C      1  0.4444750000000  0.4479400000000  0.4997840000000 1.0
C      1  0.4336120000000  0.5367800000000  0.4988240000000 1.0
C      1  0.5141860000000  0.5745030000000  0.4998230000000 1.0
C      1  0.5763480000000  0.5089690000000  0.4997220000000 1.0
C      1  0.5320600000000  0.4316420000000  0.4986280000000 1.0
C      1  0.5556840000000  0.4480760000000  0.4987830000000 1.0
C      1  0.5654490000000  0.5354170000000  0.4982640000000 1.0
C      1  0.4856040000000  0.5749590000000  0.4999070000000 1.0
C      1  0.4248470000000  0.5093290000000  0.4987190000000 1.0
C      1  0.4676670000000  0.4312990000000  0.4996730000000 1.0
C      1  0.4406550000000  0.4574030000000  0.5267320000000 1.0
C      1  0.4410510000000  0.5436140000000  0.5256830000000 1.0
C      1  0.5228030000000  0.5692240000000  0.5268350000000 1.0
C      1  0.5738390000000  0.4997940000000  0.5269230000000 1.0
C      1  0.5218910000000  0.4305420000000  0.5254350000000 1.0
C      1  0.5598380000000  0.4574800000000  0.5255840000000 1.0
C      1  0.5577060000000  0.5430370000000  0.5248380000000 1.0
C      1  0.4768530000000  0.5696000000000  0.5268430000000 1.0
C      1  0.4269000000000  0.4992750000000  0.5255170000000 1.0
C      1  0.4779900000000  0.4305810000000  0.5265650000000 1.0
END
