TITL C-3623283-6828-742 0.0323593821907631 125000 -199.261335288821 0 0 34 (C1) n - 1
REM
REM in /home/nfs/bkarasulu/CARBON/AIRSS/Generating-Clusters/LCBOP/Higher-Symm/SD-CG/FIRE-CG
REM
REM
REM
REM
REM
REM ./C.cell (b20cbc046b6831c77cfcea5457e17084)
REM AIRSS Version 0.9.1 bugfix July 2018 build 013d7b7c2542+ Fri, 06 Jul 2018 19:26:36 +0100
REM compiler GCC version 9.2.1 20190827 (Red Hat 9.2.1-1)
REM options -cpp -mtune=generic -march=x86-64 -g -O0 -fpre-include=/usr/include/finclude/math-vector-fortran.h
REM seed -1770532828 -1490648047 1090635525 -12972230 -500342962 -434487473 2000908041 1141899780 1598008953 -1990011265 -415912888 1099622568 456974023 1531251486 1153002635 -561437995 27528377 -437344398 -297839389 -924910799 2029403490 -250408721 -1508136475 1102743751 -617451594 519990594 -424545101 -143003259 -1981961463 1849152446 -866909717 -1698337939 2052478927
REM
CELL 1.54180   50.00000   50.00000   50.00000   90.00000   90.00000   90.00000
LATT -1
SFAC C  
C      1  0.4510630000000  0.5121420000000  0.4935310000000 1.0
C      1  0.4477910000000  0.4329970000000  0.5326430000000 1.0
C      1  0.5296280000000  0.5345740000000  0.4760860000000 1.0
C      1  0.4624890000000  0.5132510000000  0.4674860000000 1.0
C      1  0.4944840000000  0.4326120000000  0.4790540000000 1.0
C      1  0.4635600000000  0.4895740000000  0.4523850000000 1.0
C      1  0.4078500000000  0.4620260000000  0.5199790000000 1.0
C      1  0.5778160000000  0.5834600000000  0.5007740000000 1.0
C      1  0.5545830000000  0.4904690000000  0.4841150000000 1.0
C      1  0.4244970000000  0.5043840000000  0.4975730000000 1.0
C      1  0.5265380000000  0.4928240000000  0.4486480000000 1.0
C      1  0.4084360000000  0.4856370000000  0.5076100000000 1.0
C      1  0.5583400000000  0.5655090000000  0.5008550000000 1.0
C      1  0.5051420000000  0.5424980000000  0.4647050000000 1.0
C      1  0.4908300000000  0.4522210000000  0.5454650000000 1.0
C      1  0.4684270000000  0.5136970000000  0.5155160000000 1.0
C      1  0.4892470000000  0.5065360000000  0.5328010000000 1.0
C      1  0.4921700000000  0.4798060000000  0.5406240000000 1.0
C      1  0.5242370000000  0.4652980000000  0.4586500000000 1.0
C      1  0.5042280000000  0.4410140000000  0.5665060000000 1.0
C      1  0.5451780000000  0.4647930000000  0.4789360000000 1.0
C      1  0.5973160000000  0.6014130000000  0.5006320000000 1.0
C      1  0.4991190000000  0.4526490000000  0.4600650000000 1.0
C      1  0.5075440000000  0.5336560000000  0.5684510000000 1.0
C      1  0.4770320000000  0.4666640000000  0.4495830000000 1.0
C      1  0.4752420000000  0.4359900000000  0.5280040000000 1.0
C      1  0.6164960000000  0.6190690000000  0.5004910000000 1.0
C      1  0.5074950000000  0.5263250000000  0.5420830000000 1.0
C      1  0.4799210000000  0.5343720000000  0.4612790000000 1.0
C      1  0.4863330000000  0.4272600000000  0.5038170000000 1.0
C      1  0.5380190000000  0.5464600000000  0.5004720000000 1.0
C      1  0.5251730000000  0.5383510000000  0.5239980000000 1.0
C      1  0.4230580000000  0.4423370000000  0.5295340000000 1.0
C      1  0.5407170000000  0.5101320000000  0.4676500000000 1.0
END
