TITL C-3623287-7182-708 515.232470757012 125000 -1182.71173307002 0 0 194 (C1) n - 1
REM
REM in /home/nfs/bkarasulu/CARBON/AIRSS/Generating-Clusters/LCBOP/Higher-Symm/SD-CG/FIRE-CG
REM
REM
REM
REM
REM
REM ./C.cell (b20cbc046b6831c77cfcea5457e17084)
REM AIRSS Version 0.9.1 bugfix July 2018 build 013d7b7c2542+ Fri, 06 Jul 2018 19:26:36 +0100
REM compiler GCC version 9.2.1 20190827 (Red Hat 9.2.1-1)
REM options -cpp -mtune=generic -march=x86-64 -g -O0 -fpre-include=/usr/include/finclude/math-vector-fortran.h
REM seed -2034045548 1945907659 -278009329 -1180699439 1637996546 -1481730379 672402985 1232279325 1393790107 -1021331348 2105795427 -1343728721 1027449776 -1838847310 -840528147 -1738896902 35601964 -1683476946 1618044327 1865393319 -1277919126 1178901139 -1449447900 -1555718185 -787264871 -609753426 -580481971 -1507142042 232262824 1727717480 1656654839 -1117911394 -196967695
REM
CELL 1.54180   50.00000   50.00000   50.00000   90.00000   90.00000   90.00000
LATT -1
SFAC C  
C      1  0.5694870000000  0.5316800000000  0.3879020000000 1.0
C      1  0.5432710000000  0.5615060000000  0.5846720000000 1.0
C      1  0.5106670000000  0.4340890000000  0.5361590000000 1.0
C      1  0.3925930000000  0.5060970000000  0.4333250000000 1.0
C      1  0.4479150000000  0.5482030000000  0.6160220000000 1.0
C      1  0.4686420000000  0.4312960000000  0.5929910000000 1.0
C      1  0.4870900000000  0.4481780000000  0.5310560000000 1.0
C      1  0.6148370000000  0.4425360000000  0.5516650000000 1.0
C      1  0.4912980000000  0.4688390000000  0.6156860000000 1.0
C      1  0.4609650000000  0.5976180000000  0.4273150000000 1.0
C      1  0.4080610000000  0.4694000000000  0.5683740000000 1.0
C      1  0.4959150000000  0.5555380000000  0.6362730000000 1.0
C      1  0.5732900000000  0.5739740000000  0.4824290000000 1.0
C      1  0.4556800000000  0.3860430000000  0.4756910000000 1.0
C      1  0.4121430000000  0.4670750000000  0.4818190000000 1.0
C      1  0.4944940000000  0.5994340000000  0.5210250000000 1.0
C      1  0.4356010000000  0.5670530000000  0.4489480000000 1.0
C      1  0.5450500000000  0.5002550000000  0.4777380000000 1.0
C      1  0.3980290000000  0.4316320000000  0.5216070000000 1.0
C      1  0.5251740000000  0.4303190000000  0.4923110000000 1.0
C      1  0.5409100000000  0.5575120000000  0.6136540000000 1.0
C      1  0.4752200000000  0.6159040000000  0.5359970000000 1.0
C      1  0.5694760000000  0.4817960000000  0.4303120000000 1.0
C      1  0.4298060000000  0.6324280000000  0.5400620000000 1.0
C      1  0.4850850000000  0.3937390000000  0.4314820000000 1.0
C      1  0.5403830000000  0.5149150000000  0.4538490000000 1.0
C      1  0.5558630000000  0.3850100000000  0.5127160000000 1.0
C      1  0.6104980000000  0.5072770000000  0.5098990000000 1.0
C      1  0.6016270000000  0.5063850000000  0.4605970000000 1.0
C      1  0.5763720000000  0.6074610000000  0.4510050000000 1.0
C      1  0.4923080000000  0.5474440000000  0.5836410000000 1.0
C      1  0.4557270000000  0.3737120000000  0.5018330000000 1.0
C      1  0.5015710000000  0.4798720000000  0.5025630000000 1.0
C      1  0.4735790000000  0.5007620000000  0.5878560000000 1.0
C      1  0.5532540000000  0.4549850000000  0.5236770000000 1.0
C      1  0.4197920000000  0.4850560000000  0.5900680000000 1.0
C      1  0.3934240000000  0.4859090000000  0.4118630000000 1.0
C      1  0.6062500000000  0.4293060000000  0.5037450000000 1.0
C      1  0.4249090000000  0.5917190000000  0.4590530000000 1.0
C      1  0.3937860000000  0.4838790000000  0.4960790000000 1.0
C      1  0.4319580000000  0.3991470000000  0.4683980000000 1.0
C      1  0.5648030000000  0.4179970000000  0.4458580000000 1.0
C      1  0.4233280000000  0.5420870000000  0.5051330000000 1.0
C      1  0.5118820000000  0.5048210000000  0.5126420000000 1.0
C      1  0.4460600000000  0.5599010000000  0.4987610000000 1.0
C      1  0.4922250000000  0.4511100000000  0.3838720000000 1.0
C      1  0.4365150000000  0.4763170000000  0.4675790000000 1.0
C      1  0.4939660000000  0.4440250000000  0.5999020000000 1.0
C      1  0.4354840000000  0.5369440000000  0.5928850000000 1.0
C      1  0.4976560000000  0.5476480000000  0.5170120000000 1.0
C      1  0.5557340000000  0.6206390000000  0.4372260000000 1.0
C      1  0.5509300000000  0.5213630000000  0.4056630000000 1.0
C      1  0.4513450000000  0.4288840000000  0.4214570000000 1.0
C      1  0.4898670000000  0.3591400000000  0.5525060000000 1.0
C      1  0.5395020000000  0.5886930000000  0.5748380000000 1.0
C      1  0.5746760000000  0.5947730000000  0.6176720000000 1.0
C      1  0.5202000000000  0.4238370000000  0.5610410000000 1.0
C      1  0.5269940000000  0.3866220000000  0.4520440000000 1.0
C      1  0.4323040000000  0.4020600000000  0.5388530000000 1.0
C      1  0.5230720000000  0.4199860000000  0.4149880000000 1.0
C      1  0.4915620000000  0.5246200000000  0.5003720000000 1.0
C      1  0.4141200000000  0.4174600000000  0.4762800000000 1.0
C      1  0.4475670000000  0.4563470000000  0.4177660000000 1.0
C      1  0.4912750000000  0.3354010000000  0.5396410000000 1.0
C      1  0.4121210000000  0.4754970000000  0.3938840000000 1.0
C      1  0.4690190000000  0.4637840000000  0.4718750000000 1.0
C      1  0.4879540000000  0.6168000000000  0.5629440000000 1.0
C      1  0.4024980000000  0.5567870000000  0.4912270000000 1.0
C      1  0.5441850000000  0.6128230000000  0.5230110000000 1.0
C      1  0.5231790000000  0.4702570000000  0.5714480000000 1.0
C      1  0.4201000000000  0.5130270000000  0.5937580000000 1.0
C      1  0.6038540000000  0.4141130000000  0.4790130000000 1.0
C      1  0.5593170000000  0.5744870000000  0.6273270000000 1.0
C      1  0.5976530000000  0.4511000000000  0.5725890000000 1.0
C      1  0.5123540000000  0.5014280000000  0.4213440000000 1.0
C      1  0.3919250000000  0.4799390000000  0.5477740000000 1.0
C      1  0.5410210000000  0.4664740000000  0.3912710000000 1.0
C      1  0.4591810000000  0.5669380000000  0.5225000000000 1.0
C      1  0.5757530000000  0.4646120000000  0.5132590000000 1.0
C      1  0.5618360000000  0.6062190000000  0.5707490000000 1.0
C      1  0.5147360000000  0.3948780000000  0.4278620000000 1.0
C      1  0.5128400000000  0.5176410000000  0.4460550000000 1.0
C      1  0.4212440000000  0.4424830000000  0.5669220000000 1.0
C      1  0.4691930000000  0.5554100000000  0.6311150000000 1.0
C      1  0.6051620000000  0.4239220000000  0.5319770000000 1.0
C      1  0.5013520000000  0.5739710000000  0.4094730000000 1.0
C      1  0.5632730000000  0.4673660000000  0.6102750000000 1.0
C      1  0.5297240000000  0.6219320000000  0.4471530000000 1.0
C      1  0.6405690000000  0.4517970000000  0.5503290000000 1.0
C      1  0.4963710000000  0.5723090000000  0.5752230000000 1.0
C      1  0.5572010000000  0.5080880000000  0.4302750000000 1.0
C      1  0.4187090000000  0.5176010000000  0.4311510000000 1.0
C      1  0.4497980000000  0.5238510000000  0.4701520000000 1.0
C      1  0.4150710000000  0.4241930000000  0.5448520000000 1.0
C      1  0.4893400000000  0.5966680000000  0.4232910000000 1.0
C      1  0.5634830000000  0.6165630000000  0.5440670000000 1.0
C      1  0.4863590000000  0.5735260000000  0.5154350000000 1.0
C      1  0.4645720000000  0.5151920000000  0.4026930000000 1.0
C      1  0.3801680000000  0.5219030000000  0.4545510000000 1.0
C      1  0.4711480000000  0.4880600000000  0.5629980000000 1.0
C      1  0.5815180000000  0.4590130000000  0.5924670000000 1.0
C      1  0.5312690000000  0.4389680000000  0.5180740000000 1.0
C      1  0.4491100000000  0.6199350000000  0.5252230000000 1.0
C      1  0.4644790000000  0.4597790000000  0.3764000000000 1.0
C      1  0.5870890000000  0.4046350000000  0.5417570000000 1.0
C      1  0.4221700000000  0.5347900000000  0.4090690000000 1.0
C      1  0.4778040000000  0.3295650000000  0.5169300000000 1.0
C      1  0.4397700000000  0.5070940000000  0.4492040000000 1.0
C      1  0.5143270000000  0.4871360000000  0.6209860000000 1.0
C      1  0.5120520000000  0.5963220000000  0.5640780000000 1.0
C      1  0.4616320000000  0.6171310000000  0.4758140000000 1.0
C      1  0.5940680000000  0.5339070000000  0.4552410000000 1.0
C      1  0.5201620000000  0.6011400000000  0.5331680000000 1.0
C      1  0.4388880000000  0.4642340000000  0.3915470000000 1.0
C      1  0.4661210000000  0.4821490000000  0.6087200000000 1.0
C      1  0.5167560000000  0.4650390000000  0.3788910000000 1.0
C      1  0.5605920000000  0.3955960000000  0.5386290000000 1.0
C      1  0.4968400000000  0.4293170000000  0.4025660000000 1.0
C      1  0.4345270000000  0.5577050000000  0.4025290000000 1.0
C      1  0.4456670000000  0.5735180000000  0.4223200000000 1.0
C      1  0.5234830000000  0.4970430000000  0.5626480000000 1.0
C      1  0.4505890000000  0.4680680000000  0.5148480000000 1.0
C      1  0.6173370000000  0.5041520000000  0.4841590000000 1.0
C      1  0.4816310000000  0.5525800000000  0.4583990000000 1.0
C      1  0.5699160000000  0.6032510000000  0.4794960000000 1.0
C      1  0.3866580000000  0.4861770000000  0.5221090000000 1.0
C      1  0.5404300000000  0.4039860000000  0.5573070000000 1.0
C      1  0.3859120000000  0.5418450000000  0.4729000000000 1.0
C      1  0.5528240000000  0.3950930000000  0.4599450000000 1.0
C      1  0.5272460000000  0.5642690000000  0.4790900000000 1.0
C      1  0.4758310000000  0.4640700000000  0.5521110000000 1.0
C      1  0.5221650000000  0.5226000000000  0.4022850000000 1.0
C      1  0.4895380000000  0.6203000000000  0.4735890000000 1.0
C      1  0.5951630000000  0.4553000000000  0.4954630000000 1.0
C      1  0.5877650000000  0.5612990000000  0.4599680000000 1.0
C      1  0.5081210000000  0.4748450000000  0.4331070000000 1.0
C      1  0.5053890000000  0.3875450000000  0.4717160000000 1.0
C      1  0.4620810000000  0.3459890000000  0.5024710000000 1.0
C      1  0.4630230000000  0.5176500000000  0.4950350000000 1.0
C      1  0.4431660000000  0.6108110000000  0.4988230000000 1.0
C      1  0.4748450000000  0.4150410000000  0.4157190000000 1.0
C      1  0.5407130000000  0.4765820000000  0.6215880000000 1.0
C      1  0.4380420000000  0.4914120000000  0.5238680000000 1.0
C      1  0.4132550000000  0.4393540000000  0.4958650000000 1.0
C      1  0.5888150000000  0.4285570000000  0.4578850000000 1.0
C      1  0.5327060000000  0.4482330000000  0.4726270000000 1.0
C      1  0.4846120000000  0.4663220000000  0.4477820000000 1.0
C      1  0.5488790000000  0.4323130000000  0.4249300000000 1.0
C      1  0.5547420000000  0.5412010000000  0.5391590000000 1.0
C      1  0.5606540000000  0.5177400000000  0.5236850000000 1.0
C      1  0.4173550000000  0.5901260000000  0.4860170000000 1.0
C      1  0.4790270000000  0.3865460000000  0.4591630000000 1.0
C      1  0.4745680000000  0.3804100000000  0.5462560000000 1.0
C      1  0.4428510000000  0.4430750000000  0.5883900000000 1.0
C      1  0.5876980000000  0.5417930000000  0.3722460000000 1.0
C      1  0.5902620000000  0.4807400000000  0.4505300000000 1.0
C      1  0.5249100000000  0.6234910000000  0.4765510000000 1.0
C      1  0.4440150000000  0.5457700000000  0.5672760000000 1.0
C      1  0.5067870000000  0.5103420000000  0.5429630000000 1.0
C      1  0.5876860000000  0.5103920000000  0.5233830000000 1.0
C      1  0.5406540000000  0.5089040000000  0.5046770000000 1.0
C      1  0.5502580000000  0.5626610000000  0.5224860000000 1.0
C      1  0.4913530000000  0.5215050000000  0.5945310000000 1.0
C      1  0.5434030000000  0.4725410000000  0.4732740000000 1.0
C      1  0.5154820000000  0.4440730000000  0.5807810000000 1.0
C      1  0.5191220000000  0.5419710000000  0.6257000000000 1.0
C      1  0.5493020000000  0.5399630000000  0.5669130000000 1.0
C      1  0.4895580000000  0.5352810000000  0.5433800000000 1.0
C      1  0.5036390000000  0.6145330000000  0.4394210000000 1.0
C      1  0.5101970000000  0.5492350000000  0.4015980000000 1.0
C      1  0.4698170000000  0.5224590000000  0.3508370000000 1.0
C      1  0.5425750000000  0.5139010000000  0.5748170000000 1.0
C      1  0.5600760000000  0.3865830000000  0.4861460000000 1.0
C      1  0.4646540000000  0.4751260000000  0.4293880000000 1.0
C      1  0.4630770000000  0.5048770000000  0.4300230000000 1.0
C      1  0.4535980000000  0.5536520000000  0.4685830000000 1.0
C      1  0.4389010000000  0.5171030000000  0.5127820000000 1.0
C      1  0.5094850000000  0.4073890000000  0.4907050000000 1.0
C      1  0.4410850000000  0.4693410000000  0.6022970000000 1.0
C      1  0.4782950000000  0.4631130000000  0.5051170000000 1.0
C      1  0.5471150000000  0.6158560000000  0.4939260000000 1.0
C      1  0.5902640000000  0.5838680000000  0.4416230000000 1.0
C      1  0.5775780000000  0.6082630000000  0.5942040000000 1.0
C      1  0.4869680000000  0.5274050000000  0.4467800000000 1.0
C      1  0.4393390000000  0.4430470000000  0.5091490000000 1.0
C      1  0.4672520000000  0.5186700000000  0.3765000000000 1.0
C      1  0.5502410000000  0.5638500000000  0.4946990000000 1.0
C      1  0.4537100000000  0.3869130000000  0.5279860000000 1.0
C      1  0.4475990000000  0.6099190000000  0.4513290000000 1.0
C      1  0.5923110000000  0.4569130000000  0.4662080000000 1.0
C      1  0.5555650000000  0.4596900000000  0.4154170000000 1.0
C      1  0.5108630000000  0.5156800000000  0.6154060000000 1.0
C      1  0.4621130000000  0.5483070000000  0.5459260000000 1.0
C      1  0.5036920000000  0.5668270000000  0.4672620000000 1.0
END
