TITL C-3623286-7563-1080 132428.055667564 125000 -587.372857504361 0 0 94 (C1) n - 1
REM
REM in /home/nfs/bkarasulu/CARBON/AIRSS/Generating-Clusters/LCBOP/Higher-Symm/SD-CG/FIRE-CG
REM
REM
REM
REM
REM
REM ./C.cell (b20cbc046b6831c77cfcea5457e17084)
REM AIRSS Version 0.9.1 bugfix July 2018 build 013d7b7c2542+ Fri, 06 Jul 2018 19:26:36 +0100
REM compiler GCC version 9.2.1 20190827 (Red Hat 9.2.1-1)
REM options -cpp -mtune=generic -march=x86-64 -g -O0 -fpre-include=/usr/include/finclude/math-vector-fortran.h
REM seed 723480203 -1066839315 -437119913 176053044 2051017747 -339399724 1383437244 593958530 1802191826 1366158050 735933318 -173178669 -1067215370 -1807268306 -1543623458 -490798836 280011961 317407756 2049796414 -593207057 -1378476210 1779608478 96355195 1914880268 -1991460755 -953712310 955247192 86287608 -228085367 702422378 -248706575 636422567 164607415
REM
CELL 1.54180   50.00000   50.00000   50.00000   90.00000   90.00000   90.00000
LATT -1
SFAC C  
C      1  0.5852720000000  0.5400260000000  0.5273590000000 1.0
C      1  0.4945850000000  0.4029730000000  0.5287090000000 1.0
C      1  0.4245380000000  0.5491280000000  0.5231630000000 1.0
C      1  0.5821540000000  0.5414170000000  0.4755930000000 1.0
C      1  0.4937670000000  0.4045040000000  0.4753960000000 1.0
C      1  0.4218610000000  0.5542830000000  0.4706750000000 1.0
C      1  0.4393760000000  0.5162620000000  0.4396470000000 1.0
C      1  0.5475810000000  0.5526940000000  0.4403680000000 1.0
C      1  0.5152920000000  0.4368840000000  0.4410050000000 1.0
C      1  0.4388060000000  0.5137490000000  0.5573070000000 1.0
C      1  0.5470340000000  0.5471000000000  0.5583800000000 1.0
C      1  0.5190920000000  0.4355680000000  0.5608950000000 1.0
C      1  0.5051320000000  0.3803730000000  0.5149540000000 1.0
C      1  0.3986210000000  0.5532450000000  0.5119230000000 1.0
C      1  0.6023350000000  0.5589630000000  0.5147590000000 1.0
C      1  0.5044340000000  0.3810750000000  0.4876350000000 1.0
C      1  0.3970850000000  0.5556860000000  0.4847200000000 1.0
C      1  0.6015630000000  0.5587170000000  0.4874130000000 1.0
C      1  0.5411020000000  0.5190680000000  0.5647060000000 1.0
C      1  0.5015200000000  0.4583190000000  0.5664650000000 1.0
C      1  0.4676620000000  0.5143260000000  0.5587500000000 1.0
C      1  0.5352840000000  0.5265170000000  0.4374520000000 1.0
C      1  0.4951050000000  0.4570740000000  0.4361220000000 1.0
C      1  0.4668750000000  0.5240030000000  0.4321730000000 1.0
C      1  0.5080930000000  0.4830310000000  0.5483330000000 1.0
C      1  0.4796520000000  0.4926530000000  0.5437240000000 1.0
C      1  0.5206580000000  0.5100520000000  0.5469330000000 1.0
C      1  0.4990820000000  0.4804720000000  0.4521140000000 1.0
C      1  0.4876580000000  0.5085480000000  0.4490020000000 1.0
C      1  0.5112020000000  0.5263800000000  0.4526960000000 1.0
C      1  0.5657800000000  0.4430220000000  0.5145310000000 1.0
C      1  0.4235520000000  0.4774730000000  0.5142510000000 1.0
C      1  0.5166270000000  0.5908760000000  0.5144790000000 1.0
C      1  0.5531530000000  0.4448200000000  0.4864930000000 1.0
C      1  0.4163860000000  0.4695210000000  0.4868570000000 1.0
C      1  0.5234270000000  0.5837460000000  0.4871720000000 1.0
C      1  0.4506390000000  0.4507640000000  0.4576970000000 1.0
C      1  0.4835180000000  0.5735330000000  0.4469950000000 1.0
C      1  0.5574330000000  0.4841950000000  0.4579730000000 1.0
C      1  0.4507220000000  0.4499900000000  0.5504540000000 1.0
C      1  0.4868410000000  0.5600770000000  0.5395190000000 1.0
C      1  0.5703690000000  0.4790670000000  0.5517950000000 1.0
C      1  0.5175340000000  0.5189240000000  0.5188050000000 1.0
C      1  0.5250550000000  0.4710150000000  0.5244990000000 1.0
C      1  0.4707700000000  0.4868220000000  0.5158170000000 1.0
C      1  0.5089160000000  0.5422980000000  0.4765160000000 1.0
C      1  0.5072500000000  0.4759670000000  0.4790220000000 1.0
C      1  0.4756510000000  0.5116820000000  0.4774190000000 1.0
C      1  0.4753020000000  0.5523820000000  0.4283640000000 1.0
C      1  0.5499280000000  0.5021120000000  0.4371860000000 1.0
C      1  0.4677270000000  0.4494700000000  0.4349990000000 1.0
C      1  0.4800050000000  0.5400820000000  0.5586450000000 1.0
C      1  0.5596580000000  0.4975470000000  0.5714260000000 1.0
C      1  0.4724360000000  0.4536540000000  0.5696950000000 1.0
C      1  0.4422820000000  0.5024610000000  0.5108200000000 1.0
C      1  0.5374100000000  0.5395800000000  0.5122380000000 1.0
C      1  0.5169010000000  0.4444430000000  0.5159680000000 1.0
C      1  0.4482130000000  0.5153280000000  0.4844980000000 1.0
C      1  0.5345590000000  0.5549320000000  0.4867830000000 1.0
C      1  0.5217810000000  0.4443030000000  0.4872740000000 1.0
C      1  0.5576180000000  0.5526410000000  0.4674840000000 1.0
C      1  0.5111760000000  0.4249880000000  0.4668620000000 1.0
C      1  0.4322060000000  0.5286900000000  0.4645870000000 1.0
C      1  0.5580350000000  0.5462980000000  0.5318790000000 1.0
C      1  0.5116830000000  0.4244020000000  0.5355790000000 1.0
C      1  0.4324850000000  0.5231550000000  0.5309710000000 1.0
C      1  0.5577210000000  0.4555980000000  0.4588540000000 1.0
C      1  0.4285870000000  0.4688900000000  0.4601690000000 1.0
C      1  0.5109000000000  0.5843140000000  0.4529930000000 1.0
C      1  0.5651940000000  0.4507380000000  0.5447640000000 1.0
C      1  0.4282650000000  0.4682930000000  0.5437850000000 1.0
C      1  0.5102630000000  0.5768530000000  0.5399030000000 1.0
C      1  0.5871400000000  0.5137510000000  0.5160040000000 1.0
C      1  0.4697130000000  0.4124730000000  0.5177480000000 1.0
C      1  0.4453150000000  0.5650760000000  0.5113560000000 1.0
C      1  0.5805260000000  0.5152020000000  0.4873720000000 1.0
C      1  0.4700680000000  0.4146960000000  0.4880220000000 1.0
C      1  0.4423780000000  0.5709980000000  0.4821870000000 1.0
C      1  0.4250710000000  0.4895870000000  0.5629980000000 1.0
C      1  0.5293720000000  0.5694900000000  0.5599580000000 1.0
C      1  0.5474330000000  0.4374550000000  0.5630770000000 1.0
C      1  0.4284200000000  0.4896870000000  0.4402180000000 1.0
C      1  0.5316390000000  0.5758860000000  0.4352380000000 1.0
C      1  0.5431350000000  0.4426810000000  0.4376060000000 1.0
C      1  0.5720070000000  0.4925260000000  0.5270280000000 1.0
C      1  0.4601450000000  0.4378440000000  0.5271840000000 1.0
C      1  0.4732510000000  0.5587400000000  0.5150700000000 1.0
C      1  0.5592490000000  0.4958160000000  0.4835680000000 1.0
C      1  0.4617370000000  0.4418370000000  0.4819210000000 1.0
C      1  0.4687850000000  0.5706650000000  0.4710330000000 1.0
C      1  0.5488120000000  0.4857670000000  0.5098540000000 1.0
C      1  0.4856490000000  0.5548150000000  0.4893080000000 1.0
C      1  0.4646450000000  0.4578700000000  0.5061430000000 1.0
C      1  0.4940700000000  0.4988360000000  0.4986430000000 1.0
END
