TITL C-3623285-6872-195 -7531.96718886557 125000 -718.559612225244 0 0 120 (C1) n - 1
REM
REM in /home/nfs/bkarasulu/CARBON/AIRSS/Generating-Clusters/LCBOP/Higher-Symm/SD-CG/FIRE-CG
REM
REM
REM
REM
REM
REM ./C.cell (b20cbc046b6831c77cfcea5457e17084)
REM AIRSS Version 0.9.1 bugfix July 2018 build 013d7b7c2542+ Fri, 06 Jul 2018 19:26:36 +0100
REM compiler GCC version 9.2.1 20190827 (Red Hat 9.2.1-1)
REM options -cpp -mtune=generic -march=x86-64 -g -O0 -fpre-include=/usr/include/finclude/math-vector-fortran.h
REM seed 243485185 1737065479 -832542466 560404680 -1687791263 346064658 175548844 1211821422 745596060 -1320435455 -173268562 -1022732150 1777341237 2029085704 1183607645 207691724 274709013 1021463709 -61926144 -229628830 785506670 -112720786 1278709135 -1395392621 -1966735379 259355676 2106321605 -1515850121 -2000449923 -936250138 1895009544 -964189054 1567203989
REM
CELL 1.54180   50.00000   50.00000   50.00000   90.00000   90.00000   90.00000
LATT -1
SFAC C  
C      1  0.5136070000000  0.5720030000000  0.4315950000000 1.0
C      1  0.5233450000000  0.5158580000000  0.5604420000000 1.0
C      1  0.4922910000000  0.5486610000000  0.5965240000000 1.0
C      1  0.4875580000000  0.4963380000000  0.5976870000000 1.0
C      1  0.4213770000000  0.5000900000000  0.4722730000000 1.0
C      1  0.5025380000000  0.5217500000000  0.6001920000000 1.0
C      1  0.5532870000000  0.5346070000000  0.5878290000000 1.0
C      1  0.5465930000000  0.4567660000000  0.4470500000000 1.0
C      1  0.4517500000000  0.5241460000000  0.5774300000000 1.0
C      1  0.5731060000000  0.4212380000000  0.4809680000000 1.0
C      1  0.5238300000000  0.5585580000000  0.4921460000000 1.0
C      1  0.5532060000000  0.4070780000000  0.4693520000000 1.0
C      1  0.4472600000000  0.5892420000000  0.5012100000000 1.0
C      1  0.5286370000000  0.5196080000000  0.5888710000000 1.0
C      1  0.4221700000000  0.4450150000000  0.5144250000000 1.0
C      1  0.5212920000000  0.4540630000000  0.5205700000000 1.0
C      1  0.5523920000000  0.4758650000000  0.5475140000000 1.0
C      1  0.4194070000000  0.5860360000000  0.5075410000000 1.0
C      1  0.5136620000000  0.5063470000000  0.4533240000000 1.0
C      1  0.5318820000000  0.4602200000000  0.4709820000000 1.0
C      1  0.5108950000000  0.4976600000000  0.5438980000000 1.0
C      1  0.4401050000000  0.5244510000000  0.5110470000000 1.0
C      1  0.5972920000000  0.4977590000000  0.3970350000000 1.0
C      1  0.4697510000000  0.4451910000000  0.4530930000000 1.0
C      1  0.4935040000000  0.5978430000000  0.5323280000000 1.0
C      1  0.5846580000000  0.4528240000000  0.5221360000000 1.0
C      1  0.5217940000000  0.4439050000000  0.4932130000000 1.0
C      1  0.5252930000000  0.4080700000000  0.4624680000000 1.0
C      1  0.5805190000000  0.4335310000000  0.5434670000000 1.0
C      1  0.4554620000000  0.5774070000000  0.4763890000000 1.0
C      1  0.5849210000000  0.4986740000000  0.4826130000000 1.0
C      1  0.5491040000000  0.4564830000000  0.5695220000000 1.0
C      1  0.4667690000000  0.4522480000000  0.5618340000000 1.0
C      1  0.5741380000000  0.5033470000000  0.4076080000000 1.0
C      1  0.4791280000000  0.4846470000000  0.4271560000000 1.0
C      1  0.4591330000000  0.4918540000000  0.5409290000000 1.0
C      1  0.5185890000000  0.4141330000000  0.4352390000000 1.0
C      1  0.4919070000000  0.5711710000000  0.5809780000000 1.0
C      1  0.5139550000000  0.3966160000000  0.5399140000000 1.0
C      1  0.4879380000000  0.4485480000000  0.5811980000000 1.0
C      1  0.4681010000000  0.5007290000000  0.4784910000000 1.0
C      1  0.5565640000000  0.4284410000000  0.5593240000000 1.0
C      1  0.5019870000000  0.4705780000000  0.5940680000000 1.0
C      1  0.5089500000000  0.4182880000000  0.4843450000000 1.0
C      1  0.5146060000000  0.4962660000000  0.4956300000000 1.0
C      1  0.4070180000000  0.4555360000000  0.4489500000000 1.0
C      1  0.4859660000000  0.4879970000000  0.4978040000000 1.0
C      1  0.6038400000000  0.5518460000000  0.5423080000000 1.0
C      1  0.4853160000000  0.4078620000000  0.4989580000000 1.0
C      1  0.4525660000000  0.5612080000000  0.4303150000000 1.0
C      1  0.5485270000000  0.5080840000000  0.4176920000000 1.0
C      1  0.4565750000000  0.4075420000000  0.4919570000000 1.0
C      1  0.5654080000000  0.4974650000000  0.5030690000000 1.0
C      1  0.5210150000000  0.4344530000000  0.4169760000000 1.0
C      1  0.4934530000000  0.5882730000000  0.5597630000000 1.0
C      1  0.4127540000000  0.5593050000000  0.4672860000000 1.0
C      1  0.4694300000000  0.4976410000000  0.4504220000000 1.0
C      1  0.3789390000000  0.4542030000000  0.5333970000000 1.0
C      1  0.4676660000000  0.5397620000000  0.4172870000000 1.0
C      1  0.4372510000000  0.4235570000000  0.5071240000000 1.0
C      1  0.5271580000000  0.4881010000000  0.4135460000000 1.0
C      1  0.5346430000000  0.5846930000000  0.4974250000000 1.0
C      1  0.5284040000000  0.4792640000000  0.5325020000000 1.0
C      1  0.4057710000000  0.5637650000000  0.4948940000000 1.0
C      1  0.5310080000000  0.4657760000000  0.5906370000000 1.0
C      1  0.4856710000000  0.5485900000000  0.5177140000000 1.0
C      1  0.5183130000000  0.5992360000000  0.5165290000000 1.0
C      1  0.4062570000000  0.6031850000000  0.5242710000000 1.0
C      1  0.4956050000000  0.5581920000000  0.4922490000000 1.0
C      1  0.4127600000000  0.5204020000000  0.5198670000000 1.0
C      1  0.5182720000000  0.5460440000000  0.4209360000000 1.0
C      1  0.4460350000000  0.3980070000000  0.4675240000000 1.0
C      1  0.5399380000000  0.5121600000000  0.4989530000000 1.0
C      1  0.4743820000000  0.4569810000000  0.4292170000000 1.0
C      1  0.4276190000000  0.4079960000000  0.4506360000000 1.0
C      1  0.5062070000000  0.4316570000000  0.5682270000000 1.0
C      1  0.5837080000000  0.4406830000000  0.4964130000000 1.0
C      1  0.4131270000000  0.4298190000000  0.4451270000000 1.0
C      1  0.4994400000000  0.4992680000000  0.4124460000000 1.0
C      1  0.5392070000000  0.4043460000000  0.5515880000000 1.0
C      1  0.4683160000000  0.4490920000000  0.4796570000000 1.0
C      1  0.5153540000000  0.4395680000000  0.5440170000000 1.0
C      1  0.4594180000000  0.5394730000000  0.5267970000000 1.0
C      1  0.4732810000000  0.4412720000000  0.5337720000000 1.0
C      1  0.4609560000000  0.4979880000000  0.5854020000000 1.0
C      1  0.4058500000000  0.4930850000000  0.5246930000000 1.0
C      1  0.5561260000000  0.5885240000000  0.4788230000000 1.0
C      1  0.3561850000000  0.4445530000000  0.5416640000000 1.0
C      1  0.5893000000000  0.5056220000000  0.5432650000000 1.0
C      1  0.4688080000000  0.5854020000000  0.4287430000000 1.0
C      1  0.5402560000000  0.5369790000000  0.4833390000000 1.0
C      1  0.4434660000000  0.5104160000000  0.4868640000000 1.0
C      1  0.6052690000000  0.5078190000000  0.4681590000000 1.0
C      1  0.4535030000000  0.5395460000000  0.5550470000000 1.0
C      1  0.4890090000000  0.4095450000000  0.5275050000000 1.0
C      1  0.5597550000000  0.5421410000000  0.5598970000000 1.0
C      1  0.4543690000000  0.4777130000000  0.5649400000000 1.0
C      1  0.4385260000000  0.5641280000000  0.4564370000000 1.0
C      1  0.5094020000000  0.5496300000000  0.5348980000000 1.0
C      1  0.4096940000000  0.4801750000000  0.4588420000000 1.0
C      1  0.4833150000000  0.5741590000000  0.4722610000000 1.0
C      1  0.5845480000000  0.5334350000000  0.5485760000000 1.0
C      1  0.5524510000000  0.5437200000000  0.4573640000000 1.0
C      1  0.4033080000000  0.4645130000000  0.5238310000000 1.0
C      1  0.5329590000000  0.4602500000000  0.4215650000000 1.0
C      1  0.4842680000000  0.5006990000000  0.5379150000000 1.0
C      1  0.6173940000000  0.5278340000000  0.4553650000000 1.0
C      1  0.5754710000000  0.4823520000000  0.5290270000000 1.0
C      1  0.5667360000000  0.5693950000000  0.4597380000000 1.0
C      1  0.5424730000000  0.5331130000000  0.4311630000000 1.0
C      1  0.3966970000000  0.5422000000000  0.5113170000000 1.0
C      1  0.5331470000000  0.5396640000000  0.5468080000000 1.0
C      1  0.4757450000000  0.4606090000000  0.5051010000000 1.0
C      1  0.5927970000000  0.5704930000000  0.4494710000000 1.0
C      1  0.6131430000000  0.5531360000000  0.4477820000000 1.0
C      1  0.5203050000000  0.4853390000000  0.4698170000000 1.0
C      1  0.4679220000000  0.5990920000000  0.5187110000000 1.0
C      1  0.4950200000000  0.5290740000000  0.4124140000000 1.0
C      1  0.5001280000000  0.5284260000000  0.4574310000000 1.0
C      1  0.4918270000000  0.5827750000000  0.4457240000000 1.0
END
