TITL C-3623283-6828-894 17965.8218230816 125000 -802.851527501832 0 0 126 (C1) n - 1
REM
REM in /home/nfs/bkarasulu/CARBON/AIRSS/Generating-Clusters/LCBOP/Higher-Symm/SD-CG/FIRE-CG
REM
REM
REM
REM
REM
REM ./C.cell (b20cbc046b6831c77cfcea5457e17084)
REM AIRSS Version 0.9.1 bugfix July 2018 build 013d7b7c2542+ Fri, 06 Jul 2018 19:26:36 +0100
REM compiler GCC version 9.2.1 20190827 (Red Hat 9.2.1-1)
REM options -cpp -mtune=generic -march=x86-64 -g -O0 -fpre-include=/usr/include/finclude/math-vector-fortran.h
REM seed 1588190051 1495457803 -1053645671 -2088720699 -1207136103 1796681448 -237824771 -383939336 14939693 -515347404 1543549728 1458685249 1363020818 1756895475 -1618304537 -887700201 737938736 -1560802428 -1717786742 -1832627650 -467670987 -608060588 -1754647283 928384705 34956802 -275020599 -394596633 -882937959 1833609761 -819239352 108392386 1766941987 -753021179
REM
CELL 1.54180   50.00000   50.00000   50.00000   90.00000   90.00000   90.00000
LATT -1
SFAC C  
C      1  0.4825570000000  0.5815290000000  0.4510310000000 1.0
C      1  0.4511710000000  0.4812260000000  0.5735990000000 1.0
C      1  0.5720220000000  0.4519920000000  0.4808150000000 1.0
C      1  0.5156640000000  0.4072060000000  0.4514940000000 1.0
C      1  0.5162270000000  0.5883160000000  0.5556990000000 1.0
C      1  0.4872240000000  0.4162630000000  0.5496170000000 1.0
C      1  0.5474280000000  0.5156890000000  0.5849570000000 1.0
C      1  0.5521260000000  0.4903900000000  0.4106820000000 1.0
C      1  0.4587960000000  0.5115170000000  0.4238960000000 1.0
C      1  0.4180110000000  0.5449000000000  0.4933790000000 1.0
C      1  0.4108220000000  0.4542390000000  0.5112390000000 1.0
C      1  0.5834880000000  0.5517010000000  0.5078700000000 1.0
C      1  0.4874080000000  0.5859380000000  0.5511880000000 1.0
C      1  0.4546830000000  0.4814950000000  0.4231670000000 1.0
C      1  0.5729490000000  0.4522250000000  0.5100110000000 1.0
C      1  0.5152850000000  0.4172170000000  0.5465410000000 1.0
C      1  0.5098210000000  0.5843270000000  0.4588730000000 1.0
C      1  0.4871120000000  0.4105360000000  0.4512480000000 1.0
C      1  0.5588150000000  0.5183850000000  0.4083130000000 1.0
C      1  0.5479190000000  0.4869280000000  0.5855020000000 1.0
C      1  0.4521610000000  0.5104100000000  0.5759260000000 1.0
C      1  0.4176640000000  0.5503060000000  0.5206880000000 1.0
C      1  0.4102150000000  0.4512850000000  0.4823220000000 1.0
C      1  0.5777530000000  0.5506540000000  0.4784810000000 1.0
C      1  0.4735250000000  0.4711240000000  0.5877140000000 1.0
C      1  0.5847710000000  0.4749260000000  0.4710220000000 1.0
C      1  0.4637030000000  0.5944300000000  0.4674990000000 1.0
C      1  0.5242310000000  0.5266630000000  0.5965310000000 1.0
C      1  0.5261150000000  0.4791320000000  0.4116300000000 1.0
C      1  0.4857420000000  0.5179650000000  0.4135870000000 1.0
C      1  0.4088240000000  0.5205370000000  0.4825950000000 1.0
C      1  0.4014940000000  0.4814360000000  0.5183450000000 1.0
C      1  0.5857960000000  0.5254310000000  0.5195350000000 1.0
C      1  0.5236420000000  0.3978300000000  0.4764670000000 1.0
C      1  0.5287030000000  0.5957980000000  0.5305770000000 1.0
C      1  0.4738070000000  0.4133190000000  0.5251510000000 1.0
C      1  0.4794150000000  0.4711880000000  0.4111310000000 1.0
C      1  0.5836740000000  0.4758520000000  0.5200060000000 1.0
C      1  0.4812030000000  0.5927790000000  0.5235590000000 1.0
C      1  0.5400320000000  0.5388680000000  0.4073570000000 1.0
C      1  0.5233750000000  0.4766430000000  0.5941050000000 1.0
C      1  0.4762500000000  0.5203290000000  0.5868410000000 1.0
C      1  0.3990980000000  0.5368920000000  0.5367220000000 1.0
C      1  0.3996930000000  0.4761080000000  0.4717310000000 1.0
C      1  0.5880250000000  0.5252690000000  0.4699110000000 1.0
C      1  0.5228390000000  0.4046160000000  0.5235920000000 1.0
C      1  0.5179370000000  0.5955380000000  0.4838340000000 1.0
C      1  0.4741470000000  0.4062820000000  0.4769330000000 1.0
C      1  0.4499010000000  0.5524100000000  0.5377860000000 1.0
C      1  0.5384040000000  0.4437460000000  0.5561560000000 1.0
C      1  0.5835930000000  0.5253470000000  0.4206550000000 1.0
C      1  0.5574740000000  0.4353740000000  0.5263390000000 1.0
C      1  0.5558470000000  0.5684550000000  0.4675570000000 1.0
C      1  0.4332710000000  0.4417830000000  0.4673880000000 1.0
C      1  0.4722770000000  0.5647090000000  0.5621850000000 1.0
C      1  0.4823730000000  0.4368390000000  0.4435620000000 1.0
C      1  0.5316030000000  0.5674370000000  0.4475580000000 1.0
C      1  0.4358270000000  0.4683170000000  0.4414620000000 1.0
C      1  0.4356090000000  0.5272460000000  0.5615850000000 1.0
C      1  0.5592560000000  0.4717030000000  0.5636060000000 1.0
C      1  0.4361200000000  0.5579450000000  0.4766310000000 1.0
C      1  0.5345010000000  0.4318300000000  0.4429010000000 1.0
C      1  0.5526930000000  0.5254810000000  0.5584180000000 1.0
C      1  0.5547640000000  0.4327880000000  0.4671100000000 1.0
C      1  0.5757280000000  0.5749000000000  0.5221650000000 1.0
C      1  0.4325690000000  0.4452050000000  0.5282870000000 1.0
C      1  0.4743280000000  0.5583230000000  0.4369760000000 1.0
C      1  0.4774680000000  0.4247940000000  0.5741060000000 1.0
C      1  0.5250000000000  0.5737700000000  0.5782030000000 1.0
C      1  0.4328850000000  0.4699700000000  0.5533940000000 1.0
C      1  0.4506660000000  0.5350710000000  0.4518350000000 1.0
C      1  0.5730090000000  0.4753040000000  0.4231850000000 1.0
C      1  0.5465550000000  0.5892920000000  0.4873490000000 1.0
C      1  0.4843860000000  0.5472130000000  0.5814320000000 1.0
C      1  0.5761280000000  0.4857580000000  0.5450710000000 1.0
C      1  0.4505850000000  0.4234970000000  0.4843220000000 1.0
C      1  0.4578630000000  0.5804740000000  0.5143910000000 1.0
C      1  0.5469180000000  0.4131410000000  0.5130990000000 1.0
C      1  0.5162090000000  0.4524030000000  0.5832200000000 1.0
C      1  0.5223510000000  0.5514950000000  0.4249490000000 1.0
C      1  0.4928020000000  0.4477110000000  0.4201910000000 1.0
C      1  0.4112660000000  0.5166360000000  0.5521500000000 1.0
C      1  0.4162660000000  0.4870280000000  0.4507630000000 1.0
C      1  0.5911880000000  0.5135460000000  0.4450700000000 1.0
C      1  0.5530920000000  0.5902840000000  0.5157220000000 1.0
C      1  0.4943410000000  0.5440830000000  0.4221110000000 1.0
C      1  0.5872380000000  0.4850380000000  0.4455780000000 1.0
C      1  0.4507860000000  0.4266580000000  0.5145620000000 1.0
C      1  0.4500050000000  0.5797680000000  0.4872070000000 1.0
C      1  0.5470720000000  0.4105240000000  0.4851680000000 1.0
C      1  0.5222050000000  0.4510660000000  0.4225570000000 1.0
C      1  0.5121390000000  0.5509730000000  0.5892010000000 1.0
C      1  0.4883440000000  0.4478200000000  0.5853880000000 1.0
C      1  0.4218500000000  0.5144370000000  0.4571460000000 1.0
C      1  0.4117640000000  0.4892170000000  0.5438800000000 1.0
C      1  0.5752240000000  0.5149940000000  0.5442590000000 1.0
C      1  0.4868310000000  0.4682610000000  0.5260260000000 1.0
C      1  0.5251300000000  0.4804090000000  0.4691370000000 1.0
C      1  0.4698090000000  0.5234710000000  0.4701890000000 1.0
C      1  0.5177100000000  0.5412980000000  0.5246530000000 1.0
C      1  0.5097580000000  0.4582370000000  0.4799890000000 1.0
C      1  0.4915380000000  0.5369530000000  0.4836360000000 1.0
C      1  0.4804010000000  0.4989180000000  0.4614780000000 1.0
C      1  0.4987690000000  0.4826980000000  0.5475760000000 1.0
C      1  0.5278460000000  0.5232890000000  0.5438940000000 1.0
C      1  0.5396790000000  0.4947810000000  0.4907310000000 1.0
C      1  0.5385780000000  0.5425950000000  0.5057590000000 1.0
C      1  0.4639000000000  0.4812710000000  0.5165740000000 1.0
C      1  0.4858130000000  0.4538140000000  0.4658590000000 1.0
C      1  0.5213630000000  0.4966640000000  0.5387030000000 1.0
C      1  0.4599700000000  0.5071810000000  0.5249230000000 1.0
C      1  0.5152070000000  0.5263990000000  0.4697620000000 1.0
C      1  0.5092270000000  0.4623710000000  0.5081970000000 1.0
C      1  0.4919550000000  0.5402890000000  0.5120310000000 1.0
C      1  0.4678920000000  0.5334750000000  0.5248700000000 1.0
C      1  0.4688910000000  0.4752860000000  0.4693690000000 1.0
C      1  0.5086590000000  0.5008970000000  0.4575630000000 1.0
C      1  0.5296100000000  0.4832320000000  0.5148150000000 1.0
C      1  0.5380320000000  0.5230630000000  0.4861460000000 1.0
C      1  0.4533370000000  0.4755200000000  0.4919770000000 1.0
C      1  0.5062440000000  0.5989100000000  0.5100700000000 1.0
C      1  0.4999020000000  0.4928950000000  0.4072490000000 1.0
C      1  0.4966340000000  0.5003580000000  0.5946530000000 1.0
C      1  0.4951420000000  0.4023830000000  0.5006680000000 1.0
C      1  0.5884700000000  0.5014980000000  0.4960740000000 1.0
C      1  0.3970250000000  0.4964100000000  0.4938200000000 1.0
END
