TITL C-3623288-6813-563 -7.36093306618493e-09 125000 -285.139452372803 0 0 49 (C1) n - 1
REM
REM in /home/nfs/bkarasulu/CARBON/AIRSS/Generating-Clusters/LCBOP/Higher-Symm/SD-CG/FIRE-CG
REM
REM
REM
REM
REM
REM ./C.cell (b20cbc046b6831c77cfcea5457e17084)
REM AIRSS Version 0.9.1 bugfix July 2018 build 013d7b7c2542+ Fri, 06 Jul 2018 19:26:36 +0100
REM compiler GCC version 9.2.1 20190827 (Red Hat 9.2.1-1)
REM options -cpp -mtune=generic -march=x86-64 -g -O0 -fpre-include=/usr/include/finclude/math-vector-fortran.h
REM seed -1899579470 2139348119 -336009428 -1549845006 -1926820273 -558082685 -769428381 242228779 1846793860 -1427824106 25185479 47386592 1153207877 -1469406509 757738343 324256142 705620779 -702887745 928511925 800080878 -1556335201 -654491031 1760655939 -324495374 -1676370730 933412437 -1052261358 -217315212 -537328515 -751900694 -1691315603 532465637 1754118825
REM
CELL 1.54180   50.00000   50.00000   50.00000   90.00000   90.00000   90.00000
LATT -1
SFAC C  
C      1  0.5244160000000  0.5776170000000  0.4891590000000 1.0
C      1  0.5677690000000  0.4925350000000  0.5162310000000 1.0
C      1  0.4907530000000  0.5321160000000  0.5698750000000 1.0
C      1  0.5247560000000  0.4207270000000  0.4803810000000 1.0
C      1  0.4797270000000  0.5771740000000  0.5040630000000 1.0
C      1  0.4836430000000  0.4259330000000  0.5050090000000 1.0
C      1  0.5751210000000  0.5058400000000  0.4711440000000 1.0
C      1  0.4282640000000  0.5047480000000  0.4712730000000 1.0
C      1  0.4307980000000  0.4943970000000  0.5173640000000 1.0
C      1  0.5110110000000  0.4743040000000  0.4287540000000 1.0
C      1  0.4990820000000  0.5179460000000  0.4157120000000 1.0
C      1  0.4984540000000  0.4887360000000  0.5844720000000 1.0
C      1  0.5238070000000  0.4885300000000  0.5776450000000 1.0
C      1  0.5852400000000  0.5048480000000  0.4967040000000 1.0
C      1  0.4901300000000  0.5754590000000  0.5312470000000 1.0
C      1  0.5204620000000  0.5016630000000  0.4260780000000 1.0
C      1  0.4798510000000  0.5057050000000  0.5711340000000 1.0
C      1  0.4749250000000  0.5145000000000  0.4289770000000 1.0
C      1  0.5588700000000  0.4675640000000  0.5060150000000 1.0
C      1  0.4368420000000  0.4675300000000  0.5098670000000 1.0
C      1  0.4167580000000  0.5075480000000  0.4959930000000 1.0
C      1  0.5037470000000  0.4092120000000  0.4934690000000 1.0
C      1  0.4887430000000  0.4349120000000  0.5314620000000 1.0
C      1  0.4994860000000  0.5898450000000  0.4873110000000 1.0
C      1  0.5259950000000  0.4487140000000  0.4761980000000 1.0
C      1  0.4530040000000  0.5093380000000  0.5275800000000 1.0
C      1  0.5045520000000  0.5174100000000  0.4689820000000 1.0
C      1  0.5238280000000  0.5513350000000  0.5043040000000 1.0
C      1  0.4750310000000  0.4468660000000  0.4870870000000 1.0
C      1  0.4754240000000  0.5486930000000  0.4970970000000 1.0
C      1  0.4516540000000  0.4884770000000  0.4682290000000 1.0
C      1  0.5500010000000  0.4931060000000  0.4653800000000 1.0
C      1  0.5476480000000  0.5103530000000  0.5258020000000 1.0
C      1  0.5002610000000  0.4870260000000  0.5303070000000 1.0
C      1  0.5114850000000  0.5338740000000  0.5502900000000 1.0
C      1  0.4924190000000  0.4727950000000  0.4503880000000 1.0
C      1  0.5279230000000  0.5082260000000  0.4541750000000 1.0
C      1  0.4585110000000  0.5331940000000  0.5133470000000 1.0
C      1  0.5000550000000  0.4578140000000  0.5402670000000 1.0
C      1  0.5225840000000  0.5066640000000  0.5413820000000 1.0
C      1  0.4764890000000  0.4986980000000  0.4542600000000 1.0
C      1  0.4738280000000  0.4979820000000  0.5434060000000 1.0
C      1  0.4522510000000  0.4641710000000  0.4859390000000 1.0
C      1  0.5469440000000  0.4673400000000  0.4798510000000 1.0
C      1  0.5472470000000  0.5348200000000  0.5107900000000 1.0
C      1  0.5007400000000  0.5363690000000  0.4885480000000 1.0
C      1  0.5114890000000  0.5561540000000  0.5326700000000 1.0
C      1  0.4992770000000  0.4621450000000  0.4772620000000 1.0
C      1  0.5013580000000  0.4832550000000  0.5004050000000 1.0
END
