TITL C-3623285-6872-1821 50331.5740935889 125000 -1033.07936845223 0 0 170 (C1) n - 1
REM
REM in /home/nfs/bkarasulu/CARBON/AIRSS/Generating-Clusters/LCBOP/Higher-Symm/SD-CG/FIRE-CG
REM
REM
REM
REM
REM
REM ./C.cell (b20cbc046b6831c77cfcea5457e17084)
REM AIRSS Version 0.9.1 bugfix July 2018 build 013d7b7c2542+ Fri, 06 Jul 2018 19:26:36 +0100
REM compiler GCC version 9.2.1 20190827 (Red Hat 9.2.1-1)
REM options -cpp -mtune=generic -march=x86-64 -g -O0 -fpre-include=/usr/include/finclude/math-vector-fortran.h
REM seed 27090028 -1947829883 180601817 1962510948 2110957773 -1544115256 -435449987 1535725497 -1031604462 14899255 -1938663988 -2109045559 -2070738205 1132209069 -1123416875 -2106574311 -549430917 356551201 -628575842 -2010793026 -1134322071 1741279737 -1140572360 -1638798432 -1454444552 -5356973 681447978 524057609 -264386150 -1781173985 2121855192 1168777985 1825288350
REM
CELL 1.54180   50.00000   50.00000   50.00000   90.00000   90.00000   90.00000
LATT -1
SFAC C  
C      1  0.4360650000000  0.4408740000000  0.5698990000000 1.0
C      1  0.5228150000000  0.3584240000000  0.4808720000000 1.0
C      1  0.5489650000000  0.5613530000000  0.4301710000000 1.0
C      1  0.4876270000000  0.3912610000000  0.5102460000000 1.0
C      1  0.4803880000000  0.5936300000000  0.5548550000000 1.0
C      1  0.5902040000000  0.4395940000000  0.4884410000000 1.0
C      1  0.5158630000000  0.5023910000000  0.6003310000000 1.0
C      1  0.5770550000000  0.4152000000000  0.4494070000000 1.0
C      1  0.3993350000000  0.4307020000000  0.4993990000000 1.0
C      1  0.5035160000000  0.4781810000000  0.5625550000000 1.0
C      1  0.4904070000000  0.5247010000000  0.5045760000000 1.0
C      1  0.4907420000000  0.3926500000000  0.5695020000000 1.0
C      1  0.4876270000000  0.5084880000000  0.3747380000000 1.0
C      1  0.4274100000000  0.4643620000000  0.5054480000000 1.0
C      1  0.4447020000000  0.5839140000000  0.4383690000000 1.0
C      1  0.5565180000000  0.5058120000000  0.5527050000000 1.0
C      1  0.4466670000000  0.5032140000000  0.4872320000000 1.0
C      1  0.5418140000000  0.5251880000000  0.5393970000000 1.0
C      1  0.4975440000000  0.3922970000000  0.4583490000000 1.0
C      1  0.5896320000000  0.5336130000000  0.5042900000000 1.0
C      1  0.4985160000000  0.4821860000000  0.3790950000000 1.0
C      1  0.5341310000000  0.5866080000000  0.4294900000000 1.0
C      1  0.5699730000000  0.4402050000000  0.5640870000000 1.0
C      1  0.4392470000000  0.3923670000000  0.6245640000000 1.0
C      1  0.4322140000000  0.5629370000000  0.5131670000000 1.0
C      1  0.5323020000000  0.5518600000000  0.5428760000000 1.0
C      1  0.4970150000000  0.4832050000000  0.6126950000000 1.0
C      1  0.4811810000000  0.4334460000000  0.5417230000000 1.0
C      1  0.4902970000000  0.5267290000000  0.5583670000000 1.0
C      1  0.4912220000000  0.6059130000000  0.4402890000000 1.0
C      1  0.4235960000000  0.4993140000000  0.4697590000000 1.0
C      1  0.5300760000000  0.4625610000000  0.5139040000000 1.0
C      1  0.5005770000000  0.6091720000000  0.5129980000000 1.0
C      1  0.5103080000000  0.5815860000000  0.5939450000000 1.0
C      1  0.5594040000000  0.5305470000000  0.5982970000000 1.0
C      1  0.4967080000000  0.5696410000000  0.4835590000000 1.0
C      1  0.5660250000000  0.5177060000000  0.5010050000000 1.0
C      1  0.5412560000000  0.3942810000000  0.3993020000000 1.0
C      1  0.5689080000000  0.4299840000000  0.4717110000000 1.0
C      1  0.4753050000000  0.5118810000000  0.4796080000000 1.0
C      1  0.4778070000000  0.5548460000000  0.5037690000000 1.0
C      1  0.5225400000000  0.5570840000000  0.4902110000000 1.0
C      1  0.4150450000000  0.4329320000000  0.5506800000000 1.0
C      1  0.3855420000000  0.5631310000000  0.4583840000000 1.0
C      1  0.4606530000000  0.4522990000000  0.4049520000000 1.0
C      1  0.4124490000000  0.4519160000000  0.4838220000000 1.0
C      1  0.5881910000000  0.4278540000000  0.5155920000000 1.0
C      1  0.4712730000000  0.4110410000000  0.4959590000000 1.0
C      1  0.4841710000000  0.5160150000000  0.4235410000000 1.0
C      1  0.4855610000000  0.5108350000000  0.5310490000000 1.0
C      1  0.5947990000000  0.5185840000000  0.4544770000000 1.0
C      1  0.4441530000000  0.4039430000000  0.6017370000000 1.0
C      1  0.3772650000000  0.5073890000000  0.5039020000000 1.0
C      1  0.6139070000000  0.5759310000000  0.4913220000000 1.0
C      1  0.5799830000000  0.5104870000000  0.4313890000000 1.0
C      1  0.4824710000000  0.4588530000000  0.3849650000000 1.0
C      1  0.5096670000000  0.4262120000000  0.5338860000000 1.0
C      1  0.4913370000000  0.4884640000000  0.4680840000000 1.0
C      1  0.5128800000000  0.4052100000000  0.5149910000000 1.0
C      1  0.5372680000000  0.6007200000000  0.4560070000000 1.0
C      1  0.5049570000000  0.5047420000000  0.5737820000000 1.0
C      1  0.5271070000000  0.5698470000000  0.6112380000000 1.0
C      1  0.4520850000000  0.6262990000000  0.4611850000000 1.0
C      1  0.4312050000000  0.5586090000000  0.4363030000000 1.0
C      1  0.5055830000000  0.5857850000000  0.4245970000000 1.0
C      1  0.4650640000000  0.4860680000000  0.5288010000000 1.0
C      1  0.4359620000000  0.4635320000000  0.4133030000000 1.0
C      1  0.5410030000000  0.5211320000000  0.5117070000000 1.0
C      1  0.4643900000000  0.4246880000000  0.4463700000000 1.0
C      1  0.5043800000000  0.5307520000000  0.3843280000000 1.0
C      1  0.4186690000000  0.4661230000000  0.4339380000000 1.0
C      1  0.4474050000000  0.5570150000000  0.5656600000000 1.0
C      1  0.5547890000000  0.5129500000000  0.4172010000000 1.0
C      1  0.4190570000000  0.5165580000000  0.5245160000000 1.0
C      1  0.3684000000000  0.5478190000000  0.4736500000000 1.0
C      1  0.6136070000000  0.5197020000000  0.5415370000000 1.0
C      1  0.6084850000000  0.4685780000000  0.5166950000000 1.0
C      1  0.4524270000000  0.5549890000000  0.4952560000000 1.0
C      1  0.5573240000000  0.4787620000000  0.5950910000000 1.0
C      1  0.5398300000000  0.4182240000000  0.4095600000000 1.0
C      1  0.5294170000000  0.4057160000000  0.4909880000000 1.0
C      1  0.4073950000000  0.4065680000000  0.5103390000000 1.0
C      1  0.6080680000000  0.4643130000000  0.4881910000000 1.0
C      1  0.4861700000000  0.5565250000000  0.4571450000000 1.0
C      1  0.4756590000000  0.4685750000000  0.6024660000000 1.0
C      1  0.4668500000000  0.6357810000000  0.5319930000000 1.0
C      1  0.4928090000000  0.4320380000000  0.3792930000000 1.0
C      1  0.5267350000000  0.4614810000000  0.5611300000000 1.0
C      1  0.5213240000000  0.3853550000000  0.4721620000000 1.0
C      1  0.4549210000000  0.5815330000000  0.5527310000000 1.0
C      1  0.4852810000000  0.6146500000000  0.5359830000000 1.0
C      1  0.4151280000000  0.4717970000000  0.4616290000000 1.0
C      1  0.4852680000000  0.3631330000000  0.5127030000000 1.0
C      1  0.4545130000000  0.4601470000000  0.5115800000000 1.0
C      1  0.4624330000000  0.6058150000000  0.4446180000000 1.0
C      1  0.4748130000000  0.4076010000000  0.4664200000000 1.0
C      1  0.5101890000000  0.6102560000000  0.4630250000000 1.0
C      1  0.5406460000000  0.4787970000000  0.4546230000000 1.0
C      1  0.3978390000000  0.4486770000000  0.5339240000000 1.0
C      1  0.4101890000000  0.5489760000000  0.4527440000000 1.0
C      1  0.4651510000000  0.3511160000000  0.5265980000000 1.0
C      1  0.6041720000000  0.4971060000000  0.5565610000000 1.0
C      1  0.5456390000000  0.5506140000000  0.6138780000000 1.0
C      1  0.5885890000000  0.5467140000000  0.4611070000000 1.0
C      1  0.4996640000000  0.5776620000000  0.5682570000000 1.0
C      1  0.5259260000000  0.4541190000000  0.4877720000000 1.0
C      1  0.4113300000000  0.4910990000000  0.5805400000000 1.0
C      1  0.4674280000000  0.5375190000000  0.4648130000000 1.0
C      1  0.5067760000000  0.5354500000000  0.4150950000000 1.0
C      1  0.5973060000000  0.5672640000000  0.5400070000000 1.0
C      1  0.5487890000000  0.5720300000000  0.5279310000000 1.0
C      1  0.4671370000000  0.4254810000000  0.4178690000000 1.0
C      1  0.4638150000000  0.5342290000000  0.5721080000000 1.0
C      1  0.5001370000000  0.5989070000000  0.4870510000000 1.0
C      1  0.3971410000000  0.4990350000000  0.5220170000000 1.0
C      1  0.4593770000000  0.4500380000000  0.4564220000000 1.0
C      1  0.5512370000000  0.4585030000000  0.5760030000000 1.0
C      1  0.5268610000000  0.4477590000000  0.5368160000000 1.0
C      1  0.3805000000000  0.5226820000000  0.4806280000000 1.0
C      1  0.5551040000000  0.5834520000000  0.4726520000000 1.0
C      1  0.4521010000000  0.5157210000000  0.5905990000000 1.0
C      1  0.4208200000000  0.5498630000000  0.5577130000000 1.0
C      1  0.5808320000000  0.4292430000000  0.5417220000000 1.0
C      1  0.4964020000000  0.5597520000000  0.4303700000000 1.0
C      1  0.5398000000000  0.4419590000000  0.4214040000000 1.0
C      1  0.6117310000000  0.5169120000000  0.5110100000000 1.0
C      1  0.4409900000000  0.5394310000000  0.4182490000000 1.0
C      1  0.5191280000000  0.5305330000000  0.4983600000000 1.0
C      1  0.5168730000000  0.4750150000000  0.4699120000000 1.0
C      1  0.4160480000000  0.4071180000000  0.5366990000000 1.0
C      1  0.4183380000000  0.5437470000000  0.5299820000000 1.0
C      1  0.5070240000000  0.5529320000000  0.5555570000000 1.0
C      1  0.5664280000000  0.5628330000000  0.4532960000000 1.0
C      1  0.4064150000000  0.5220180000000  0.4657260000000 1.0
C      1  0.4665730000000  0.4344190000000  0.5141440000000 1.0
C      1  0.5785000000000  0.4891780000000  0.5473780000000 1.0
C      1  0.5454130000000  0.5042140000000  0.6006140000000 1.0
C      1  0.4585160000000  0.5194200000000  0.4102000000000 1.0
C      1  0.4534320000000  0.6439420000000  0.5101410000000 1.0
C      1  0.4843280000000  0.4134570000000  0.3980620000000 1.0
C      1  0.4063120000000  0.4727240000000  0.5241170000000 1.0
C      1  0.5784160000000  0.5440430000000  0.5785340000000 1.0
C      1  0.5260940000000  0.4831090000000  0.3860060000000 1.0
C      1  0.5700570000000  0.4899150000000  0.4975530000000 1.0
C      1  0.4487830000000  0.6394700000000  0.4841780000000 1.0
C      1  0.5426610000000  0.4885770000000  0.4080820000000 1.0
C      1  0.5630580000000  0.4814570000000  0.4715850000000 1.0
C      1  0.4553490000000  0.4669280000000  0.5768060000000 1.0
C      1  0.5418110000000  0.4688470000000  0.4283460000000 1.0
C      1  0.5448720000000  0.5733360000000  0.4984890000000 1.0
C      1  0.5053230000000  0.3483830000000  0.4990220000000 1.0
C      1  0.4386700000000  0.4921970000000  0.5813040000000 1.0
C      1  0.6009450000000  0.5425680000000  0.5558360000000 1.0
C      1  0.4511590000000  0.4184240000000  0.5791110000000 1.0
C      1  0.6111470000000  0.4984490000000  0.4792020000000 1.0
C      1  0.4395200000000  0.5860030000000  0.5287980000000 1.0
C      1  0.4725180000000  0.4727300000000  0.4544850000000 1.0
C      1  0.5975150000000  0.5540700000000  0.4868270000000 1.0
C      1  0.4742030000000  0.4137030000000  0.5634590000000 1.0
C      1  0.6286470000000  0.5973930000000  0.4925400000000 1.0
C      1  0.5412150000000  0.4300350000000  0.4813440000000 1.0
C      1  0.4428600000000  0.5043490000000  0.5161590000000 1.0
C      1  0.5378500000000  0.5362960000000  0.4204020000000 1.0
C      1  0.5676280000000  0.5717920000000  0.5724810000000 1.0
C      1  0.4519550000000  0.5218910000000  0.6173410000000 1.0
C      1  0.5816290000000  0.4782490000000  0.5215740000000 1.0
C      1  0.4764100000000  0.4678000000000  0.5530440000000 1.0
C      1  0.5713470000000  0.5790520000000  0.5442970000000 1.0
C      1  0.4606080000000  0.5117900000000  0.3829610000000 1.0
C      1  0.5921720000000  0.4023010000000  0.4325040000000 1.0
END
