TITL C-3623286-7563-704 1.87152410130292e-07 125000 -383.491343923016 0 0 62 (C1) n - 1
REM
REM in /home/nfs/bkarasulu/CARBON/AIRSS/Generating-Clusters/LCBOP/Higher-Symm/SD-CG/FIRE-CG
REM
REM
REM
REM
REM
REM ./C.cell (b20cbc046b6831c77cfcea5457e17084)
REM AIRSS Version 0.9.1 bugfix July 2018 build 013d7b7c2542+ Fri, 06 Jul 2018 19:26:36 +0100
REM compiler GCC version 9.2.1 20190827 (Red Hat 9.2.1-1)
REM options -cpp -mtune=generic -march=x86-64 -g -O0 -fpre-include=/usr/include/finclude/math-vector-fortran.h
REM seed -2133365332 21422750 -954623661 -1071115212 243836322 -827096689 1248987525 -2108340565 -1942446240 -652114224 -561508316 -1019942619 1715858593 1823588979 567098257 1136479139 -742647056 -1013073017 -646342473 726733332 1943570517 -1788553534 246244641 -303712957 741160967 -1331014561 -1327465774 -784423738 837172831 1581242817 -2060174591 1910229928 -1391215915
REM
CELL 1.54180   50.00000   50.00000   50.00000   90.00000   90.00000   90.00000
LATT -1
SFAC C  
C      1  0.4014890000000  0.5178770000000  0.5167120000000 1.0
C      1  0.3998250000000  0.5176150000000  0.4876800000000 1.0
C      1  0.5553870000000  0.4406020000000  0.4698780000000 1.0
C      1  0.5564070000000  0.4307330000000  0.5265790000000 1.0
C      1  0.5245230000000  0.4660350000000  0.5337770000000 1.0
C      1  0.5172710000000  0.4683690000000  0.4680570000000 1.0
C      1  0.5276100000000  0.4419750000000  0.4709660000000 1.0
C      1  0.5290260000000  0.4381510000000  0.5283820000000 1.0
C      1  0.4546730000000  0.5647630000000  0.4501410000000 1.0
C      1  0.4631500000000  0.5635170000000  0.5438530000000 1.0
C      1  0.4865960000000  0.5181020000000  0.5089230000000 1.0
C      1  0.4930580000000  0.5315520000000  0.4849910000000 1.0
C      1  0.5747840000000  0.4997860000000  0.4907360000000 1.0
C      1  0.5603110000000  0.4935460000000  0.5140920000000 1.0
C      1  0.4522760000000  0.4655570000000  0.4724600000000 1.0
C      1  0.4523240000000  0.4631770000000  0.5283800000000 1.0
C      1  0.4670270000000  0.4800000000000  0.4529750000000 1.0
C      1  0.4681820000000  0.4751700000000  0.5485490000000 1.0
C      1  0.5786400000000  0.4781900000000  0.4729990000000 1.0
C      1  0.5742020000000  0.4750570000000  0.5320880000000 1.0
C      1  0.5533660000000  0.5647140000000  0.5087350000000 1.0
C      1  0.5717930000000  0.5617450000000  0.4877140000000 1.0
C      1  0.5752060000000  0.4519300000000  0.4868760000000 1.0
C      1  0.5750510000000  0.4497970000000  0.5162330000000 1.0
C      1  0.4827320000000  0.4253080000000  0.4733980000000 1.0
C      1  0.4828490000000  0.4242160000000  0.5246890000000 1.0
C      1  0.5440610000000  0.5212730000000  0.5702000000000 1.0
C      1  0.5503240000000  0.5181770000000  0.4318910000000 1.0
C      1  0.5631270000000  0.5394380000000  0.4418330000000 1.0
C      1  0.5519300000000  0.5433540000000  0.5573060000000 1.0
C      1  0.4430540000000  0.5731180000000  0.5289980000000 1.0
C      1  0.4367980000000  0.5740940000000  0.4677370000000 1.0
C      1  0.4710760000000  0.5443580000000  0.4445790000000 1.0
C      1  0.4781990000000  0.5420450000000  0.5492630000000 1.0
C      1  0.4864360000000  0.5179500000000  0.5373840000000 1.0
C      1  0.4855460000000  0.5243690000000  0.4581560000000 1.0
C      1  0.5092580000000  0.4248280000000  0.4844350000000 1.0
C      1  0.5091100000000  0.4242880000000  0.5136570000000 1.0
C      1  0.4626010000000  0.4409010000000  0.5139600000000 1.0
C      1  0.4627750000000  0.4420110000000  0.4848620000000 1.0
C      1  0.4308030000000  0.4778580000000  0.4865360000000 1.0
C      1  0.4312470000000  0.4772220000000  0.5156040000000 1.0
C      1  0.5151290000000  0.4853500000000  0.4451980000000 1.0
C      1  0.5165700000000  0.4822320000000  0.5560560000000 1.0
C      1  0.4130090000000  0.4947760000000  0.5281160000000 1.0
C      1  0.4112040000000  0.4948720000000  0.4754080000000 1.0
C      1  0.5655910000000  0.4792540000000  0.5591730000000 1.0
C      1  0.5625670000000  0.4752100000000  0.4499840000000 1.0
C      1  0.4050600000000  0.5438020000000  0.5274090000000 1.0
C      1  0.4009490000000  0.5434010000000  0.4762000000000 1.0
C      1  0.5729520000000  0.5535500000000  0.4622600000000 1.0
C      1  0.5577900000000  0.5575620000000  0.5354700000000 1.0
C      1  0.5423850000000  0.4919120000000  0.4379200000000 1.0
C      1  0.5412110000000  0.4933880000000  0.5672740000000 1.0
C      1  0.4207240000000  0.5641080000000  0.5146610000000 1.0
C      1  0.4180010000000  0.5642040000000  0.4859730000000 1.0
C      1  0.4888360000000  0.4978830000000  0.4475590000000 1.0
C      1  0.4900570000000  0.4931670000000  0.5516270000000 1.0
C      1  0.5331180000000  0.4844550000000  0.5132440000000 1.0
C      1  0.5170480000000  0.4837290000000  0.4911660000000 1.0
C      1  0.5268210000000  0.5686320000000  0.5004630000000 1.0
C      1  0.5068730000000  0.5557460000000  0.4885740000000 1.0
END
