TITL C-3623282-6910-1980 -6.78239759012421e-05 125000 -1011.66846962936 0 0 167 (C1) n - 1
REM
REM in /home/nfs/bkarasulu/CARBON/AIRSS/Generating-Clusters/LCBOP/Higher-Symm/SD-CG/FIRE-CG
REM
REM
REM
REM
REM
REM ./C.cell (b20cbc046b6831c77cfcea5457e17084)
REM AIRSS Version 0.9.1 bugfix July 2018 build 013d7b7c2542+ Fri, 06 Jul 2018 19:26:36 +0100
REM compiler GCC version 9.2.1 20190827 (Red Hat 9.2.1-1)
REM options -cpp -mtune=generic -march=x86-64 -g -O0 -fpre-include=/usr/include/finclude/math-vector-fortran.h
REM seed -1288007194 1210935225 -290218770 -252901626 566665589 1728349335 -570260860 -531972459 -1295730593 1526502059 200445027 540978160 -1310658904 -870637024 33319979 1367868300 -327995117 -1167781197 -1505776195 -454619939 -1384132437 -178506545 -53011597 -2024965347 1690120029 932025513 1149363600 797394133 -390536505 -1842998264 -653853622 1469412443 -1259082720
REM
CELL 1.54180   50.00000   50.00000   50.00000   90.00000   90.00000   90.00000
LATT -1
SFAC C  
C      1  0.4362290000000  0.4985330000000  0.5567990000000 1.0
C      1  0.4415970000000  0.5002150000000  0.4360940000000 1.0
C      1  0.5582270000000  0.4988120000000  0.4409040000000 1.0
C      1  0.5534450000000  0.5044890000000  0.5623920000000 1.0
C      1  0.5899690000000  0.4737440000000  0.5217830000000 1.0
C      1  0.5900510000000  0.5312680000000  0.4838600000000 1.0
C      1  0.4080610000000  0.4672350000000  0.4775350000000 1.0
C      1  0.4041900000000  0.5256730000000  0.5106120000000 1.0
C      1  0.4100100000000  0.4420470000000  0.4910520000000 1.0
C      1  0.4067560000000  0.5518570000000  0.4993310000000 1.0
C      1  0.5891620000000  0.4480730000000  0.5091440000000 1.0
C      1  0.5870850000000  0.5569540000000  0.4960100000000 1.0
C      1  0.5280190000000  0.5463200000000  0.5326500000000 1.0
C      1  0.5328830000000  0.4562200000000  0.4690640000000 1.0
C      1  0.4664030000000  0.5417190000000  0.4681650000000 1.0
C      1  0.4655680000000  0.4572270000000  0.5297750000000 1.0
C      1  0.4336490000000  0.4773550000000  0.4175940000000 1.0
C      1  0.4235790000000  0.5219230000000  0.5725550000000 1.0
C      1  0.5628780000000  0.4827750000000  0.5812530000000 1.0
C      1  0.5677460000000  0.5211770000000  0.4227420000000 1.0
C      1  0.5144370000000  0.5589940000000  0.4076860000000 1.0
C      1  0.5103490000000  0.4429680000000  0.5927170000000 1.0
C      1  0.4970710000000  0.5581040000000  0.5900130000000 1.0
C      1  0.4885110000000  0.4376520000000  0.4083820000000 1.0
C      1  0.3649650000000  0.4788510000000  0.5379180000000 1.0
C      1  0.3666990000000  0.5077860000000  0.4448820000000 1.0
C      1  0.6325910000000  0.4901380000000  0.4534520000000 1.0
C      1  0.6280950000000  0.5167750000000  0.5554030000000 1.0
C      1  0.4711530000000  0.5119370000000  0.5258190000000 1.0
C      1  0.4739070000000  0.4866640000000  0.4695110000000 1.0
C      1  0.5237240000000  0.5102920000000  0.4755870000000 1.0
C      1  0.5221510000000  0.4917620000000  0.5251880000000 1.0
C      1  0.4598630000000  0.3877380000000  0.4858280000000 1.0
C      1  0.4506290000000  0.6093720000000  0.5142530000000 1.0
C      1  0.5418920000000  0.3919630000000  0.5174580000000 1.0
C      1  0.5402780000000  0.6119630000000  0.4817960000000 1.0
C      1  0.4985350000000  0.5745330000000  0.4270390000000 1.0
C      1  0.4969630000000  0.4264730000000  0.5723090000000 1.0
C      1  0.4969250000000  0.5787430000000  0.5691190000000 1.0
C      1  0.5030990000000  0.4215520000000  0.4286720000000 1.0
C      1  0.4520520000000  0.4067320000000  0.5498230000000 1.0
C      1  0.4519370000000  0.5919890000000  0.4478780000000 1.0
C      1  0.5492010000000  0.4065800000000  0.4524150000000 1.0
C      1  0.5420310000000  0.6000870000000  0.5462910000000 1.0
C      1  0.5306890000000  0.4889520000000  0.4315670000000 1.0
C      1  0.5248130000000  0.5127770000000  0.5696060000000 1.0
C      1  0.4645860000000  0.4906590000000  0.5672730000000 1.0
C      1  0.4702980000000  0.5097190000000  0.4290690000000 1.0
C      1  0.5137390000000  0.5309410000000  0.3990520000000 1.0
C      1  0.5072000000000  0.4709510000000  0.6012640000000 1.0
C      1  0.4787390000000  0.5355450000000  0.5953800000000 1.0
C      1  0.4897400000000  0.4657960000000  0.3992850000000 1.0
C      1  0.4249870000000  0.5062090000000  0.5062780000000 1.0
C      1  0.4263350000000  0.4885320000000  0.4845790000000 1.0
C      1  0.5714740000000  0.5101300000000  0.4905500000000 1.0
C      1  0.5709480000000  0.4940620000000  0.5137710000000 1.0
C      1  0.6028890000000  0.5062590000000  0.5556260000000 1.0
C      1  0.6070290000000  0.4994710000000  0.4511260000000 1.0
C      1  0.3924480000000  0.4987360000000  0.4436940000000 1.0
C      1  0.3883700000000  0.4921290000000  0.5425800000000 1.0
C      1  0.4342080000000  0.4275560000000  0.4867110000000 1.0
C      1  0.4289560000000  0.5677440000000  0.5079280000000 1.0
C      1  0.5656670000000  0.4327570000000  0.5142710000000 1.0
C      1  0.5634250000000  0.5712190000000  0.4889600000000 1.0
C      1  0.4028410000000  0.5348210000000  0.5577160000000 1.0
C      1  0.4153230000000  0.4586770000000  0.4296800000000 1.0
C      1  0.5855050000000  0.5397700000000  0.4356730000000 1.0
C      1  0.5823030000000  0.4649990000000  0.5696280000000 1.0
C      1  0.4803230000000  0.4726530000000  0.5486660000000 1.0
C      1  0.4831050000000  0.5277490000000  0.4496900000000 1.0
C      1  0.5171010000000  0.4696440000000  0.4496620000000 1.0
C      1  0.5117680000000  0.5309260000000  0.5500370000000 1.0
C      1  0.5072740000000  0.4965580000000  0.5866220000000 1.0
C      1  0.5141180000000  0.5054130000000  0.4137530000000 1.0
C      1  0.4879630000000  0.4921400000000  0.4129090000000 1.0
C      1  0.4805270000000  0.5080520000000  0.5847580000000 1.0
C      1  0.4940190000000  0.4680170000000  0.3717780000000 1.0
C      1  0.4630410000000  0.5391460000000  0.6179420000000 1.0
C      1  0.5026230000000  0.4737860000000  0.6285870000000 1.0
C      1  0.5117630000000  0.5279370000000  0.3714420000000 1.0
C      1  0.5578940000000  0.5978130000000  0.4989310000000 1.0
C      1  0.5606150000000  0.4068770000000  0.5020530000000 1.0
C      1  0.4349080000000  0.5937930000000  0.4962260000000 1.0
C      1  0.4405830000000  0.4027710000000  0.5004360000000 1.0
C      1  0.5595080000000  0.5554570000000  0.6407820000000 1.0
C      1  0.4187490000000  0.4321390000000  0.4214220000000 1.0
C      1  0.5827720000000  0.5661440000000  0.4265770000000 1.0
C      1  0.5801210000000  0.4385500000000  0.5786660000000 1.0
C      1  0.5637710000000  0.5772300000000  0.4110160000000 1.0
C      1  0.5605500000000  0.4268890000000  0.5930710000000 1.0
C      1  0.5388170000000  0.5585900000000  0.6252380000000 1.0
C      1  0.4387710000000  0.4202640000000  0.4079360000000 1.0
C      1  0.4674130000000  0.5554200000000  0.5398290000000 1.0
C      1  0.4742030000000  0.4419930000000  0.4592030000000 1.0
C      1  0.5249030000000  0.5547960000000  0.4609230000000 1.0
C      1  0.5247780000000  0.4477380000000  0.5406930000000 1.0
C      1  0.4149470000000  0.5155750000000  0.4360420000000 1.0
C      1  0.4116140000000  0.4798100000000  0.5551440000000 1.0
C      1  0.5791340000000  0.5218060000000  0.5621090000000 1.0
C      1  0.5846610000000  0.4828760000000  0.4426580000000 1.0
C      1  0.4332100000000  0.4039200000000  0.5284260000000 1.0
C      1  0.4310000000000  0.5935810000000  0.4674360000000 1.0
C      1  0.5680430000000  0.4065860000000  0.4740400000000 1.0
C      1  0.5631620000000  0.5997720000000  0.5271880000000 1.0
C      1  0.6182420000000  0.6131710000000  0.5739350000000 1.0
C      1  0.6276260000000  0.3943960000000  0.4327930000000 1.0
C      1  0.3760060000000  0.6068530000000  0.4204500000000 1.0
C      1  0.3742700000000  0.3908980000000  0.5704070000000 1.0
C      1  0.5257200000000  0.4468290000000  0.4943330000000 1.0
C      1  0.5224030000000  0.5566940000000  0.5073740000000 1.0
C      1  0.4731840000000  0.4460090000000  0.5053960000000 1.0
C      1  0.4711800000000  0.5537070000000  0.4930570000000 1.0
C      1  0.5494440000000  0.4972350000000  0.5326290000000 1.0
C      1  0.5516340000000  0.5059590000000  0.4701590000000 1.0
C      1  0.4466630000000  0.4926620000000  0.4652020000000 1.0
C      1  0.4437870000000  0.5046740000000  0.5276420000000 1.0
C      1  0.4113190000000  0.4561350000000  0.5686150000000 1.0
C      1  0.4130310000000  0.5403340000000  0.4248970000000 1.0
C      1  0.5867220000000  0.4578560000000  0.4321690000000 1.0
C      1  0.5790450000000  0.5474280000000  0.5712340000000 1.0
C      1  0.3895570000000  0.5961130000000  0.4399470000000 1.0
C      1  0.3892780000000  0.4009910000000  0.5516450000000 1.0
C      1  0.6047280000000  0.6024820000000  0.5543850000000 1.0
C      1  0.6121050000000  0.4047790000000  0.4509700000000 1.0
C      1  0.5897460000000  0.5905620000000  0.5342260000000 1.0
C      1  0.5951370000000  0.4162030000000  0.4698110000000 1.0
C      1  0.4044670000000  0.5842850000000  0.4602020000000 1.0
C      1  0.4056060000000  0.4121890000000  0.5321210000000 1.0
C      1  0.3944940000000  0.5628540000000  0.4763050000000 1.0
C      1  0.3960510000000  0.4317070000000  0.5134250000000 1.0
C      1  0.5998120000000  0.5689250000000  0.5183090000000 1.0
C      1  0.6035680000000  0.4373540000000  0.4872470000000 1.0
C      1  0.5600870000000  0.4853810000000  0.6083870000000 1.0
C      1  0.5670520000000  0.5185930000000  0.3954750000000 1.0
C      1  0.4366560000000  0.4792390000000  0.3904550000000 1.0
C      1  0.4226010000000  0.5220030000000  0.5997940000000 1.0
C      1  0.5976430000000  0.4782310000000  0.5492660000000 1.0
C      1  0.5999670000000  0.5271770000000  0.4570540000000 1.0
C      1  0.3995250000000  0.4711150000000  0.4501750000000 1.0
C      1  0.3917480000000  0.5202730000000  0.5359320000000 1.0
C      1  0.4531410000000  0.5557040000000  0.5149880000000 1.0
C      1  0.4576190000000  0.4418900000000  0.4821800000000 1.0
C      1  0.5396240000000  0.5573200000000  0.4850210000000 1.0
C      1  0.5415120000000  0.4462150000000  0.5177540000000 1.0
C      1  0.4764220000000  0.3942570000000  0.4651480000000 1.0
C      1  0.4647760000000  0.6031900000000  0.5368170000000 1.0
C      1  0.5249400000000  0.3993990000000  0.5374800000000 1.0
C      1  0.5241100000000  0.6033500000000  0.4617210000000 1.0
C      1  0.5182560000000  0.5603610000000  0.6086280000000 1.0
C      1  0.4642280000000  0.4244790000000  0.4006060000000 1.0
C      1  0.5391110000000  0.5722910000000  0.4015920000000 1.0
C      1  0.5351660000000  0.4310840000000  0.6007890000000 1.0
C      1  0.5109470000000  0.5295900000000  0.4586210000000 1.0
C      1  0.5089200000000  0.4721130000000  0.5416070000000 1.0
C      1  0.4839570000000  0.5317680000000  0.5418020000000 1.0
C      1  0.4888470000000  0.4667550000000  0.4560180000000 1.0
C      1  0.4717660000000  0.5834180000000  0.4313280000000 1.0
C      1  0.4709230000000  0.4161850000000  0.5669440000000 1.0
C      1  0.5209440000000  0.5923800000000  0.5613030000000 1.0
C      1  0.5298110000000  0.4135010000000  0.4346320000000 1.0
C      1  0.4748750000000  0.5804440000000  0.5509750000000 1.0
C      1  0.4847540000000  0.4171620000000  0.4505480000000 1.0
C      1  0.5156190000000  0.5791480000000  0.4496880000000 1.0
C      1  0.5154150000000  0.4227710000000  0.5505780000000 1.0
C      1  0.4996550000000  0.4392270000000  0.5002470000000 1.0
C      1  0.4963560000000  0.5634380000000  0.5000630000000 1.0
C      1  0.5139500000000  0.5007870000000  0.5000080000000 1.0
END
