TITL C-3623285-6872-1575 2.60076684440879e-07 125000 -517.126447117387 0 0 86 (C1) n - 1
REM
REM in /home/nfs/bkarasulu/CARBON/AIRSS/Generating-Clusters/LCBOP/Higher-Symm/SD-CG/FIRE-CG
REM
REM
REM
REM
REM
REM ./C.cell (b20cbc046b6831c77cfcea5457e17084)
REM AIRSS Version 0.9.1 bugfix July 2018 build 013d7b7c2542+ Fri, 06 Jul 2018 19:26:36 +0100
REM compiler GCC version 9.2.1 20190827 (Red Hat 9.2.1-1)
REM options -cpp -mtune=generic -march=x86-64 -g -O0 -fpre-include=/usr/include/finclude/math-vector-fortran.h
REM seed 1974687933 1102659391 -1361871067 1567247759 -2035833016 -77411576 -177378266 1919661583 2038361977 -408905861 -765842819 529474504 1599677357 1916851069 -1175038626 2077371178 -857818380 1477653582 886945833 1586530845 -1541631397 -1848525716 -1182475928 -939272826 483079220 -1079500594 -535423970 1984815187 -1317666566 -1027282803 736392531 -284462602 160996816
REM
CELL 1.54180   50.00000   50.00000   50.00000   90.00000   90.00000   90.00000
LATT -1
SFAC C  
C      1  0.3871690000000  0.4018930000000  0.4794290000000 1.0
C      1  0.5613240000000  0.3920010000000  0.4132150000000 1.0
C      1  0.5559130000000  0.4355370000000  0.5458420000000 1.0
C      1  0.5063370000000  0.4674410000000  0.5915360000000 1.0
C      1  0.4346170000000  0.4544680000000  0.4635560000000 1.0
C      1  0.5705390000000  0.4566020000000  0.4448150000000 1.0
C      1  0.4161200000000  0.4750560000000  0.4702050000000 1.0
C      1  0.5756680000000  0.4762390000000  0.4253890000000 1.0
C      1  0.5205450000000  0.4894830000000  0.6022300000000 1.0
C      1  0.4571640000000  0.4193990000000  0.4877930000000 1.0
C      1  0.5241200000000  0.4419580000000  0.4502440000000 1.0
C      1  0.5039460000000  0.4501720000000  0.5439350000000 1.0
C      1  0.5249430000000  0.5409730000000  0.5411190000000 1.0
C      1  0.4478430000000  0.5407820000000  0.5075720000000 1.0
C      1  0.5164380000000  0.5468780000000  0.4595000000000 1.0
C      1  0.5760310000000  0.5018830000000  0.4179900000000 1.0
C      1  0.5235540000000  0.5157020000000  0.6067850000000 1.0
C      1  0.4042410000000  0.4989750000000  0.4736610000000 1.0
C      1  0.5497400000000  0.5299250000000  0.5474360000000 1.0
C      1  0.4323960000000  0.5328330000000  0.5292880000000 1.0
C      1  0.5018630000000  0.5473570000000  0.4357630000000 1.0
C      1  0.5258250000000  0.4796990000000  0.4787920000000 1.0
C      1  0.4730420000000  0.4917320000000  0.5436810000000 1.0
C      1  0.4803380000000  0.4960990000000  0.4612320000000 1.0
C      1  0.4789610000000  0.5328280000000  0.5710310000000 1.0
C      1  0.4457970000000  0.5306050000000  0.4517560000000 1.0
C      1  0.5606470000000  0.5176700000000  0.4735820000000 1.0
C      1  0.4347380000000  0.5111760000000  0.5760250000000 1.0
C      1  0.4692920000000  0.5165900000000  0.4107170000000 1.0
C      1  0.5828870000000  0.5101190000000  0.5160270000000 1.0
C      1  0.5346040000000  0.5062900000000  0.4785340000000 1.0
C      1  0.4847750000000  0.5160330000000  0.5481000000000 1.0
C      1  0.4650960000000  0.5179080000000  0.4688100000000 1.0
C      1  0.5713690000000  0.5156050000000  0.5409910000000 1.0
C      1  0.4249000000000  0.5211650000000  0.5520180000000 1.0
C      1  0.4893190000000  0.5353840000000  0.4154950000000 1.0
C      1  0.5072100000000  0.4563260000000  0.4704990000000 1.0
C      1  0.5154410000000  0.4418380000000  0.5190490000000 1.0
C      1  0.4846670000000  0.4158200000000  0.4910880000000 1.0
C      1  0.4335120000000  0.4293440000000  0.4767290000000 1.0
C      1  0.5499960000000  0.4372850000000  0.4402890000000 1.0
C      1  0.5169100000000  0.4533210000000  0.5693760000000 1.0
C      1  0.4569980000000  0.4595350000000  0.4458970000000 1.0
C      1  0.5840280000000  0.4577980000000  0.4694530000000 1.0
C      1  0.4798170000000  0.4636040000000  0.6008200000000 1.0
C      1  0.4417470000000  0.6071090000000  0.4769090000000 1.0
C      1  0.5704500000000  0.5565000000000  0.4988940000000 1.0
C      1  0.5020450000000  0.6098580000000  0.5556840000000 1.0
C      1  0.4580330000000  0.5248840000000  0.5883120000000 1.0
C      1  0.4436630000000  0.5199240000000  0.4255210000000 1.0
C      1  0.5749980000000  0.5282770000000  0.4958940000000 1.0
C      1  0.6157590000000  0.4432870000000  0.5023740000000 1.0
C      1  0.4646450000000  0.5083870000000  0.6112200000000 1.0
C      1  0.4306930000000  0.4939060000000  0.4225880000000 1.0
C      1  0.5065010000000  0.5865200000000  0.5420380000000 1.0
C      1  0.4525470000000  0.5847620000000  0.4885120000000 1.0
C      1  0.5495800000000  0.5705150000000  0.4849160000000 1.0
C      1  0.4817040000000  0.4680860000000  0.4585260000000 1.0
C      1  0.5429400000000  0.4346690000000  0.5219120000000 1.0
C      1  0.4954950000000  0.3906770000000  0.4907730000000 1.0
C      1  0.4377170000000  0.5601650000000  0.4887130000000 1.0
C      1  0.5430710000000  0.5577270000000  0.4595480000000 1.0
C      1  0.5135020000000  0.5627190000000  0.5560690000000 1.0
C      1  0.4786830000000  0.5861910000000  0.5004320000000 1.0
C      1  0.5286550000000  0.5842340000000  0.4983570000000 1.0
C      1  0.5043370000000  0.5861650000000  0.5131470000000 1.0
C      1  0.5611490000000  0.5364470000000  0.4510800000000 1.0
C      1  0.5002550000000  0.5506810000000  0.5787740000000 1.0
C      1  0.4257200000000  0.5442160000000  0.4671580000000 1.0
C      1  0.5041360000000  0.5256480000000  0.5293290000000 1.0
C      1  0.4694120000000  0.5269480000000  0.4954920000000 1.0
C      1  0.5143890000000  0.5268320000000  0.4803400000000 1.0
C      1  0.4512530000000  0.4729030000000  0.4209790000000 1.0
C      1  0.5980180000000  0.4621480000000  0.4934670000000 1.0
C      1  0.4579020000000  0.4805320000000  0.6053580000000 1.0
C      1  0.4097010000000  0.4149300000000  0.4782040000000 1.0
C      1  0.5557100000000  0.4138700000000  0.4262290000000 1.0
C      1  0.5438630000000  0.4439140000000  0.5687870000000 1.0
C      1  0.5939630000000  0.4855830000000  0.5084770000000 1.0
C      1  0.4351510000000  0.4843380000000  0.5873410000000 1.0
C      1  0.4722050000000  0.4878210000000  0.4066120000000 1.0
C      1  0.5159080000000  0.5406660000000  0.6001590000000 1.0
C      1  0.4042820000000  0.5261190000000  0.4727450000000 1.0
C      1  0.5708020000000  0.5266140000000  0.4269040000000 1.0
C      1  0.5015980000000  0.4385650000000  0.4944350000000 1.0
C      1  0.4967160000000  0.5272550000000  0.5023890000000 1.0
END
