TITL C-3623285-6872-497 -4.9328899972926e-07 125000 -150.244218379288 0 0 26 (C2h) n - 1
REM
REM in /home/nfs/bkarasulu/CARBON/AIRSS/Generating-Clusters/LCBOP/Higher-Symm/SD-CG/FIRE-CG
REM
REM
REM
REM
REM
REM ./C.cell (b20cbc046b6831c77cfcea5457e17084)
REM AIRSS Version 0.9.1 bugfix July 2018 build 013d7b7c2542+ Fri, 06 Jul 2018 19:26:36 +0100
REM compiler GCC version 9.2.1 20190827 (Red Hat 9.2.1-1)
REM options -cpp -mtune=generic -march=x86-64 -g -O0 -fpre-include=/usr/include/finclude/math-vector-fortran.h
REM seed -1800060761 1742019356 -703157446 -1454685581 -584296865 -22222410 748434716 -946872159 -1364623679 -1041183245 322325613 -1217726844 -853148981 -1729304267 -681134754 -1551338383 1818933742 1680987902 -633663232 428398269 -999268377 1173783420 -496028085 1727108805 964351356 99677664 -1272414577 -67476757 -1069033179 1919957502 1591336512 1619383822 1963745085
REM
CELL 1.54180   50.00000   50.00000   50.00000   90.00000   90.00000   90.00000
LATT -1
SFAC C  
C      1  0.4600030000000  0.5234120000000  0.4865280000000 1.0
C      1  0.4600040000000  0.4765870000000  0.5134750000000 1.0
C      1  0.5476320000000  0.5234130000000  0.4865250000000 1.0
C      1  0.5476330000000  0.4765880000000  0.5134720000000 1.0
C      1  0.5171490000000  0.4412430000000  0.4902500000000 1.0
C      1  0.5171470000000  0.5587580000000  0.5097500000000 1.0
C      1  0.4904890000000  0.4412420000000  0.4902500000000 1.0
C      1  0.4904870000000  0.5587570000000  0.5097500000000 1.0
C      1  0.5435200000000  0.4771440000000  0.5416550000000 1.0
C      1  0.5435170000000  0.5228580000000  0.4583430000000 1.0
C      1  0.4641190000000  0.4771420000000  0.5416570000000 1.0
C      1  0.4641160000000  0.5228560000000  0.4583450000000 1.0
C      1  0.4689700000000  0.4543190000000  0.4989860000000 1.0
C      1  0.4689690000000  0.5456790000000  0.5010160000000 1.0
C      1  0.5386670000000  0.4543210000000  0.4989840000000 1.0
C      1  0.5386660000000  0.5456810000000  0.5010140000000 1.0
C      1  0.4905410000000  0.5211340000000  0.4490940000000 1.0
C      1  0.4905450000000  0.4788660000000  0.5509070000000 1.0
C      1  0.5170910000000  0.5211340000000  0.4490930000000 1.0
C      1  0.5170950000000  0.4788660000000  0.5509060000000 1.0
C      1  0.4430210000000  0.5241010000000  0.4410290000000 1.0
C      1  0.4430260000000  0.4758960000000  0.5589740000000 1.0
C      1  0.5646100000000  0.5241040000000  0.4410260000000 1.0
C      1  0.5646150000000  0.4758990000000  0.5589710000000 1.0
C      1  0.5548380000000  0.5000010000000  0.4999990000000 1.0
C      1  0.4527980000000  0.4999990000000  0.5000010000000 1.0
END
