TITL C-3623287-7182-1398 0.162337335082561 125000 -380.959813590754 0 0 65 (C1) n - 1
REM
REM in /home/nfs/bkarasulu/CARBON/AIRSS/Generating-Clusters/LCBOP/Higher-Symm/SD-CG/FIRE-CG
REM
REM
REM
REM
REM
REM ./C.cell (b20cbc046b6831c77cfcea5457e17084)
REM AIRSS Version 0.9.1 bugfix July 2018 build 013d7b7c2542+ Fri, 06 Jul 2018 19:26:36 +0100
REM compiler GCC version 9.2.1 20190827 (Red Hat 9.2.1-1)
REM options -cpp -mtune=generic -march=x86-64 -g -O0 -fpre-include=/usr/include/finclude/math-vector-fortran.h
REM seed 64781782 -2003420045 -692157926 -150783060 1518308954 1863077237 1788746468 -892300394 1346027184 756151328 -120958014 1676400463 1434526748 -1077715167 -636800081 2074207297 638062531 1892443281 -1896087085 1693861234 1578776003 203267251 1264605476 -1805731945 -1437636843 330492070 1313490403 319356916 -94001880 -1877563196 -1744621061 -33606904 -1882382430
REM
CELL 1.54180   50.00000   50.00000   50.00000   90.00000   90.00000   90.00000
LATT -1
SFAC C  
C      1  0.4758280000000  0.4297270000000  0.5085550000000 1.0
C      1  0.4223580000000  0.4872430000000  0.4975400000000 1.0
C      1  0.5016200000000  0.6033440000000  0.5246690000000 1.0
C      1  0.5958880000000  0.4733350000000  0.4720890000000 1.0
C      1  0.4771430000000  0.4334100000000  0.5569970000000 1.0
C      1  0.4373600000000  0.4868570000000  0.4513910000000 1.0
C      1  0.4979080000000  0.5965870000000  0.5724020000000 1.0
C      1  0.5919230000000  0.4788550000000  0.4240590000000 1.0
C      1  0.5368940000000  0.5148310000000  0.5805410000000 1.0
C      1  0.5119690000000  0.4480430000000  0.3965880000000 1.0
C      1  0.4422910000000  0.5119850000000  0.5907580000000 1.0
C      1  0.5069140000000  0.5366100000000  0.4242690000000 1.0
C      1  0.4766220000000  0.4460690000000  0.4877210000000 1.0
C      1  0.4373810000000  0.4946830000000  0.5181690000000 1.0
C      1  0.5060770000000  0.5852530000000  0.5058040000000 1.0
C      1  0.5790400000000  0.4778640000000  0.4920580000000 1.0
C      1  0.4483410000000  0.5377860000000  0.5898200000000 1.0
C      1  0.5328370000000  0.5311680000000  0.4230700000000 1.0
C      1  0.5294830000000  0.4896390000000  0.5769000000000 1.0
C      1  0.4881550000000  0.4533610000000  0.4070080000000 1.0
C      1  0.4755010000000  0.5817860000000  0.5801350000000 1.0
C      1  0.5768390000000  0.5023740000000  0.4226620000000 1.0
C      1  0.4997760000000  0.4479600000000  0.5645770000000 1.0
C      1  0.4614840000000  0.4719560000000  0.4491480000000 1.0
C      1  0.5344470000000  0.5672250000000  0.5851250000000 1.0
C      1  0.5644220000000  0.4498180000000  0.3963560000000 1.0
C      1  0.4441700000000  0.4602980000000  0.5808170000000 1.0
C      1  0.4557420000000  0.5268100000000  0.4306160000000 1.0
C      1  0.6351100000000  0.4702260000000  0.4444720000000 1.0
C      1  0.4810350000000  0.3902310000000  0.5354230000000 1.0
C      1  0.3956370000000  0.4654470000000  0.4638720000000 1.0
C      1  0.4904650000000  0.6405010000000  0.5532520000000 1.0
C      1  0.4178710000000  0.4797120000000  0.4709130000000 1.0
C      1  0.4965770000000  0.6140590000000  0.5500160000000 1.0
C      1  0.6081080000000  0.4738220000000  0.4469080000000 1.0
C      1  0.4778740000000  0.4173430000000  0.5335460000000 1.0
C      1  0.5575720000000  0.4859560000000  0.5053800000000 1.0
C      1  0.4782570000000  0.4690240000000  0.4718660000000 1.0
C      1  0.4610790000000  0.5012330000000  0.5283590000000 1.0
C      1  0.5090890000000  0.5614440000000  0.4945070000000 1.0
C      1  0.4394960000000  0.4121330000000  0.5798250000000 1.0
C      1  0.4089750000000  0.5159000000000  0.4240400000000 1.0
C      1  0.5348080000000  0.6135600000000  0.5995830000000 1.0
C      1  0.6123370000000  0.4511430000000  0.3892650000000 1.0
C      1  0.4805530000000  0.5353520000000  0.4268430000000 1.0
C      1  0.5387360000000  0.5411420000000  0.5832150000000 1.0
C      1  0.5382700000000  0.4465340000000  0.3934980000000 1.0
C      1  0.4408750000000  0.4856850000000  0.5876860000000 1.0
C      1  0.5169920000000  0.4669090000000  0.5714140000000 1.0
C      1  0.4701870000000  0.4615100000000  0.4247460000000 1.0
C      1  0.4593170000000  0.5616140000000  0.5859570000000 1.0
C      1  0.5566850000000  0.5195890000000  0.4225810000000 1.0
C      1  0.5456360000000  0.6337770000000  0.6119600000000 1.0
C      1  0.6335860000000  0.4433320000000  0.3763560000000 1.0
C      1  0.4267700000000  0.3903340000000  0.5863090000000 1.0
C      1  0.3855000000000  0.5208800000000  0.4138770000000 1.0
C      1  0.4338230000000  0.5100910000000  0.4353430000000 1.0
C      1  0.5226690000000  0.5925660000000  0.5857830000000 1.0
C      1  0.5896970000000  0.4596260000000  0.4032160000000 1.0
C      1  0.4533640000000  0.4352400000000  0.5725000000000 1.0
C      1  0.4954280000000  0.4897600000000  0.4795360000000 1.0
C      1  0.4869970000000  0.5054210000000  0.5237770000000 1.0
C      1  0.5097360000000  0.5350220000000  0.4924610000000 1.0
C      1  0.5333550000000  0.4959700000000  0.5094750000000 1.0
C      1  0.5069960000000  0.5068370000000  0.5013740000000 1.0
END
