TITL C-3623288-6813-1817 0.402053582832639 125000 -589.59198962471 0 0 97 (Cs) n - 1
REM
REM in /home/nfs/bkarasulu/CARBON/AIRSS/Generating-Clusters/LCBOP/Higher-Symm/SD-CG/FIRE-CG
REM
REM
REM
REM
REM
REM ./C.cell (b20cbc046b6831c77cfcea5457e17084)
REM AIRSS Version 0.9.1 bugfix July 2018 build 013d7b7c2542+ Fri, 06 Jul 2018 19:26:36 +0100
REM compiler GCC version 9.2.1 20190827 (Red Hat 9.2.1-1)
REM options -cpp -mtune=generic -march=x86-64 -g -O0 -fpre-include=/usr/include/finclude/math-vector-fortran.h
REM seed 1148619113 -1886100864 -529101627 -1415785113 -981050965 1075916224 1701392223 -1918265201 219716230 781838005 -489730066 1543244041 -1476660191 1019499231 -397265294 1074902662 -446012861 394499061 1754904248 693259792 -591636662 -1613347056 -1786502975 -1879779681 -1949852887 211575596 1626917330 -1703808546 1525759587 1269256295 -832696230 1932004643 1328140388
REM
CELL 1.54180   50.00000   50.00000   50.00000   90.00000   90.00000   90.00000
LATT -1
SFAC C  
C      1  0.4257290000000  0.4961070000000  0.4432080000000 1.0
C      1  0.5404960000000  0.4373380000000  0.4434460000000 1.0
C      1  0.5342950000000  0.5678330000000  0.4436450000000 1.0
C      1  0.4257390000000  0.4960760000000  0.5566330000000 1.0
C      1  0.5405070000000  0.4373080000000  0.5563420000000 1.0
C      1  0.5343050000000  0.5678030000000  0.5562140000000 1.0
C      1  0.5334840000000  0.5013440000000  0.5378080000000 1.0
C      1  0.4828410000000  0.5283650000000  0.5290860000000 1.0
C      1  0.4853840000000  0.4731080000000  0.5432640000000 1.0
C      1  0.5334770000000  0.5013650000000  0.4620160000000 1.0
C      1  0.4828350000000  0.5283810000000  0.4707620000000 1.0
C      1  0.4853760000000  0.4731310000000  0.4565530000000 1.0
C      1  0.5618190000000  0.4580600000000  0.5558900000000 1.0
C      1  0.5053910000000  0.5739490000000  0.5550060000000 1.0
C      1  0.4332200000000  0.4670740000000  0.5562770000000 1.0
C      1  0.5618080000000  0.4580900000000  0.4439050000000 1.0
C      1  0.5053810000000  0.5739790000000  0.4448620000000 1.0
C      1  0.4332100000000  0.4671050000000  0.4435470000000 1.0
C      1  0.4663400000000  0.4855470000000  0.5272000000000 1.0
C      1  0.5276700000000  0.4825660000000  0.5177800000000 1.0
C      1  0.5063480000000  0.5342880000000  0.5142070000000 1.0
C      1  0.4663350000000  0.4855620000000  0.4726280000000 1.0
C      1  0.5276660000000  0.4825750000000  0.4820350000000 1.0
C      1  0.5063450000000  0.5342960000000  0.4856390000000 1.0
C      1  0.4872250000000  0.5149300000000  0.4218010000000 1.0
C      1  0.4904980000000  0.4798300000000  0.4094830000000 1.0
C      1  0.5188760000000  0.5007270000000  0.4148300000000 1.0
C      1  0.4872400000000  0.5148880000000  0.5780390000000 1.0
C      1  0.4905150000000  0.4797810000000  0.5903370000000 1.0
C      1  0.5188920000000  0.5006810000000  0.5849960000000 1.0
C      1  0.4337840000000  0.4589460000000  0.4721770000000 1.0
C      1  0.5689580000000  0.4632170000000  0.4722550000000 1.0
C      1  0.4982820000000  0.5803090000000  0.4727610000000 1.0
C      1  0.4337890000000  0.4589310000000  0.5276430000000 1.0
C      1  0.5689630000000  0.4632020000000  0.5275410000000 1.0
C      1  0.4982870000000  0.5802940000000  0.5271120000000 1.0
C      1  0.4553700000000  0.4255280000000  0.5717840000000 1.0
C      1  0.5841340000000  0.4991250000000  0.5722210000000 1.0
C      1  0.4587130000000  0.5716500000000  0.5717110000000 1.0
C      1  0.4553570000000  0.4255670000000  0.4280130000000 1.0
C      1  0.5841200000000  0.4991640000000  0.4275930000000 1.0
C      1  0.4587000000000  0.5716890000000  0.4281650000000 1.0
C      1  0.5534120000000  0.4419070000000  0.4861810000000 1.0
C      1  0.5249960000000  0.5795470000000  0.4861770000000 1.0
C      1  0.4218010000000  0.4824000000000  0.4861040000000 1.0
C      1  0.5534150000000  0.4419000000000  0.5136070000000 1.0
C      1  0.5249980000000  0.5795400000000  0.5136910000000 1.0
C      1  0.4218040000000  0.4823920000000  0.5137300000000 1.0
C      1  0.4307220000000  0.5348860000000  0.4846930000000 1.0
C      1  0.5044160000000  0.4221520000000  0.4845680000000 1.0
C      1  0.5656400000000  0.5446890000000  0.4847140000000 1.0
C      1  0.4307250000000  0.5348780000000  0.5151680000000 1.0
C      1  0.5044190000000  0.4221430000000  0.5152180000000 1.0
C      1  0.5656430000000  0.5446810000000  0.5151280000000 1.0
C      1  0.4229100000000  0.5079560000000  0.5295370000000 1.0
C      1  0.5313360000000  0.4295130000000  0.5293750000000 1.0
C      1  0.5467820000000  0.5660520000000  0.5293160000000 1.0
C      1  0.4229040000000  0.5079720000000  0.4703110000000 1.0
C      1  0.5313310000000  0.4295280000000  0.4704100000000 1.0
C      1  0.5467770000000  0.5660680000000  0.4705400000000 1.0
C      1  0.4841180000000  0.5601350000000  0.4327000000000 1.0
C      1  0.4531330000000  0.4538430000000  0.4277950000000 1.0
C      1  0.5615040000000  0.4820680000000  0.4287920000000 1.0
C      1  0.4841310000000  0.5600990000000  0.5671650000000 1.0
C      1  0.4531460000000  0.4538040000000  0.5720180000000 1.0
C      1  0.5615170000000  0.4820300000000  0.5710170000000 1.0
C      1  0.5759370000000  0.4903740000000  0.4852520000000 1.0
C      1  0.4711310000000  0.5724930000000  0.4852930000000 1.0
C      1  0.4523300000000  0.4388100000000  0.4852820000000 1.0
C      1  0.5759400000000  0.4903660000000  0.5145580000000 1.0
C      1  0.4711340000000  0.5724850000000  0.5145810000000 1.0
C      1  0.4523330000000  0.4388020000000  0.5145230000000 1.0
C      1  0.4757210000000  0.4233500000000  0.5266870000000 1.0
C      1  0.5779450000000  0.5184620000000  0.5267460000000 1.0
C      1  0.4458580000000  0.5592660000000  0.5263970000000 1.0
C      1  0.4757160000000  0.4233640000000  0.4731050000000 1.0
C      1  0.5779400000000  0.5184770000000  0.4730790000000 1.0
C      1  0.4458530000000  0.5592800000000  0.4734740000000 1.0
C      1  0.4680780000000  0.5094450000000  0.4855500000000 1.0
C      1  0.5052620000000  0.4671370000000  0.4764760000000 1.0
C      1  0.5284970000000  0.5268420000000  0.4708720000000 1.0
C      1  0.4680800000000  0.5094370000000  0.5142900000000 1.0
C      1  0.5052660000000  0.4671250000000  0.5233340000000 1.0
C      1  0.5285020000000  0.5268260000000  0.5289670000000 1.0
C      1  0.4785030000000  0.4667860000000  0.4298970000000 1.0
C      1  0.5374140000000  0.4961550000000  0.4341720000000 1.0
C      1  0.4828350000000  0.5329540000000  0.4418040000000 1.0
C      1  0.4785160000000  0.4667480000000  0.5699180000000 1.0
C      1  0.5374260000000  0.4961190000000  0.5656480000000 1.0
C      1  0.4828460000000  0.5329230000000  0.5580460000000 1.0
C      1  0.5893150000000  0.5177880000000  0.5530860000000 1.0
C      1  0.4395590000000  0.5691030000000  0.5525700000000 1.0
C      1  0.4691720000000  0.4124710000000  0.5523190000000 1.0
C      1  0.5893050000000  0.5178170000000  0.4467370000000 1.0
C      1  0.4395490000000  0.5691320000000  0.4473080000000 1.0
C      1  0.4691620000000  0.4124990000000  0.4474690000000 1.0
C      1  0.4899030000000  0.4655790000000  0.4999060000000 1.0
END
