TITL C-3623283-6828-469 -5.9932323337558e-08 125000 -14.6332359548069 0 0 5 (Td) n - 1
REM
REM in /home/nfs/bkarasulu/CARBON/AIRSS/Generating-Clusters/LCBOP/Higher-Symm/SD-CG/FIRE-CG
REM
REM
REM
REM
REM
REM ./C.cell (b20cbc046b6831c77cfcea5457e17084)
REM AIRSS Version 0.9.1 bugfix July 2018 build 013d7b7c2542+ Fri, 06 Jul 2018 19:26:36 +0100
REM compiler GCC version 9.2.1 20190827 (Red Hat 9.2.1-1)
REM options -cpp -mtune=generic -march=x86-64 -g -O0 -fpre-include=/usr/include/finclude/math-vector-fortran.h
REM seed -975320014 1988614964 1745209419 225671398 -1511303309 189521630 -40164314 1784789160 257290215 -1821849760 1150110747 2009533497 -1737295760 475882781 1875660418 -1962289881 1365240368 -1017453061 1421305842 586227227 1933067570 -2049826915 -708713107 1204385376 -247107358 -1119168715 1365660355 -370155925 1848405278 -1323173534 468937560 -1182876075 89210811
REM
CELL 1.54180   50.00000   50.00000   50.00000   90.00000   90.00000   90.00000
LATT -1
SFAC C  
C      1  0.5178010000000  0.4819620000000  0.4828390000000 1.0
C      1  0.4827650000000  0.5169990000000  0.4828390000000 1.0
C      1  0.4827650000000  0.4819620000000  0.5178760000000 1.0
C      1  0.5178010000000  0.5169990000000  0.5178760000000 1.0
C      1  0.5002830000000  0.4994810000000  0.5003570000000 1.0
END
