TITL C-3623282-6910-1423 -9.35169909147775e-08 125000 -18.9723641415036 0 0 4 (D(inf)h) n - 1
REM
REM in /home/nfs/bkarasulu/CARBON/AIRSS/Generating-Clusters/LCBOP/Higher-Symm/SD-CG/FIRE-CG
REM
REM
REM
REM
REM
REM ./C.cell (b20cbc046b6831c77cfcea5457e17084)
REM AIRSS Version 0.9.1 bugfix July 2018 build 013d7b7c2542+ Fri, 06 Jul 2018 19:26:36 +0100
REM compiler GCC version 9.2.1 20190827 (Red Hat 9.2.1-1)
REM options -cpp -mtune=generic -march=x86-64 -g -O0 -fpre-include=/usr/include/finclude/math-vector-fortran.h
REM seed -2122298278 -85207717 -975571913 383514927 1173519527 -1518700887 1588496643 237373737 -570757322 -1794178566 -1268386683 209695208 1703104868 463665017 -1555536072 2000845246 1576766236 146969895 -1877649642 1783900637 -1663630191 1634222467 339176813 2056510630 702039367 -131788406 -1185965712 203334636 1039483918 -663365879 -1488725520 1322233486 417576634
REM
CELL 1.54180   50.00000   50.00000   50.00000   90.00000   90.00000   90.00000
LATT -1
SFAC C  
C      1  0.4606730000000  0.5029750000000  0.4997870000000 1.0
C      1  0.4867430000000  0.5029750000000  0.4997870000000 1.0
C      1  0.5393270000000  0.5029750000000  0.4997870000000 1.0
C      1  0.5132570000000  0.5029750000000  0.4997870000000 1.0
END
