TITL C-3623284-6838-1551 -21418.8460929578 125000 -469.442896711058 0 0 78 (C1) n - 1
REM
REM in /home/nfs/bkarasulu/CARBON/AIRSS/Generating-Clusters/LCBOP/Higher-Symm/SD-CG/FIRE-CG
REM
REM
REM
REM
REM
REM ./C.cell (b20cbc046b6831c77cfcea5457e17084)
REM AIRSS Version 0.9.1 bugfix July 2018 build 013d7b7c2542+ Fri, 06 Jul 2018 19:26:36 +0100
REM compiler GCC version 9.2.1 20190827 (Red Hat 9.2.1-1)
REM options -cpp -mtune=generic -march=x86-64 -g -O0 -fpre-include=/usr/include/finclude/math-vector-fortran.h
REM seed 1662220265 -467947237 -1257287727 -591255604 2098233800 619976699 436321579 -1767064181 -1880807601 1176079983 -1416732107 556086203 1089478900 -305550429 -85953817 1741127977 -1382740186 -438743803 2016072034 27572721 781752999 -1009006423 455117308 -1912995916 119583810 -87957859 -2018853892 1668791580 15415649 -543742718 -1768569447 -2065343669 476332256
REM
CELL 1.54180   50.00000   50.00000   50.00000   90.00000   90.00000   90.00000
LATT -1
SFAC C  
C      1  0.5053710000000  0.4325090000000  0.4727190000000 1.0
C      1  0.4991280000000  0.5695540000000  0.4724600000000 1.0
C      1  0.4866940000000  0.5319800000000  0.4445030000000 1.0
C      1  0.4941800000000  0.4757160000000  0.4453950000000 1.0
C      1  0.4300140000000  0.4854420000000  0.5953090000000 1.0
C      1  0.4282390000000  0.5119140000000  0.5957700000000 1.0
C      1  0.4257670000000  0.5137260000000  0.4886190000000 1.0
C      1  0.4275430000000  0.4851130000000  0.4878460000000 1.0
C      1  0.4922500000000  0.5124060000000  0.3978870000000 1.0
C      1  0.5106060000000  0.4928100000000  0.3982460000000 1.0
C      1  0.4471470000000  0.5246570000000  0.5047910000000 1.0
C      1  0.4501820000000  0.4759380000000  0.5034330000000 1.0
C      1  0.6035050000000  0.5314870000000  0.5714550000000 1.0
C      1  0.6135800000000  0.4722430000000  0.5660600000000 1.0
C      1  0.5333980000000  0.4641540000000  0.5639590000000 1.0
C      1  0.5282680000000  0.5360230000000  0.5639620000000 1.0
C      1  0.4156890000000  0.4638210000000  0.4726080000000 1.0
C      1  0.4123140000000  0.5343120000000  0.4736870000000 1.0
C      1  0.3713110000000  0.5108510000000  0.4523920000000 1.0
C      1  0.3725850000000  0.4841100000000  0.4520630000000 1.0
C      1  0.5281300000000  0.4496220000000  0.5408090000000 1.0
C      1  0.5233970000000  0.5504220000000  0.5406310000000 1.0
C      1  0.4827610000000  0.4880040000000  0.4674100000000 1.0
C      1  0.4797400000000  0.5164290000000  0.4676100000000 1.0
C      1  0.5243880000000  0.4143640000000  0.4838090000000 1.0
C      1  0.5202290000000  0.5854600000000  0.4832770000000 1.0
C      1  0.5183140000000  0.4762730000000  0.4186130000000 1.0
C      1  0.4804490000000  0.5257310000000  0.4179470000000 1.0
C      1  0.4703290000000  0.5319760000000  0.4897820000000 1.0
C      1  0.4738750000000  0.4702980000000  0.4882310000000 1.0
C      1  0.4247880000000  0.5599850000000  0.5973530000000 1.0
C      1  0.4330690000000  0.4373340000000  0.5955200000000 1.0
C      1  0.4987850000000  0.5636440000000  0.5367530000000 1.0
C      1  0.5027070000000  0.4382250000000  0.5364930000000 1.0
C      1  0.5776750000000  0.4855930000000  0.5285640000000 1.0
C      1  0.5740760000000  0.5142070000000  0.5301230000000 1.0
C      1  0.5415690000000  0.5507540000000  0.5185200000000 1.0
C      1  0.5464850000000  0.4477090000000  0.5190130000000 1.0
C      1  0.5601500000000  0.4508360000000  0.4334930000000 1.0
C      1  0.5551750000000  0.5451570000000  0.4349060000000 1.0
C      1  0.4808540000000  0.5702620000000  0.5179450000000 1.0
C      1  0.4851170000000  0.4326680000000  0.5170810000000 1.0
C      1  0.5708980000000  0.4687300000000  0.4829340000000 1.0
C      1  0.5652080000000  0.5266940000000  0.4837990000000 1.0
C      1  0.5338030000000  0.4869690000000  0.5775440000000 1.0
C      1  0.5315310000000  0.5134420000000  0.5775460000000 1.0
C      1  0.6195720000000  0.5158640000000  0.5862780000000 1.0
C      1  0.6241080000000  0.4894190000000  0.5838400000000 1.0
C      1  0.5041790000000  0.5538410000000  0.4493670000000 1.0
C      1  0.5125580000000  0.4476360000000  0.4507670000000 1.0
C      1  0.5759590000000  0.4383980000000  0.4150540000000 1.0
C      1  0.5702190000000  0.5477370000000  0.4122960000000 1.0
C      1  0.4256990000000  0.5594340000000  0.4723530000000 1.0
C      1  0.4309850000000  0.4399030000000  0.4706280000000 1.0
C      1  0.4753740000000  0.5624400000000  0.4896420000000 1.0
C      1  0.4806700000000  0.4399600000000  0.4883180000000 1.0
C      1  0.5325450000000  0.4538860000000  0.4296070000000 1.0
C      1  0.5288390000000  0.5546820000000  0.4362340000000 1.0
C      1  0.5594570000000  0.5296120000000  0.5111260000000 1.0
C      1  0.5641990000000  0.4683990000000  0.5102700000000 1.0
C      1  0.5381170000000  0.5722610000000  0.5005110000000 1.0
C      1  0.5427100000000  0.4254770000000  0.5019990000000 1.0
C      1  0.5246910000000  0.3879350000000  0.4770790000000 1.0
C      1  0.5227310000000  0.6119510000000  0.4772500000000 1.0
C      1  0.3877160000000  0.5299480000000  0.4613010000000 1.0
C      1  0.3907190000000  0.4664010000000  0.4604620000000 1.0
C      1  0.4487640000000  0.5721400000000  0.4786670000000 1.0
C      1  0.4549260000000  0.4288510000000  0.4766270000000 1.0
C      1  0.5962710000000  0.4730910000000  0.5457400000000 1.0
C      1  0.5871140000000  0.5286600000000  0.5505630000000 1.0
C      1  0.5651890000000  0.5327040000000  0.4579400000000 1.0
C      1  0.5707940000000  0.4611460000000  0.4574250000000 1.0
C      1  0.4418360000000  0.4622290000000  0.5551830000000 1.0
C      1  0.4369390000000  0.5376060000000  0.5564060000000 1.0
C      1  0.4349340000000  0.4611510000000  0.5823020000000 1.0
C      1  0.4298820000000  0.5370200000000  0.5835000000000 1.0
C      1  0.4435300000000  0.5303240000000  0.5317960000000 1.0
C      1  0.4474990000000  0.4703400000000  0.5305980000000 1.0
END
