TITL C-3623285-6872-619 -5258.97388278303 125000 -846.35783003349 0 0 140 (C1) n - 1
REM
REM in /home/nfs/bkarasulu/CARBON/AIRSS/Generating-Clusters/LCBOP/Higher-Symm/SD-CG/FIRE-CG
REM
REM
REM
REM
REM
REM ./C.cell (b20cbc046b6831c77cfcea5457e17084)
REM AIRSS Version 0.9.1 bugfix July 2018 build 013d7b7c2542+ Fri, 06 Jul 2018 19:26:36 +0100
REM compiler GCC version 9.2.1 20190827 (Red Hat 9.2.1-1)
REM options -cpp -mtune=generic -march=x86-64 -g -O0 -fpre-include=/usr/include/finclude/math-vector-fortran.h
REM seed -987492508 -1004416038 -554441266 1443204331 509116837 793649165 2091240046 107821245 -653875225 -1779659108 375174893 2121487195 -543604525 -1160254973 -69154381 -1463075719 -1406529201 1056925746 -716239859 668654322 -632322502 -1870886599 298922245 805081509 -1328148220 -2071761555 685830845 1536269275 -1412585516 1080660217 1511438727 -2059057051 1351341726
REM
CELL 1.54180   50.00000   50.00000   50.00000   90.00000   90.00000   90.00000
LATT -1
SFAC C  
C      1  0.4286390000000  0.5419720000000  0.5244980000000 1.0
C      1  0.4300790000000  0.5017240000000  0.4509360000000 1.0
C      1  0.4311830000000  0.4595010000000  0.5249930000000 1.0
C      1  0.5705940000000  0.5396100000000  0.4739320000000 1.0
C      1  0.5672160000000  0.4917260000000  0.5463080000000 1.0
C      1  0.5700690000000  0.4554530000000  0.4745710000000 1.0
C      1  0.4483390000000  0.5292580000000  0.5066480000000 1.0
C      1  0.4492410000000  0.4935780000000  0.4715050000000 1.0
C      1  0.4491540000000  0.4815320000000  0.5186050000000 1.0
C      1  0.5511650000000  0.5263790000000  0.4911020000000 1.0
C      1  0.5479500000000  0.4904320000000  0.5239350000000 1.0
C      1  0.5531120000000  0.4794880000000  0.4748700000000 1.0
C      1  0.4735740000000  0.4684660000000  0.5156500000000 1.0
C      1  0.4727410000000  0.5372320000000  0.5184840000000 1.0
C      1  0.4742640000000  0.4981130000000  0.4590070000000 1.0
C      1  0.5271400000000  0.4682820000000  0.4718780000000 1.0
C      1  0.5261010000000  0.5346690000000  0.4812890000000 1.0
C      1  0.5249860000000  0.5016050000000  0.5360290000000 1.0
C      1  0.5621810000000  0.4969900000000  0.4113520000000 1.0
C      1  0.5472630000000  0.4132090000000  0.5413410000000 1.0
C      1  0.5621600000000  0.5729920000000  0.5431130000000 1.0
C      1  0.4328580000000  0.4964850000000  0.5847600000000 1.0
C      1  0.4414450000000  0.4221450000000  0.4575370000000 1.0
C      1  0.4378390000000  0.5771830000000  0.4594010000000 1.0
C      1  0.4929130000000  0.5640150000000  0.4660840000000 1.0
C      1  0.4950850000000  0.4372550000000  0.4575870000000 1.0
C      1  0.4898450000000  0.4999300000000  0.5691560000000 1.0
C      1  0.5072510000000  0.5631400000000  0.5361270000000 1.0
C      1  0.5081220000000  0.4431620000000  0.5355110000000 1.0
C      1  0.5065450000000  0.4998370000000  0.4247610000000 1.0
C      1  0.4783660000000  0.5252940000000  0.5697470000000 1.0
C      1  0.4808000000000  0.5497120000000  0.4449520000000 1.0
C      1  0.4832870000000  0.4290620000000  0.4822890000000 1.0
C      1  0.5189640000000  0.5245210000000  0.4287870000000 1.0
C      1  0.5194890000000  0.5482040000000  0.5568930000000 1.0
C      1  0.5217390000000  0.4334580000000  0.5123980000000 1.0
C      1  0.4877370000000  0.4876580000000  0.5948340000000 1.0
C      1  0.4929180000000  0.5913830000000  0.4574390000000 1.0
C      1  0.4948500000000  0.4132370000000  0.4417040000000 1.0
C      1  0.5072550000000  0.4933690000000  0.3969700000000 1.0
C      1  0.5079790000000  0.5902480000000  0.5455680000000 1.0
C      1  0.5102810000000  0.4332450000000  0.5623300000000 1.0
C      1  0.5505180000000  0.5225180000000  0.5954780000000 1.0
C      1  0.5539610000000  0.5668510000000  0.4228360000000 1.0
C      1  0.5580320000000  0.3965740000000  0.4758930000000 1.0
C      1  0.4464240000000  0.5340200000000  0.4036690000000 1.0
C      1  0.4456000000000  0.5668620000000  0.5779670000000 1.0
C      1  0.4596560000000  0.4058360000000  0.5301480000000 1.0
C      1  0.5744550000000  0.4712600000000  0.4136130000000 1.0
C      1  0.5784550000000  0.4404100000000  0.5911530000000 1.0
C      1  0.5739980000000  0.5819700000000  0.5192010000000 1.0
C      1  0.4164400000000  0.4732680000000  0.5840480000000 1.0
C      1  0.4308160000000  0.4402920000000  0.4377590000000 1.0
C      1  0.4256210000000  0.5876180000000  0.4831380000000 1.0
C      1  0.5745770000000  0.4483000000000  0.4271180000000 1.0
C      1  0.5580920000000  0.4500660000000  0.5752910000000 1.0
C      1  0.5727910000000  0.5837790000000  0.4925800000000 1.0
C      1  0.4197580000000  0.4501710000000  0.5709080000000 1.0
C      1  0.4316300000000  0.4627160000000  0.4231160000000 1.0
C      1  0.4265890000000  0.5878620000000  0.5098170000000 1.0
C      1  0.4936330000000  0.4846160000000  0.4442940000000 1.0
C      1  0.4938170000000  0.4670230000000  0.5336680000000 1.0
C      1  0.4951230000000  0.5526710000000  0.5132620000000 1.0
C      1  0.5025870000000  0.4893530000000  0.5467390000000 1.0
C      1  0.5066240000000  0.4624350000000  0.4541930000000 1.0
C      1  0.5058760000000  0.5524270000000  0.4879310000000 1.0
C      1  0.5750860000000  0.5180580000000  0.4297350000000 1.0
C      1  0.5712100000000  0.4234100000000  0.5167230000000 1.0
C      1  0.5757030000000  0.5410060000000  0.5528930000000 1.0
C      1  0.4226530000000  0.5192280000000  0.5677620000000 1.0
C      1  0.4305630000000  0.4270860000000  0.4866340000000 1.0
C      1  0.4248160000000  0.5508970000000  0.4494810000000 1.0
C      1  0.4362140000000  0.4905930000000  0.4244240000000 1.0
C      1  0.4359890000000  0.4437620000000  0.5489380000000 1.0
C      1  0.4344950000000  0.5704040000000  0.5304430000000 1.0
C      1  0.5570860000000  0.4789050000000  0.5713140000000 1.0
C      1  0.5662870000000  0.4377220000000  0.4517290000000 1.0
C      1  0.5653130000000  0.5682970000000  0.4702880000000 1.0
C      1  0.5992990000000  0.4746400000000  0.5049370000000 1.0
C      1  0.5993360000000  0.5093250000000  0.5152510000000 1.0
C      1  0.5994850000000  0.5026300000000  0.4785460000000 1.0
C      1  0.4016440000000  0.4769040000000  0.4943580000000 1.0
C      1  0.4000180000000  0.5139040000000  0.4842980000000 1.0
C      1  0.4001090000000  0.5045200000000  0.5195920000000 1.0
C      1  0.5421600000000  0.4947160000000  0.5916570000000 1.0
C      1  0.5481520000000  0.5790480000000  0.4487720000000 1.0
C      1  0.5510920000000  0.4130220000000  0.4529190000000 1.0
C      1  0.4523970000000  0.5053180000000  0.4043290000000 1.0
C      1  0.4519660000000  0.5798700000000  0.5525010000000 1.0
C      1  0.4580500000000  0.4248970000000  0.5518460000000 1.0
C      1  0.4822280000000  0.4271510000000  0.5688430000000 1.0
C      1  0.4785110000000  0.5948280000000  0.5503930000000 1.0
C      1  0.4779160000000  0.4955630000000  0.3907150000000 1.0
C      1  0.5242910000000  0.4073010000000  0.4398770000000 1.0
C      1  0.5223540000000  0.5949870000000  0.4518350000000 1.0
C      1  0.5160220000000  0.4856740000000  0.6027420000000 1.0
C      1  0.5281180000000  0.3603290000000  0.4891500000000 1.0
C      1  0.5311340000000  0.5507170000000  0.6305360000000 1.0
C      1  0.5318470000000  0.5800100000000  0.3811810000000 1.0
C      1  0.5173740000000  0.3937120000000  0.5388400000000 1.0
C      1  0.4682460000000  0.5652480000000  0.3729840000000 1.0
C      1  0.4680230000000  0.5784020000000  0.6200880000000 1.0
C      1  0.4407040000000  0.4088940000000  0.5079330000000 1.0
C      1  0.4264670000000  0.5456850000000  0.5787570000000 1.0
C      1  0.4272410000000  0.5459710000000  0.4209280000000 1.0
C      1  0.5764560000000  0.4038950000000  0.4963790000000 1.0
C      1  0.5725400000000  0.5454250000000  0.4203810000000 1.0
C      1  0.5712770000000  0.5347850000000  0.5803960000000 1.0
C      1  0.4149520000000  0.5245940000000  0.4620020000000 1.0
C      1  0.4173150000000  0.4525060000000  0.4994600000000 1.0
C      1  0.4139410000000  0.5208290000000  0.5387450000000 1.0
C      1  0.5839610000000  0.5157050000000  0.5384450000000 1.0
C      1  0.5829010000000  0.4521010000000  0.5003310000000 1.0
C      1  0.5850720000000  0.5186250000000  0.4588760000000 1.0
C      1  0.5311400000000  0.5258020000000  0.5472350000000 1.0
C      1  0.5272520000000  0.5285260000000  0.4542270000000 1.0
C      1  0.5242510000000  0.4548180000000  0.4957840000000 1.0
C      1  0.4725700000000  0.5250700000000  0.4524110000000 1.0
C      1  0.4688760000000  0.5330600000000  0.5456840000000 1.0
C      1  0.4723500000000  0.4497730000000  0.4958800000000 1.0
C      1  0.5326800000000  0.5654120000000  0.4041080000000 1.0
C      1  0.5347570000000  0.3866450000000  0.4880980000000 1.0
C      1  0.5314590000000  0.5415650000000  0.6048850000000 1.0
C      1  0.4667550000000  0.5642560000000  0.5968960000000 1.0
C      1  0.4858010000000  0.3966930000000  0.5231090000000 1.0
C      1  0.4672970000000  0.5520010000000  0.3967360000000 1.0
C      1  0.5378940000000  0.5913700000000  0.5514490000000 1.0
C      1  0.5372220000000  0.4958230000000  0.3930710000000 1.0
C      1  0.5398020000000  0.4308840000000  0.5641530000000 1.0
C      1  0.4630640000000  0.5937940000000  0.4520460000000 1.0
C      1  0.4585410000000  0.4911780000000  0.5995120000000 1.0
C      1  0.4654520000000  0.4059790000000  0.4457860000000 1.0
C      1  0.4917740000000  0.4054340000000  0.4961980000000 1.0
C      1  0.4858530000000  0.5452590000000  0.5887030000000 1.0
C      1  0.4864840000000  0.5546790000000  0.4172230000000 1.0
C      1  0.5199350000000  0.4081990000000  0.4980890000000 1.0
C      1  0.5130340000000  0.5469830000000  0.4120910000000 1.0
C      1  0.5133110000000  0.5501640000000  0.5849020000000 1.0
C      1  0.5534390000000  0.4984790000000  0.4969500000000 1.0
C      1  0.4462720000000  0.5019010000000  0.4988230000000 1.0
END
