TITL C-3623284-6838-1543 1271.15026412757 125000 -746.75807008868 0 0 130 (C1) n - 1
REM
REM in /home/nfs/bkarasulu/CARBON/AIRSS/Generating-Clusters/LCBOP/Higher-Symm/SD-CG/FIRE-CG
REM
REM
REM
REM
REM
REM ./C.cell (b20cbc046b6831c77cfcea5457e17084)
REM AIRSS Version 0.9.1 bugfix July 2018 build 013d7b7c2542+ Fri, 06 Jul 2018 19:26:36 +0100
REM compiler GCC version 9.2.1 20190827 (Red Hat 9.2.1-1)
REM options -cpp -mtune=generic -march=x86-64 -g -O0 -fpre-include=/usr/include/finclude/math-vector-fortran.h
REM seed -1596666511 -732158926 -1185021001 -550167528 -912154323 -734160392 -1836201389 -1443424455 -1340861609 1653935371 -166706712 -672186182 517654832 -1622346541 569400939 211001973 -1520445065 1940920349 -1365452725 -514528492 -1618010549 2090341765 169508175 -944998313 557918562 -646871339 -973707044 -1141069747 -726488775 -1946232391 -111659772 1453112549 6544266
REM
CELL 1.54180   50.00000   50.00000   50.00000   90.00000   90.00000   90.00000
LATT -1
SFAC C  
C      1  0.5241000000000  0.5184020000000  0.4231960000000 1.0
C      1  0.5903590000000  0.5145240000000  0.4923940000000 1.0
C      1  0.5325990000000  0.5114640000000  0.5810070000000 1.0
C      1  0.4283430000000  0.5165770000000  0.5557680000000 1.0
C      1  0.4234430000000  0.5145000000000  0.4490200000000 1.0
C      1  0.5215840000000  0.4885270000000  0.4191310000000 1.0
C      1  0.5948850000000  0.4840410000000  0.4941770000000 1.0
C      1  0.5291580000000  0.4813110000000  0.5811070000000 1.0
C      1  0.4293390000000  0.4857480000000  0.5579200000000 1.0
C      1  0.4247350000000  0.4835730000000  0.4483670000000 1.0
C      1  0.4548850000000  0.6006520000000  0.5314370000000 1.0
C      1  0.4578100000000  0.5994930000000  0.4689860000000 1.0
C      1  0.5181770000000  0.6037540000000  0.4529070000000 1.0
C      1  0.5525130000000  0.5998220000000  0.5035160000000 1.0
C      1  0.5135440000000  0.5977080000000  0.5531970000000 1.0
C      1  0.4578410000000  0.4008190000000  0.5285650000000 1.0
C      1  0.4592880000000  0.3995550000000  0.4658140000000 1.0
C      1  0.5193190000000  0.4013400000000  0.4480950000000 1.0
C      1  0.5553020000000  0.3995880000000  0.4995460000000 1.0
C      1  0.5168860000000  0.3976720000000  0.5485710000000 1.0
C      1  0.4912490000000  0.5189680000000  0.5677130000000 1.0
C      1  0.4198310000000  0.5113980000000  0.5127620000000 1.0
C      1  0.4659990000000  0.5157590000000  0.4362730000000 1.0
C      1  0.5525020000000  0.5075340000000  0.4547960000000 1.0
C      1  0.5697600000000  0.5165140000000  0.5318270000000 1.0
C      1  0.4870250000000  0.4922430000000  0.5758290000000 1.0
C      1  0.4262370000000  0.4836120000000  0.5136960000000 1.0
C      1  0.4650770000000  0.4880500000000  0.4310670000000 1.0
C      1  0.5459180000000  0.4808150000000  0.4548300000000 1.0
C      1  0.5744280000000  0.4887020000000  0.5349240000000 1.0
C      1  0.5072340000000  0.4778350000000  0.5618770000000 1.0
C      1  0.4459960000000  0.4788760000000  0.5339310000000 1.0
C      1  0.4532230000000  0.4774940000000  0.4546340000000 1.0
C      1  0.5186590000000  0.4784130000000  0.4471920000000 1.0
C      1  0.5716430000000  0.4761290000000  0.5101770000000 1.0
C      1  0.5176860000000  0.5204090000000  0.5563650000000 1.0
C      1  0.4402600000000  0.5226390000000  0.5291580000000 1.0
C      1  0.4506080000000  0.5216060000000  0.4597190000000 1.0
C      1  0.5275330000000  0.5209890000000  0.4525480000000 1.0
C      1  0.5629940000000  0.5209020000000  0.5042530000000 1.0
C      1  0.5949810000000  0.5038800000000  0.4464360000000 1.0
C      1  0.5740270000000  0.5226780000000  0.5752270000000 1.0
C      1  0.4535820000000  0.5254890000000  0.5907520000000 1.0
C      1  0.3927990000000  0.5077130000000  0.4788700000000 1.0
C      1  0.4865850000000  0.5175590000000  0.3965130000000 1.0
C      1  0.5895570000000  0.4753000000000  0.4485130000000 1.0
C      1  0.5733310000000  0.4942130000000  0.5784420000000 1.0
C      1  0.4487630000000  0.4976460000000  0.5956850000000 1.0
C      1  0.3963720000000  0.4794810000000  0.4810970000000 1.0
C      1  0.4867270000000  0.4890520000000  0.3933410000000 1.0
C      1  0.5245120000000  0.4106570000000  0.5708740000000 1.0
C      1  0.4390900000000  0.4147110000000  0.5428000000000 1.0
C      1  0.4398880000000  0.4130190000000  0.4525340000000 1.0
C      1  0.5267130000000  0.4168360000000  0.4270720000000 1.0
C      1  0.5789720000000  0.4132320000000  0.4983020000000 1.0
C      1  0.5204010000000  0.5825860000000  0.5746620000000 1.0
C      1  0.4358660000000  0.5872420000000  0.5452000000000 1.0
C      1  0.4393950000000  0.5855270000000  0.4545420000000 1.0
C      1  0.5268080000000  0.5902330000000  0.4312740000000 1.0
C      1  0.5757680000000  0.5858350000000  0.5015330000000 1.0
C      1  0.5151690000000  0.5115610000000  0.4777540000000 1.0
C      1  0.5340750000000  0.5072280000000  0.5019900000000 1.0
C      1  0.5188390000000  0.5081130000000  0.5292970000000 1.0
C      1  0.4642280000000  0.5141710000000  0.5135910000000 1.0
C      1  0.4622310000000  0.5110620000000  0.4848140000000 1.0
C      1  0.5004440000000  0.4880700000000  0.4681330000000 1.0
C      1  0.5450050000000  0.4788510000000  0.5007420000000 1.0
C      1  0.5003570000000  0.4859330000000  0.5338830000000 1.0
C      1  0.4725480000000  0.4898890000000  0.5273760000000 1.0
C      1  0.4729040000000  0.4861470000000  0.4747000000000 1.0
C      1  0.4174830000000  0.5415640000000  0.5647770000000 1.0
C      1  0.4136640000000  0.5404950000000  0.4407280000000 1.0
C      1  0.5303830000000  0.5425690000000  0.4096960000000 1.0
C      1  0.6030550000000  0.5406900000000  0.4924640000000 1.0
C      1  0.5333740000000  0.5358150000000  0.5967230000000 1.0
C      1  0.4190820000000  0.4594830000000  0.5650650000000 1.0
C      1  0.4140850000000  0.4579980000000  0.4405720000000 1.0
C      1  0.5298100000000  0.4649650000000  0.4045560000000 1.0
C      1  0.6075840000000  0.4581880000000  0.4903860000000 1.0
C      1  0.5356630000000  0.4567210000000  0.5935390000000 1.0
C      1  0.5187350000000  0.4453360000000  0.5206790000000 1.0
C      1  0.4866850000000  0.4446560000000  0.5266890000000 1.0
C      1  0.4723710000000  0.4441540000000  0.4978990000000 1.0
C      1  0.4939830000000  0.4430830000000  0.4751060000000 1.0
C      1  0.5220400000000  0.4422790000000  0.4890480000000 1.0
C      1  0.5206980000000  0.5559140000000  0.5155170000000 1.0
C      1  0.4898000000000  0.5557830000000  0.5202880000000 1.0
C      1  0.4744050000000  0.5553950000000  0.4935380000000 1.0
C      1  0.4963060000000  0.5560350000000  0.4710920000000 1.0
C      1  0.5259220000000  0.5565120000000  0.4841930000000 1.0
C      1  0.4759620000000  0.5546870000000  0.5462590000000 1.0
C      1  0.4399490000000  0.5500970000000  0.4908140000000 1.0
C      1  0.4907570000000  0.5526400000000  0.4422120000000 1.0
C      1  0.5557760000000  0.5522030000000  0.4680770000000 1.0
C      1  0.5424270000000  0.5532010000000  0.5368620000000 1.0
C      1  0.4719450000000  0.4508710000000  0.5571990000000 1.0
C      1  0.4431810000000  0.4474770000000  0.4924720000000 1.0
C      1  0.4883980000000  0.4475200000000  0.4427160000000 1.0
C      1  0.5484120000000  0.4416150000000  0.4740780000000 1.0
C      1  0.5411760000000  0.4534150000000  0.5411460000000 1.0
C      1  0.4232540000000  0.5660230000000  0.4443570000000 1.0
C      1  0.5315090000000  0.5690560000000  0.4152510000000 1.0
C      1  0.5941940000000  0.5661760000000  0.4975030000000 1.0
C      1  0.5275150000000  0.5619070000000  0.5907690000000 1.0
C      1  0.4222990000000  0.5674610000000  0.5577270000000 1.0
C      1  0.4232920000000  0.4324200000000  0.4433920000000 1.0
C      1  0.5307800000000  0.4383810000000  0.4110290000000 1.0
C      1  0.5978400000000  0.4326180000000  0.4942070000000 1.0
C      1  0.5317150000000  0.4305860000000  0.5875250000000 1.0
C      1  0.4249900000000  0.4340560000000  0.5560760000000 1.0
C      1  0.5272700000000  0.3932530000000  0.4985320000000 1.0
C      1  0.5088100000000  0.3929210000000  0.5218940000000 1.0
C      1  0.4805850000000  0.3937700000000  0.5124340000000 1.0
C      1  0.4815160000000  0.3936110000000  0.4826130000000 1.0
C      1  0.5101220000000  0.3937450000000  0.4740350000000 1.0
C      1  0.5247130000000  0.6065670000000  0.5035080000000 1.0
C      1  0.5061520000000  0.6055820000000  0.5267920000000 1.0
C      1  0.4782390000000  0.6062230000000  0.5162630000000 1.0
C      1  0.4793180000000  0.6066250000000  0.4865200000000 1.0
C      1  0.5080170000000  0.6078250000000  0.4789750000000 1.0
C      1  0.4709600000000  0.5382280000000  0.5700330000000 1.0
C      1  0.4118970000000  0.5267460000000  0.4912190000000 1.0
C      1  0.4818360000000  0.5336240000000  0.4213580000000 1.0
C      1  0.5739540000000  0.5242590000000  0.4535530000000 1.0
C      1  0.5631300000000  0.5361710000000  0.5510290000000 1.0
C      1  0.4648540000000  0.4770960000000  0.5815360000000 1.0
C      1  0.4193870000000  0.4652000000000  0.4935320000000 1.0
C      1  0.4807630000000  0.4709660000000  0.4161920000000 1.0
C      1  0.5650180000000  0.4605410000000  0.4583240000000 1.0
C      1  0.5650500000000  0.4751370000000  0.5571940000000 1.0
END
