TITL C-3623283-6828-1009 -7.50491722442179e-07 125000 -444.222255812056 0 0 71 (C1) n - 1
REM
REM in /home/nfs/bkarasulu/CARBON/AIRSS/Generating-Clusters/LCBOP/Higher-Symm/SD-CG/FIRE-CG
REM
REM
REM
REM
REM
REM ./C.cell (b20cbc046b6831c77cfcea5457e17084)
REM AIRSS Version 0.9.1 bugfix July 2018 build 013d7b7c2542+ Fri, 06 Jul 2018 19:26:36 +0100
REM compiler GCC version 9.2.1 20190827 (Red Hat 9.2.1-1)
REM options -cpp -mtune=generic -march=x86-64 -g -O0 -fpre-include=/usr/include/finclude/math-vector-fortran.h
REM seed -680864747 -1320505544 2123610633 88339269 -946672195 -1052591120 983475497 -2000352007 1213335876 1010526224 -452638283 -602683272 -1200961475 -597222707 1934224012 88736669 -943258432 1409014232 532216284 -1999537823 -443936356 -281981205 641590058 1772613702 -456937560 -614004134 -2129293592 -525435285 757664077 -481967351 -1112656244 1272523237 159310543
REM
CELL 1.54180   50.00000   50.00000   50.00000   90.00000   90.00000   90.00000
LATT -1
SFAC C  
C      1  0.5028480000000  0.4269930000000  0.5167950000000 1.0
C      1  0.5022500000000  0.5489350000000  0.5572390000000 1.0
C      1  0.5036900000000  0.5248020000000  0.4307140000000 1.0
C      1  0.4550850000000  0.5309560000000  0.4380210000000 1.0
C      1  0.4546410000000  0.4441300000000  0.5051510000000 1.0
C      1  0.4555240000000  0.5318140000000  0.5535320000000 1.0
C      1  0.5015730000000  0.4208590000000  0.5449660000000 1.0
C      1  0.4973140000000  0.5748540000000  0.5457950000000 1.0
C      1  0.4949420000000  0.5005990000000  0.4173690000000 1.0
C      1  0.5638840000000  0.4994060000000  0.4590110000000 1.0
C      1  0.5658110000000  0.4632710000000  0.5206660000000 1.0
C      1  0.5640950000000  0.5347910000000  0.5209540000000 1.0
C      1  0.4414400000000  0.5072970000000  0.5442110000000 1.0
C      1  0.4372710000000  0.5315010000000  0.4617900000000 1.0
C      1  0.4424630000000  0.4644720000000  0.4881690000000 1.0
C      1  0.5642750000000  0.5281650000000  0.4695970000000 1.0
C      1  0.5643370000000  0.4586830000000  0.4907000000000 1.0
C      1  0.5653040000000  0.5113120000000  0.5398950000000 1.0
C      1  0.5780420000000  0.4891050000000  0.5257330000000 1.0
C      1  0.5768370000000  0.5268050000000  0.4960560000000 1.0
C      1  0.5768600000000  0.4820850000000  0.4782950000000 1.0
C      1  0.4452390000000  0.4841420000000  0.5598120000000 1.0
C      1  0.4423060000000  0.5494250000000  0.4829890000000 1.0
C      1  0.4460510000000  0.4611830000000  0.4588100000000 1.0
C      1  0.4806420000000  0.5559860000000  0.5053650000000 1.0
C      1  0.4784990000000  0.4914790000000  0.4618340000000 1.0
C      1  0.4839720000000  0.4633680000000  0.5530740000000 1.0
C      1  0.4320250000000  0.4918660000000  0.4940970000000 1.0
C      1  0.4329660000000  0.5103390000000  0.5161500000000 1.0
C      1  0.4280720000000  0.5044860000000  0.4678310000000 1.0
C      1  0.4722890000000  0.4824290000000  0.5702600000000 1.0
C      1  0.4680850000000  0.5631510000000  0.4809890000000 1.0
C      1  0.4679010000000  0.4434880000000  0.4528240000000 1.0
C      1  0.5285150000000  0.4608140000000  0.5602630000000 1.0
C      1  0.5247820000000  0.5684180000000  0.5041990000000 1.0
C      1  0.5193610000000  0.4695740000000  0.4450020000000 1.0
C      1  0.4363660000000  0.4856400000000  0.4455970000000 1.0
C      1  0.4346610000000  0.4593500000000  0.5503790000000 1.0
C      1  0.4347820000000  0.5400880000000  0.5097700000000 1.0
C      1  0.4843310000000  0.5273710000000  0.5062450000000 1.0
C      1  0.4853580000000  0.5116980000000  0.4808590000000 1.0
C      1  0.4862760000000  0.4734090000000  0.5263630000000 1.0
C      1  0.5407150000000  0.5509410000000  0.5225280000000 1.0
C      1  0.5397080000000  0.4914000000000  0.4457130000000 1.0
C      1  0.5434220000000  0.4538590000000  0.5354340000000 1.0
C      1  0.4826970000000  0.5423250000000  0.4395200000000 1.0
C      1  0.4814150000000  0.4320020000000  0.4977600000000 1.0
C      1  0.4824360000000  0.5299210000000  0.5657990000000 1.0
C      1  0.4441260000000  0.5516540000000  0.5352850000000 1.0
C      1  0.4472730000000  0.5047050000000  0.4260730000000 1.0
C      1  0.4419210000000  0.4422430000000  0.5305830000000 1.0
C      1  0.5075710000000  0.5183030000000  0.5216060000000 1.0
C      1  0.5147090000000  0.5104380000000  0.4781770000000 1.0
C      1  0.5098950000000  0.4735060000000  0.5103280000000 1.0
C      1  0.4906360000000  0.4375580000000  0.4700960000000 1.0
C      1  0.4924930000000  0.5030300000000  0.5731670000000 1.0
C      1  0.4897490000000  0.5604670000000  0.4612120000000 1.0
C      1  0.5246080000000  0.4897900000000  0.5678530000000 1.0
C      1  0.5222730000000  0.5624690000000  0.4751470000000 1.0
C      1  0.5185470000000  0.4471700000000  0.4632270000000 1.0
C      1  0.5472090000000  0.5060020000000  0.5612430000000 1.0
C      1  0.5458890000000  0.5498010000000  0.4644330000000 1.0
C      1  0.5438900000000  0.4438050000000  0.4768560000000 1.0
C      1  0.5203710000000  0.5369630000000  0.5381020000000 1.0
C      1  0.5224230000000  0.5148350000000  0.4509290000000 1.0
C      1  0.5225260000000  0.4485880000000  0.5156720000000 1.0
C      1  0.5037560000000  0.4445680000000  0.5611380000000 1.0
C      1  0.4990470000000  0.5742900000000  0.5172060000000 1.0
C      1  0.4932920000000  0.4809420000000  0.4384220000000 1.0
C      1  0.5870640000000  0.4994620000000  0.4997520000000 1.0
C      1  0.5204860000000  0.4988530000000  0.5041660000000 1.0
END
