TITL C-3623288-6813-944 119577.192219051 125000 -934.943921863981 0 0 156 (C1) n - 1
REM
REM in /home/nfs/bkarasulu/CARBON/AIRSS/Generating-Clusters/LCBOP/Higher-Symm/SD-CG/FIRE-CG
REM
REM
REM
REM
REM
REM ./C.cell (b20cbc046b6831c77cfcea5457e17084)
REM AIRSS Version 0.9.1 bugfix July 2018 build 013d7b7c2542+ Fri, 06 Jul 2018 19:26:36 +0100
REM compiler GCC version 9.2.1 20190827 (Red Hat 9.2.1-1)
REM options -cpp -mtune=generic -march=x86-64 -g -O0 -fpre-include=/usr/include/finclude/math-vector-fortran.h
REM seed -2121365578 -1722083503 -1013707288 -678717521 995146059 -154619042 624897423 93835682 713831425 722092267 1890525030 1993001654 665015302 61430814 -495469386 -1586952504 583841624 -1368827388 1336872100 1564972168 511073321 1001855771 -1903349177 660770348 -476633670 952098716 -812999073 -1994009141 -1688487098 -2109965696 -1022424641 -1435567676 -1303751540
REM
CELL 1.54180   50.00000   50.00000   50.00000   90.00000   90.00000   90.00000
LATT -1
SFAC C  
C      1  0.5049610000000  0.4397690000000  0.4237970000000 1.0
C      1  0.4297340000000  0.4250510000000  0.4977120000000 1.0
C      1  0.4160630000000  0.4848930000000  0.4367430000000 1.0
C      1  0.4882510000000  0.5727390000000  0.4073290000000 1.0
C      1  0.4842550000000  0.5860450000000  0.5720230000000 1.0
C      1  0.5240660000000  0.4190190000000  0.5672680000000 1.0
C      1  0.5850420000000  0.5656730000000  0.4808730000000 1.0
C      1  0.4340530000000  0.5763370000000  0.5089760000000 1.0
C      1  0.5662690000000  0.4119050000000  0.5096800000000 1.0
C      1  0.5688290000000  0.5181430000000  0.4178050000000 1.0
C      1  0.4298010000000  0.5168580000000  0.5768850000000 1.0
C      1  0.5649860000000  0.4866750000000  0.5800170000000 1.0
C      1  0.5009140000000  0.4329560000000  0.5786290000000 1.0
C      1  0.4094630000000  0.4314740000000  0.5203160000000 1.0
C      1  0.4130560000000  0.4949380000000  0.5646440000000 1.0
C      1  0.5250870000000  0.5859420000000  0.5691450000000 1.0
C      1  0.4687540000000  0.5814050000000  0.4291680000000 1.0
C      1  0.5278050000000  0.4235930000000  0.4330250000000 1.0
C      1  0.5710050000000  0.5799750000000  0.5040240000000 1.0
C      1  0.4233630000000  0.5647000000000  0.4836480000000 1.0
C      1  0.5829660000000  0.4259880000000  0.4893330000000 1.0
C      1  0.5757920000000  0.5132550000000  0.5656920000000 1.0
C      1  0.4298880000000  0.5054980000000  0.4186120000000 1.0
C      1  0.5672200000000  0.4884620000000  0.4137770000000 1.0
C      1  0.5454290000000  0.5167000000000  0.3847500000000 1.0
C      1  0.5127730000000  0.3955710000000  0.5496800000000 1.0
C      1  0.3861060000000  0.5430480000000  0.5088280000000 1.0
C      1  0.4557060000000  0.4817420000000  0.3818910000000 1.0
C      1  0.5494840000000  0.4805840000000  0.6051350000000 1.0
C      1  0.4435510000000  0.5070260000000  0.6023670000000 1.0
C      1  0.4884160000000  0.6040530000000  0.5502950000000 1.0
C      1  0.5076230000000  0.6127190000000  0.4550070000000 1.0
C      1  0.4884190000000  0.3932420000000  0.4541050000000 1.0
C      1  0.6168350000000  0.4523320000000  0.5229810000000 1.0
C      1  0.3758750000000  0.4566610000000  0.4879260000000 1.0
C      1  0.6102770000000  0.5494590000000  0.4871370000000 1.0
C      1  0.5415790000000  0.5001220000000  0.6249580000000 1.0
C      1  0.5177360000000  0.3991120000000  0.4492110000000 1.0
C      1  0.3983080000000  0.5490540000000  0.4828360000000 1.0
C      1  0.4501030000000  0.4781610000000  0.6051720000000 1.0
C      1  0.5473010000000  0.4884070000000  0.3911390000000 1.0
C      1  0.4449710000000  0.5075160000000  0.3916680000000 1.0
C      1  0.4789540000000  0.6021190000000  0.4506990000000 1.0
C      1  0.5183250000000  0.6041400000000  0.5483400000000 1.0
C      1  0.4839340000000  0.3887430000000  0.5435870000000 1.0
C      1  0.6096760000000  0.4423820000000  0.4953430000000 1.0
C      1  0.3838890000000  0.4489340000000  0.5149130000000 1.0
C      1  0.6152250000000  0.5456590000000  0.5157580000000 1.0
C      1  0.3930960000000  0.4741330000000  0.5280870000000 1.0
C      1  0.4684530000000  0.5266580000000  0.3947910000000 1.0
C      1  0.5265180000000  0.4042410000000  0.4765010000000 1.0
C      1  0.5991740000000  0.5253020000000  0.5274950000000 1.0
C      1  0.4018680000000  0.5237780000000  0.4682910000000 1.0
C      1  0.6081480000000  0.4684770000000  0.4802570000000 1.0
C      1  0.5238850000000  0.4788810000000  0.4046100000000 1.0
C      1  0.4739090000000  0.4701510000000  0.5904640000000 1.0
C      1  0.5200730000000  0.5169500000000  0.6156790000000 1.0
C      1  0.4726010000000  0.5933970000000  0.4783250000000 1.0
C      1  0.5279030000000  0.5955860000000  0.5226950000000 1.0
C      1  0.4688960000000  0.4060850000000  0.5238270000000 1.0
C      1  0.3899490000000  0.4783960000000  0.4756620000000 1.0
C      1  0.4701470000000  0.5184020000000  0.6044480000000 1.0
C      1  0.5213020000000  0.4026180000000  0.5229000000000 1.0
C      1  0.6083230000000  0.5208660000000  0.4780720000000 1.0
C      1  0.3995750000000  0.5236450000000  0.5260100000000 1.0
C      1  0.6016120000000  0.4759020000000  0.5320820000000 1.0
C      1  0.5232660000000  0.4721600000000  0.5929830000000 1.0
C      1  0.4774600000000  0.4712930000000  0.3977660000000 1.0
C      1  0.5220860000000  0.5311900000000  0.3932160000000 1.0
C      1  0.4762550000000  0.5937370000000  0.5266610000000 1.0
C      1  0.5276700000000  0.5995530000000  0.4733720000000 1.0
C      1  0.4722140000000  0.4082480000000  0.4744040000000 1.0
C      1  0.5614830000000  0.5455620000000  0.5548180000000 1.0
C      1  0.5366220000000  0.5594150000000  0.5677840000000 1.0
C      1  0.5612600000000  0.5585260000000  0.5248370000000 1.0
C      1  0.4184140000000  0.4647290000000  0.5647310000000 1.0
C      1  0.5633230000000  0.4684560000000  0.4357240000000 1.0
C      1  0.4403270000000  0.5240870000000  0.4390680000000 1.0
C      1  0.4789310000000  0.4325810000000  0.5606690000000 1.0
C      1  0.5534650000000  0.4400110000000  0.4416140000000 1.0
C      1  0.4569030000000  0.5505050000000  0.4425920000000 1.0
C      1  0.4178840000000  0.4413000000000  0.5486630000000 1.0
C      1  0.5607920000000  0.4370720000000  0.4710050000000 1.0
C      1  0.4480360000000  0.5556650000000  0.4705550000000 1.0
C      1  0.5652330000000  0.5302290000000  0.4440560000000 1.0
C      1  0.5130100000000  0.5705280000000  0.4233670000000 1.0
C      1  0.5630620000000  0.5534670000000  0.4631340000000 1.0
C      1  0.4334610000000  0.4650330000000  0.4554780000000 1.0
C      1  0.5566710000000  0.4666740000000  0.5587990000000 1.0
C      1  0.4428250000000  0.5461220000000  0.5601810000000 1.0
C      1  0.4872980000000  0.4474130000000  0.4453200000000 1.0
C      1  0.5485720000000  0.4367840000000  0.5579160000000 1.0
C      1  0.4703480000000  0.5607130000000  0.5691910000000 1.0
C      1  0.4345140000000  0.4449040000000  0.4771180000000 1.0
C      1  0.5560640000000  0.4306690000000  0.5300540000000 1.0
C      1  0.4419430000000  0.5506600000000  0.5266990000000 1.0
C      1  0.5771030000000  0.4728060000000  0.5145600000000 1.0
C      1  0.4782100000000  0.5152660000000  0.5762600000000 1.0
C      1  0.5177720000000  0.5716170000000  0.4734490000000 1.0
C      1  0.4290560000000  0.5244120000000  0.5157910000000 1.0
C      1  0.5804350000000  0.5166580000000  0.4850190000000 1.0
C      1  0.4136480000000  0.4851630000000  0.4908730000000 1.0
C      1  0.5212450000000  0.4933830000000  0.5729110000000 1.0
C      1  0.4759830000000  0.4882650000000  0.4214840000000 1.0
C      1  0.5225320000000  0.5247630000000  0.4217790000000 1.0
C      1  0.4854800000000  0.4365960000000  0.4736080000000 1.0
C      1  0.5103210000000  0.4308570000000  0.5217870000000 1.0
C      1  0.4889950000000  0.5668220000000  0.5249040000000 1.0
C      1  0.5797560000000  0.4733740000000  0.4853590000000 1.0
C      1  0.4781120000000  0.5159300000000  0.4201250000000 1.0
C      1  0.5166110000000  0.5679090000000  0.5206250000000 1.0
C      1  0.4255030000000  0.5121970000000  0.4858810000000 1.0
C      1  0.5747090000000  0.5195260000000  0.5119800000000 1.0
C      1  0.4195050000000  0.4743830000000  0.5155640000000 1.0
C      1  0.5214970000000  0.4970850000000  0.4282570000000 1.0
C      1  0.4752180000000  0.4881710000000  0.5669040000000 1.0
C      1  0.5240700000000  0.5181240000000  0.5867380000000 1.0
C      1  0.4808030000000  0.4343150000000  0.5307610000000 1.0
C      1  0.5144100000000  0.4315920000000  0.4792780000000 1.0
C      1  0.4903300000000  0.5689870000000  0.4791070000000 1.0
C      1  0.4839100000000  0.5362640000000  0.4398060000000 1.0
C      1  0.5373540000000  0.4468090000000  0.4869500000000 1.0
C      1  0.4453720000000  0.4769930000000  0.5242880000000 1.0
C      1  0.5088190000000  0.4886000000000  0.4522150000000 1.0
C      1  0.4875390000000  0.4798630000000  0.5414690000000 1.0
C      1  0.5165410000000  0.5405980000000  0.5728430000000 1.0
C      1  0.4714730000000  0.5488920000000  0.4872150000000 1.0
C      1  0.5364230000000  0.5502400000000  0.5097070000000 1.0
C      1  0.4710740000000  0.4619560000000  0.5207070000000 1.0
C      1  0.5519670000000  0.5072120000000  0.5243120000000 1.0
C      1  0.4471000000000  0.5089460000000  0.4653550000000 1.0
C      1  0.5656200000000  0.4814650000000  0.4616590000000 1.0
C      1  0.4892330000000  0.5393350000000  0.5674180000000 1.0
C      1  0.5344890000000  0.4456560000000  0.5151520000000 1.0
C      1  0.4593150000000  0.4812370000000  0.4646980000000 1.0
C      1  0.5139330000000  0.4879500000000  0.5460690000000 1.0
C      1  0.4816620000000  0.4767920000000  0.4473510000000 1.0
C      1  0.5108680000000  0.5452990000000  0.4368100000000 1.0
C      1  0.4707210000000  0.5473830000000  0.5155530000000 1.0
C      1  0.5380900000000  0.5527610000000  0.4802390000000 1.0
C      1  0.4689110000000  0.4565710000000  0.4896330000000 1.0
C      1  0.5649930000000  0.5090950000000  0.4633270000000 1.0
C      1  0.4487440000000  0.5048010000000  0.5275970000000 1.0
C      1  0.5558740000000  0.4801570000000  0.5322580000000 1.0
C      1  0.4997180000000  0.4563320000000  0.5944470000000 1.0
C      1  0.4899830000000  0.5469170000000  0.3896160000000 1.0
C      1  0.4576430000000  0.5952430000000  0.5044700000000 1.0
C      1  0.5404000000000  0.3976680000000  0.5013350000000 1.0
C      1  0.5989420000000  0.5033580000000  0.5468010000000 1.0
C      1  0.4923650000000  0.5202750000000  0.6223800000000 1.0
C      1  0.5457360000000  0.5995330000000  0.4988450000000 1.0
C      1  0.3941800000000  0.5001890000000  0.5423920000000 1.0
C      1  0.6211690000000  0.4944790000000  0.4753180000000 1.0
C      1  0.3936490000000  0.4977030000000  0.4534510000000 1.0
C      1  0.5037620000000  0.4588450000000  0.4018610000000 1.0
C      1  0.4541840000000  0.4068570000000  0.4986340000000 1.0
END
