TITL C-3623284-6838-813 -346615.715846252 125000 -1133.5689249076 0 0 182 (C1) n - 1
REM
REM in /home/nfs/bkarasulu/CARBON/AIRSS/Generating-Clusters/LCBOP/Higher-Symm/SD-CG/FIRE-CG
REM
REM
REM
REM
REM
REM ./C.cell (b20cbc046b6831c77cfcea5457e17084)
REM AIRSS Version 0.9.1 bugfix July 2018 build 013d7b7c2542+ Fri, 06 Jul 2018 19:26:36 +0100
REM compiler GCC version 9.2.1 20190827 (Red Hat 9.2.1-1)
REM options -cpp -mtune=generic -march=x86-64 -g -O0 -fpre-include=/usr/include/finclude/math-vector-fortran.h
REM seed -1918972164 -1044644010 -1244922323 578368438 -655664783 1489735735 1625359782 -1575708446 -1009406422 -1476458759 1614339934 1361410720 -226325956 150127710 -1085656351 -2097513228 -1876383953 1979066976 752504800 -1496383618 1835665848 136971168 1777479146 -858803408 1048529641 -1472990517 -513162975 1620386044 -1262887187 1954973261 839871712 -647217534 -1695263286
REM
CELL 1.54180   50.00000   50.00000   50.00000   90.00000   90.00000   90.00000
LATT -1
SFAC C  
C      1  0.4796840000000  0.4267380000000  0.4940610000000 1.0
C      1  0.4946350000000  0.4998470000000  0.4097400000000 1.0
C      1  0.4946130000000  0.5508740000000  0.4681670000000 1.0
C      1  0.4807040000000  0.5520640000000  0.5788500000000 1.0
C      1  0.4860480000000  0.4758710000000  0.5565080000000 1.0
C      1  0.5201850000000  0.4856310000000  0.4711830000000 1.0
C      1  0.5225970000000  0.5134940000000  0.4747730000000 1.0
C      1  0.5184780000000  0.5209400000000  0.5023710000000 1.0
C      1  0.5061480000000  0.4970010000000  0.5140270000000 1.0
C      1  0.5174870000000  0.4744950000000  0.4999170000000 1.0
C      1  0.4975740000000  0.4115850000000  0.5903360000000 1.0
C      1  0.4941030000000  0.3858180000000  0.4411550000000 1.0
C      1  0.4909990000000  0.5258580000000  0.3664820000000 1.0
C      1  0.4987830000000  0.6238750000000  0.4838760000000 1.0
C      1  0.5013350000000  0.5560070000000  0.6398060000000 1.0
C      1  0.4039070000000  0.4973310000000  0.5810370000000 1.0
C      1  0.4065680000000  0.4253010000000  0.5233980000000 1.0
C      1  0.4083720000000  0.4603030000000  0.4371320000000 1.0
C      1  0.4071400000000  0.5480250000000  0.4423680000000 1.0
C      1  0.4199260000000  0.5630140000000  0.5373390000000 1.0
C      1  0.6013750000000  0.4842340000000  0.5193040000000 1.0
C      1  0.6019220000000  0.4761100000000  0.4897510000000 1.0
C      1  0.6011050000000  0.5012420000000  0.4724380000000 1.0
C      1  0.6013110000000  0.5249040000000  0.4916550000000 1.0
C      1  0.6015140000000  0.5142420000000  0.5205420000000 1.0
C      1  0.4693740000000  0.4870600000000  0.4045600000000 1.0
C      1  0.4561110000000  0.5919060000000  0.4506550000000 1.0
C      1  0.4593580000000  0.5673910000000  0.5678070000000 1.0
C      1  0.4528890000000  0.4578160000000  0.5965440000000 1.0
C      1  0.4606840000000  0.4051070000000  0.4892280000000 1.0
C      1  0.5460490000000  0.4788140000000  0.4583270000000 1.0
C      1  0.5408660000000  0.5277590000000  0.4604130000000 1.0
C      1  0.5463040000000  0.5267050000000  0.5116950000000 1.0
C      1  0.5195280000000  0.4961270000000  0.5407200000000 1.0
C      1  0.5464310000000  0.4681040000000  0.5062780000000 1.0
C      1  0.5617940000000  0.4195860000000  0.4959340000000 1.0
C      1  0.5636400000000  0.4764270000000  0.4144610000000 1.0
C      1  0.5612300000000  0.5704050000000  0.4526040000000 1.0
C      1  0.5562560000000  0.5582650000000  0.5507760000000 1.0
C      1  0.5532930000000  0.4745570000000  0.5743550000000 1.0
C      1  0.4968790000000  0.5114590000000  0.6270240000000 1.0
C      1  0.4981240000000  0.3876900000000  0.5498480000000 1.0
C      1  0.4978400000000  0.4182610000000  0.4070580000000 1.0
C      1  0.4944400000000  0.5661010000000  0.3906980000000 1.0
C      1  0.4974020000000  0.6200740000000  0.5303490000000 1.0
C      1  0.5353320000000  0.5091450000000  0.5937260000000 1.0
C      1  0.5397580000000  0.4144270000000  0.5335020000000 1.0
C      1  0.5387050000000  0.4386430000000  0.4215520000000 1.0
C      1  0.5417680000000  0.5567810000000  0.4148510000000 1.0
C      1  0.5343410000000  0.5854320000000  0.5242350000000 1.0
C      1  0.3935470000000  0.4733260000000  0.4562020000000 1.0
C      1  0.3936570000000  0.5353840000000  0.4626710000000 1.0
C      1  0.3989090000000  0.5465800000000  0.5261480000000 1.0
C      1  0.3912490000000  0.4941340000000  0.5568180000000 1.0
C      1  0.3927910000000  0.4472270000000  0.5145470000000 1.0
C      1  0.4708940000000  0.4589420000000  0.4006560000000 1.0
C      1  0.4650080000000  0.5843620000000  0.4252150000000 1.0
C      1  0.4669890000000  0.5926390000000  0.5566480000000 1.0
C      1  0.4629070000000  0.4806090000000  0.6102790000000 1.0
C      1  0.4656760000000  0.3882700000000  0.5122710000000 1.0
C      1  0.5915710000000  0.4678290000000  0.5425420000000 1.0
C      1  0.5962160000000  0.4482940000000  0.4815310000000 1.0
C      1  0.5951740000000  0.5013300000000  0.4428690000000 1.0
C      1  0.5948190000000  0.5529130000000  0.4836480000000 1.0
C      1  0.5928960000000  0.5295920000000  0.5446550000000 1.0
C      1  0.4301740000000  0.4170350000000  0.5375720000000 1.0
C      1  0.4321180000000  0.4447650000000  0.4323980000000 1.0
C      1  0.4293050000000  0.5469830000000  0.4238490000000 1.0
C      1  0.4346370000000  0.5824120000000  0.5214450000000 1.0
C      1  0.4275380000000  0.5117740000000  0.5904110000000 1.0
C      1  0.5140900000000  0.5858450000000  0.4352010000000 1.0
C      1  0.5149050000000  0.5869340000000  0.5672170000000 1.0
C      1  0.5104990000000  0.4703910000000  0.6007630000000 1.0
C      1  0.5159300000000  0.3950660000000  0.5010040000000 1.0
C      1  0.5205650000000  0.4635750000000  0.3895930000000 1.0
C      1  0.4742890000000  0.5022700000000  0.5587960000000 1.0
C      1  0.4764600000000  0.4451470000000  0.5150020000000 1.0
C      1  0.4778130000000  0.4738630000000  0.4722560000000 1.0
C      1  0.4820450000000  0.5301850000000  0.4500750000000 1.0
C      1  0.4754530000000  0.5310150000000  0.5036510000000 1.0
C      1  0.5502050000000  0.4443660000000  0.4881870000000 1.0
C      1  0.5491510000000  0.4918680000000  0.4334090000000 1.0
C      1  0.5483700000000  0.5523890000000  0.4701770000000 1.0
C      1  0.5441210000000  0.5347060000000  0.5402220000000 1.0
C      1  0.5376300000000  0.4769490000000  0.5509390000000 1.0
C      1  0.4479830000000  0.5656080000000  0.4108450000000 1.0
C      1  0.4517670000000  0.6016540000000  0.5339150000000 1.0
C      1  0.4489330000000  0.5069330000000  0.6105690000000 1.0
C      1  0.4500650000000  0.3954720000000  0.5363690000000 1.0
C      1  0.4525270000000  0.4395920000000  0.4123020000000 1.0
C      1  0.4442700000000  0.4374040000000  0.4575250000000 1.0
C      1  0.4416100000000  0.5208900000000  0.4247520000000 1.0
C      1  0.4457440000000  0.5721400000000  0.4967720000000 1.0
C      1  0.4350720000000  0.5266110000000  0.5666900000000 1.0
C      1  0.4430210000000  0.4406810000000  0.5495390000000 1.0
C      1  0.4379100000000  0.5058150000000  0.4738860000000 1.0
C      1  0.4334970000000  0.5215280000000  0.4985350000000 1.0
C      1  0.4373480000000  0.5039690000000  0.5226990000000 1.0
C      1  0.4384880000000  0.4767600000000  0.5134380000000 1.0
C      1  0.4362530000000  0.4780370000000  0.4843500000000 1.0
C      1  0.5166710000000  0.6262270000000  0.5072650000000 1.0
C      1  0.5188810000000  0.5334860000000  0.6321150000000 1.0
C      1  0.5169400000000  0.3978000000000  0.5726070000000 1.0
C      1  0.5150950000000  0.3980390000000  0.4240260000000 1.0
C      1  0.5126430000000  0.5452960000000  0.3751280000000 1.0
C      1  0.5833800000000  0.5727580000000  0.5103200000000 1.0
C      1  0.5814990000000  0.5145170000000  0.5709540000000 1.0
C      1  0.5851500000000  0.4372610000000  0.5361650000000 1.0
C      1  0.5855480000000  0.4432420000000  0.4480660000000 1.0
C      1  0.5854650000000  0.5323080000000  0.4277760000000 1.0
C      1  0.3867800000000  0.4966880000000  0.5285220000000 1.0
C      1  0.3867640000000  0.4746140000000  0.5082600000000 1.0
C      1  0.3869630000000  0.4869760000000  0.4807760000000 1.0
C      1  0.3873600000000  0.5169980000000  0.4840690000000 1.0
C      1  0.3883180000000  0.5227970000000  0.5137520000000 1.0
C      1  0.4869740000000  0.5240470000000  0.5753160000000 1.0
C      1  0.4999760000000  0.4511850000000  0.5272760000000 1.0
C      1  0.5010620000000  0.4667870000000  0.4571090000000 1.0
C      1  0.4977790000000  0.5234650000000  0.4257350000000 1.0
C      1  0.5007890000000  0.5453470000000  0.4983070000000 1.0
C      1  0.4524630000000  0.4557980000000  0.5266610000000 1.0
C      1  0.4533840000000  0.4603200000000  0.4710790000000 1.0
C      1  0.4544650000000  0.5170220000000  0.4510220000000 1.0
C      1  0.4507640000000  0.5441070000000  0.4987470000000 1.0
C      1  0.4489380000000  0.5101310000000  0.5479100000000 1.0
C      1  0.4707190000000  0.4146280000000  0.5796230000000 1.0
C      1  0.4680970000000  0.3989120000000  0.4404790000000 1.0
C      1  0.4647030000000  0.5283870000000  0.3805480000000 1.0
C      1  0.4722610000000  0.6137350000000  0.4899700000000 1.0
C      1  0.4742070000000  0.5510940000000  0.6356200000000 1.0
C      1  0.5366440000000  0.4811170000000  0.5966290000000 1.0
C      1  0.5429470000000  0.4017400000000  0.5084980000000 1.0
C      1  0.5456240000000  0.4575850000000  0.4021500000000 1.0
C      1  0.5423460000000  0.5789660000000  0.4320370000000 1.0
C      1  0.5375610000000  0.5799140000000  0.5518630000000 1.0
C      1  0.5217210000000  0.4455660000000  0.4447960000000 1.0
C      1  0.5234270000000  0.5351230000000  0.4213770000000 1.0
C      1  0.5221710000000  0.5664430000000  0.5073150000000 1.0
C      1  0.5151780000000  0.5206550000000  0.5783480000000 1.0
C      1  0.5232010000000  0.4372210000000  0.5337970000000 1.0
C      1  0.5036810000000  0.5760310000000  0.4594330000000 1.0
C      1  0.5035180000000  0.5684110000000  0.5852490000000 1.0
C      1  0.4981310000000  0.4621360000000  0.5767980000000 1.0
C      1  0.5045340000000  0.4161090000000  0.4854970000000 1.0
C      1  0.5142000000000  0.4907830000000  0.3916380000000 1.0
C      1  0.4529590000000  0.4100030000000  0.4622100000000 1.0
C      1  0.4525320000000  0.5097070000000  0.4000940000000 1.0
C      1  0.4569780000000  0.5923140000000  0.4786380000000 1.0
C      1  0.4350120000000  0.5540620000000  0.5604890000000 1.0
C      1  0.4540210000000  0.4378950000000  0.5762910000000 1.0
C      1  0.5879010000000  0.5571930000000  0.4525740000000 1.0
C      1  0.5829710000000  0.5574710000000  0.5380780000000 1.0
C      1  0.5798400000000  0.4840310000000  0.5661900000000 1.0
C      1  0.5878600000000  0.4299200000000  0.5055570000000 1.0
C      1  0.5884400000000  0.4725950000000  0.4305510000000 1.0
C      1  0.5471220000000  0.5532800000000  0.4973780000000 1.0
C      1  0.5240740000000  0.5208710000000  0.5522680000000 1.0
C      1  0.5428650000000  0.4577440000000  0.5328250000000 1.0
C      1  0.5445750000000  0.4508760000000  0.4627630000000 1.0
C      1  0.5418650000000  0.5179140000000  0.4345600000000 1.0
C      1  0.4696590000000  0.6177380000000  0.5182400000000 1.0
C      1  0.4685970000000  0.5245790000000  0.6251970000000 1.0
C      1  0.4696320000000  0.3949990000000  0.5582000000000 1.0
C      1  0.4688510000000  0.4152860000000  0.4164130000000 1.0
C      1  0.4653070000000  0.5559580000000  0.3892980000000 1.0
C      1  0.5463240000000  0.4037060000000  0.5751520000000 1.0
C      1  0.5446600000000  0.3965830000000  0.4317680000000 1.0
C      1  0.5447960000000  0.5375350000000  0.3757330000000 1.0
C      1  0.5457510000000  0.6227450000000  0.5039160000000 1.0
C      1  0.5483890000000  0.5382290000000  0.6232550000000 1.0
C      1  0.5608200000000  0.4160190000000  0.5526460000000 1.0
C      1  0.5599900000000  0.4218840000000  0.4326490000000 1.0
C      1  0.5621390000000  0.5425520000000  0.4004780000000 1.0
C      1  0.5578560000000  0.5974110000000  0.5113440000000 1.0
C      1  0.5587170000000  0.5244950000000  0.5986810000000 1.0
C      1  0.4948920000000  0.6032020000000  0.5544360000000 1.0
C      1  0.4917540000000  0.4841360000000  0.6175620000000 1.0
C      1  0.4956260000000  0.3845590000000  0.5201320000000 1.0
C      1  0.4977880000000  0.4458080000000  0.3951630000000 1.0
C      1  0.4934360000000  0.5837840000000  0.4146690000000 1.0
C      1  0.5582110000000  0.4978720000000  0.5070850000000 1.0
C      1  0.4797570000000  0.4997490000000  0.4985310000000 1.0
END
