TITL C-3623288-6813-1587 -3.46020332486407e-07 125000 -215.329637030996 0 0 37 (C1) n - 1
REM
REM in /home/nfs/bkarasulu/CARBON/AIRSS/Generating-Clusters/LCBOP/Higher-Symm/SD-CG/FIRE-CG
REM
REM
REM
REM
REM
REM ./C.cell (b20cbc046b6831c77cfcea5457e17084)
REM AIRSS Version 0.9.1 bugfix July 2018 build 013d7b7c2542+ Fri, 06 Jul 2018 19:26:36 +0100
REM compiler GCC version 9.2.1 20190827 (Red Hat 9.2.1-1)
REM options -cpp -mtune=generic -march=x86-64 -g -O0 -fpre-include=/usr/include/finclude/math-vector-fortran.h
REM seed 1989705214 1073236641 230686572 1805479948 931511374 -956490941 -1108583816 1987380008 -397838210 667560938 1710681553 -1558931996 -442820699 -598959184 1787178650 -1804186023 -803986951 1206027995 -2030487467 -1108109861 106432736 -1033645361 1205085203 -1268456710 -1327477569 228751553 484209806 -275605474 1392708961 1867613963 2134119820 -155668050 109475621
REM
CELL 1.54180   50.00000   50.00000   50.00000   90.00000   90.00000   90.00000
LATT -1
SFAC C  
C      1  0.4895670000000  0.5141280000000  0.5606910000000 1.0
C      1  0.4737490000000  0.5548890000000  0.4532510000000 1.0
C      1  0.4670800000000  0.4386750000000  0.4797890000000 1.0
C      1  0.5048930000000  0.4894320000000  0.5665000000000 1.0
C      1  0.4813300000000  0.4413470000000  0.4568020000000 1.0
C      1  0.4949080000000  0.5611800000000  0.4713720000000 1.0
C      1  0.5234870000000  0.4572260000000  0.4981530000000 1.0
C      1  0.5085000000000  0.5282700000000  0.5434170000000 1.0
C      1  0.5273240000000  0.5208820000000  0.4687060000000 1.0
C      1  0.4983550000000  0.5798130000000  0.4928020000000 1.0
C      1  0.5252470000000  0.4735010000000  0.5520840000000 1.0
C      1  0.4986620000000  0.4558290000000  0.4416750000000 1.0
C      1  0.5588260000000  0.4881950000000  0.4853940000000 1.0
C      1  0.5455740000000  0.4846570000000  0.5332020000000 1.0
C      1  0.5568050000000  0.5272330000000  0.5103330000000 1.0
C      1  0.5508730000000  0.5157990000000  0.4846620000000 1.0
C      1  0.5561390000000  0.5114170000000  0.5329200000000 1.0
C      1  0.5468810000000  0.4723650000000  0.5057700000000 1.0
C      1  0.4616890000000  0.4481330000000  0.5047430000000 1.0
C      1  0.4643390000000  0.5184700000000  0.5444240000000 1.0
C      1  0.4623580000000  0.5299730000000  0.4513480000000 1.0
C      1  0.4634460000000  0.5246180000000  0.5149190000000 1.0
C      1  0.4706320000000  0.4671840000000  0.5224100000000 1.0
C      1  0.4605030000000  0.5076010000000  0.4692610000000 1.0
C      1  0.5057350000000  0.5360980000000  0.4800550000000 1.0
C      1  0.5012690000000  0.4747930000000  0.4900490000000 1.0
C      1  0.5057480000000  0.5107350000000  0.5202630000000 1.0
C      1  0.4815260000000  0.4876730000000  0.4720480000000 1.0
C      1  0.4907490000000  0.5271470000000  0.5024940000000 1.0
C      1  0.4928860000000  0.4846860000000  0.5167840000000 1.0
C      1  0.5176910000000  0.4379140000000  0.5187780000000 1.0
C      1  0.5106690000000  0.5561060000000  0.5378080000000 1.0
C      1  0.5223220000000  0.5024390000000  0.4471790000000 1.0
C      1  0.5056050000000  0.5749210000000  0.5187640000000 1.0
C      1  0.5188090000000  0.4462220000000  0.5450190000000 1.0
C      1  0.5134260000000  0.4783870000000  0.4382690000000 1.0
C      1  0.4469580000000  0.5139760000000  0.4940820000000 1.0
END
