TITL C-3623283-6828-2068 0.121194544881731 125000 -285.448882280855 0 0 50 (C1) n - 1
REM
REM in /home/nfs/bkarasulu/CARBON/AIRSS/Generating-Clusters/LCBOP/Higher-Symm/SD-CG/FIRE-CG
REM
REM
REM
REM
REM
REM ./C.cell (b20cbc046b6831c77cfcea5457e17084)
REM AIRSS Version 0.9.1 bugfix July 2018 build 013d7b7c2542+ Fri, 06 Jul 2018 19:26:36 +0100
REM compiler GCC version 9.2.1 20190827 (Red Hat 9.2.1-1)
REM options -cpp -mtune=generic -march=x86-64 -g -O0 -fpre-include=/usr/include/finclude/math-vector-fortran.h
REM seed -1889975805 -164214323 1518892673 -1346277030 -1700023546 835463591 1438314999 -526037129 512301242 -1769510495 -1882352488 1054870474 -837225455 1327491921 2102708913 2141768093 -1902792297 -447002374 2022780929 -1186966019 -708075150 -921311742 -1551028635 389464444 -838677143 2084014526 286225465 -1629579173 -412723042 -1938174200 -1303963578 1102383820 1413240665
REM
CELL 1.54180   50.00000   50.00000   50.00000   90.00000   90.00000   90.00000
LATT -1
SFAC C  
C      1  0.4799420000000  0.4771630000000  0.4524930000000 1.0
C      1  0.4580190000000  0.4377450000000  0.4369470000000 1.0
C      1  0.4575820000000  0.4759050000000  0.4083110000000 1.0
C      1  0.5453400000000  0.4642530000000  0.6079440000000 1.0
C      1  0.5950890000000  0.5463860000000  0.5200180000000 1.0
C      1  0.4492000000000  0.5609630000000  0.5764570000000 1.0
C      1  0.5609450000000  0.4859590000000  0.5672910000000 1.0
C      1  0.6006960000000  0.5058000000000  0.5447470000000 1.0
C      1  0.4771930000000  0.5528690000000  0.5381200000000 1.0
C      1  0.5267950000000  0.5074980000000  0.5967320000000 1.0
C      1  0.6323670000000  0.5170720000000  0.5097600000000 1.0
C      1  0.4929030000000  0.5422510000000  0.5840960000000 1.0
C      1  0.3745340000000  0.4319180000000  0.4020590000000 1.0
C      1  0.4114250000000  0.4282220000000  0.4330340000000 1.0
C      1  0.4136990000000  0.4596810000000  0.3967390000000 1.0
C      1  0.5667690000000  0.5665640000000  0.5533800000000 1.0
C      1  0.4547080000000  0.5282630000000  0.3425780000000 1.0
C      1  0.4636130000000  0.4624600000000  0.4954350000000 1.0
C      1  0.5793860000000  0.5291900000000  0.5805580000000 1.0
C      1  0.4114180000000  0.5118450000000  0.3315130000000 1.0
C      1  0.4337830000000  0.4294490000000  0.4772100000000 1.0
C      1  0.5396150000000  0.5533480000000  0.5923440000000 1.0
C      1  0.4345450000000  0.4942500000000  0.3695290000000 1.0
C      1  0.4368090000000  0.4353270000000  0.5250710000000 1.0
C      1  0.4887350000000  0.5244980000000  0.4990730000000 1.0
C      1  0.5472820000000  0.5492960000000  0.5116020000000 1.0
C      1  0.5284090000000  0.4839710000000  0.5291330000000 1.0
C      1  0.5242020000000  0.4904870000000  0.5013710000000 1.0
C      1  0.5224530000000  0.5463800000000  0.5251730000000 1.0
C      1  0.5515890000000  0.5308520000000  0.4904400000000 1.0
C      1  0.5148570000000  0.5022860000000  0.5460150000000 1.0
C      1  0.5510230000000  0.4739420000000  0.5430930000000 1.0
C      1  0.4973100000000  0.4978810000000  0.4933210000000 1.0
C      1  0.4947290000000  0.5458120000000  0.5169190000000 1.0
C      1  0.5446370000000  0.5048570000000  0.4879410000000 1.0
C      1  0.5229310000000  0.5280080000000  0.5468510000000 1.0
C      1  0.4730300000000  0.5520560000000  0.5662570000000 1.0
C      1  0.4335470000000  0.5116410000000  0.3476360000000 1.0
C      1  0.5442300000000  0.4857160000000  0.5909310000000 1.0
C      1  0.6101140000000  0.5229090000000  0.5243930000000 1.0
C      1  0.4678010000000  0.4635680000000  0.4312580000000 1.0
C      1  0.5637470000000  0.5526340000000  0.5777920000000 1.0
C      1  0.4445560000000  0.4422550000000  0.4998270000000 1.0
C      1  0.3993130000000  0.4397610000000  0.4104140000000 1.0
C      1  0.5183780000000  0.5345520000000  0.5938590000000 1.0
C      1  0.4352620000000  0.4768360000000  0.3912450000000 1.0
C      1  0.5701480000000  0.5578520000000  0.5266360000000 1.0
C      1  0.5821080000000  0.5051650000000  0.5658210000000 1.0
C      1  0.4804060000000  0.4793230000000  0.4805110000000 1.0
C      1  0.4342340000000  0.4289060000000  0.4492340000000 1.0
END
