TITL C-3623283-6828-155 1.09709235760928e-06 125000 -629.806854984615 0 0 104 (C1) n - 1
REM
REM in /home/nfs/bkarasulu/CARBON/AIRSS/Generating-Clusters/LCBOP/Higher-Symm/SD-CG/FIRE-CG
REM
REM
REM
REM
REM
REM ./C.cell (b20cbc046b6831c77cfcea5457e17084)
REM AIRSS Version 0.9.1 bugfix July 2018 build 013d7b7c2542+ Fri, 06 Jul 2018 19:26:36 +0100
REM compiler GCC version 9.2.1 20190827 (Red Hat 9.2.1-1)
REM options -cpp -mtune=generic -march=x86-64 -g -O0 -fpre-include=/usr/include/finclude/math-vector-fortran.h
REM seed -1335031513 -423690648 285993659 1317544276 1548238640 1499168136 -526913735 484615219 760489819 450200888 -2027655345 88891548 1342873352 -969608047 693602680 -1664511975 1731944053 -1099937285 221335911 452086050 1154049593 -1729251427 1070960380 -957469577 -218687312 -522535994 -1271498430 42521955 858302825 -337040061 -2067431125 -872584865 -215966876
REM
CELL 1.54180   50.00000   50.00000   50.00000   90.00000   90.00000   90.00000
LATT -1
SFAC C  
C      1  0.4485750000000  0.5460240000000  0.4550130000000 1.0
C      1  0.4838200000000  0.4447660000000  0.4564790000000 1.0
C      1  0.5635250000000  0.5154490000000  0.4594510000000 1.0
C      1  0.5718400000000  0.5392370000000  0.4723380000000 1.0
C      1  0.4270270000000  0.5410140000000  0.4721970000000 1.0
C      1  0.4998930000000  0.4262630000000  0.4716840000000 1.0
C      1  0.4929700000000  0.4159610000000  0.5190240000000 1.0
C      1  0.5782330000000  0.5367850000000  0.5200510000000 1.0
C      1  0.4291060000000  0.5487560000000  0.5201020000000 1.0
C      1  0.4517770000000  0.5374560000000  0.4269010000000 1.0
C      1  0.4888080000000  0.4477640000000  0.4272250000000 1.0
C      1  0.5519730000000  0.5155220000000  0.4324350000000 1.0
C      1  0.4659870000000  0.4940760000000  0.4736230000000 1.0
C      1  0.5361830000000  0.4790950000000  0.4888090000000 1.0
C      1  0.5102380000000  0.5252560000000  0.4714350000000 1.0
C      1  0.5177560000000  0.4065110000000  0.5290690000000 1.0
C      1  0.5728840000000  0.5624860000000  0.5306990000000 1.0
C      1  0.4095870000000  0.5317640000000  0.5317050000000 1.0
C      1  0.4298350000000  0.4820310000000  0.5660510000000 1.0
C      1  0.5518250000000  0.4485060000000  0.5654020000000 1.0
C      1  0.5198430000000  0.5705410000000  0.5639040000000 1.0
C      1  0.4307640000000  0.3754970000000  0.5085780000000 1.0
C      1  0.6461280000000  0.5053680000000  0.5161350000000 1.0
C      1  0.4249780000000  0.6239410000000  0.5137200000000 1.0
C      1  0.5332110000000  0.5351950000000  0.4219550000000 1.0
C      1  0.4414850000000  0.5130170000000  0.4133730000000 1.0
C      1  0.5161040000000  0.4461320000000  0.4181870000000 1.0
C      1  0.4794870000000  0.5301320000000  0.4289400000000 1.0
C      1  0.4774960000000  0.4735220000000  0.4200590000000 1.0
C      1  0.5384200000000  0.4899730000000  0.4322730000000 1.0
C      1  0.5277550000000  0.4199600000000  0.4667350000000 1.0
C      1  0.5608270000000  0.5650540000000  0.4666250000000 1.0
C      1  0.4093990000000  0.5184850000000  0.4690110000000 1.0
C      1  0.6175620000000  0.5360480000000  0.4904470000000 1.0
C      1  0.4101660000000  0.5832400000000  0.4905790000000 1.0
C      1  0.4717900000000  0.3880470000000  0.4845920000000 1.0
C      1  0.4227740000000  0.5585480000000  0.4941340000000 1.0
C      1  0.4871030000000  0.4103580000000  0.4916790000000 1.0
C      1  0.5898850000000  0.5366600000000  0.4940830000000 1.0
C      1  0.5057930000000  0.5378210000000  0.4204040000000 1.0
C      1  0.4540960000000  0.4880020000000  0.4101340000000 1.0
C      1  0.5361270000000  0.4647590000000  0.4197310000000 1.0
C      1  0.6404040000000  0.5249470000000  0.4987360000000 1.0
C      1  0.4094910000000  0.6089520000000  0.4977680000000 1.0
C      1  0.4505320000000  0.3730350000000  0.4906180000000 1.0
C      1  0.5365670000000  0.4715390000000  0.5700020000000 1.0
C      1  0.5074510000000  0.5458000000000  0.5673380000000 1.0
C      1  0.4575650000000  0.4834630000000  0.5690210000000 1.0
C      1  0.5533150000000  0.5807010000000  0.5324460000000 1.0
C      1  0.4036960000000  0.5058300000000  0.5348880000000 1.0
C      1  0.5429590000000  0.4145230000000  0.5334660000000 1.0
C      1  0.4752260000000  0.5086950000000  0.4497830000000 1.0
C      1  0.4924720000000  0.4896470000000  0.4383840000000 1.0
C      1  0.5167560000000  0.4965830000000  0.4496040000000 1.0
C      1  0.5052180000000  0.5764370000000  0.5185180000000 1.0
C      1  0.4303940000000  0.4657260000000  0.5207520000000 1.0
C      1  0.5678500000000  0.4560040000000  0.5203490000000 1.0
C      1  0.4767000000000  0.5725130000000  0.5250410000000 1.0
C      1  0.4488410000000  0.4435610000000  0.5270000000000 1.0
C      1  0.5768750000000  0.4834710000000  0.5269720000000 1.0
C      1  0.5331430000000  0.4009690000000  0.4475070000000 1.0
C      1  0.5723770000000  0.5804550000000  0.4471010000000 1.0
C      1  0.3884740000000  0.5207020000000  0.4513660000000 1.0
C      1  0.5622770000000  0.5132010000000  0.5315900000000 1.0
C      1  0.4574810000000  0.5466840000000  0.5314580000000 1.0
C      1  0.4810410000000  0.4402690000000  0.5331700000000 1.0
C      1  0.4346790000000  0.4194120000000  0.5320340000000 1.0
C      1  0.6043730000000  0.4840600000000  0.5339310000000 1.0
C      1  0.4637860000000  0.5971760000000  0.5306790000000 1.0
C      1  0.4253960000000  0.3952060000000  0.5259020000000 1.0
C      1  0.6302420000000  0.4893720000000  0.5305640000000 1.0
C      1  0.4472290000000  0.6177280000000  0.5272400000000 1.0
C      1  0.4714780000000  0.5032250000000  0.5011030000000 1.0
C      1  0.5132650000000  0.4739120000000  0.5058880000000 1.0
C      1  0.5168840000000  0.5203500000000  0.4994820000000 1.0
C      1  0.4233870000000  0.4702640000000  0.4933810000000 1.0
C      1  0.5692580000000  0.4475070000000  0.4926350000000 1.0
C      1  0.5126120000000  0.5781530000000  0.4910230000000 1.0
C      1  0.5621990000000  0.5131630000000  0.5628520000000 1.0
C      1  0.4582700000000  0.5480130000000  0.5625260000000 1.0
C      1  0.4794410000000  0.4391870000000  0.5641540000000 1.0
C      1  0.4644520000000  0.4640670000000  0.4685670000000 1.0
C      1  0.5597180000000  0.4903880000000  0.4744320000000 1.0
C      1  0.4819860000000  0.5479700000000  0.4683300000000 1.0
C      1  0.5149340000000  0.5241750000000  0.5498630000000 1.0
C      1  0.4720340000000  0.5008360000000  0.5511440000000 1.0
C      1  0.5133900000000  0.4752760000000  0.5537560000000 1.0
C      1  0.5320230000000  0.5225030000000  0.5252520000000 1.0
C      1  0.4637550000000  0.5157990000000  0.5265930000000 1.0
C      1  0.5053860000000  0.4605100000000  0.5298570000000 1.0
C      1  0.4701610000000  0.4599970000000  0.5788540000000 1.0
C      1  0.5504790000000  0.4946270000000  0.5786110000000 1.0
C      1  0.4808960000000  0.5464220000000  0.5772510000000 1.0
C      1  0.5498230000000  0.4298180000000  0.4816750000000 1.0
C      1  0.5387680000000  0.5752080000000  0.4810280000000 1.0
C      1  0.4123270000000  0.4944030000000  0.4836080000000 1.0
C      1  0.5573760000000  0.4378230000000  0.5399560000000 1.0
C      1  0.5258290000000  0.5801310000000  0.5382270000000 1.0
C      1  0.4178650000000  0.4822620000000  0.5406730000000 1.0
C      1  0.4383830000000  0.4548350000000  0.4750470000000 1.0
C      1  0.5782470000000  0.4685340000000  0.4753300000000 1.0
C      1  0.4913490000000  0.5732800000000  0.4733560000000 1.0
C      1  0.5003020000000  0.5003490000000  0.5550610000000 1.0
C      1  0.4992100000000  0.4981570000000  0.5042620000000 1.0
END
