TITL C-3623285-6872-142 -1.2239469326984e-06 125000 -919.255874504412 0 0 150 (C1) n - 1
REM
REM in /home/nfs/bkarasulu/CARBON/AIRSS/Generating-Clusters/LCBOP/Higher-Symm/SD-CG/FIRE-CG
REM
REM
REM
REM
REM
REM ./C.cell (b20cbc046b6831c77cfcea5457e17084)
REM AIRSS Version 0.9.1 bugfix July 2018 build 013d7b7c2542+ Fri, 06 Jul 2018 19:26:36 +0100
REM compiler GCC version 9.2.1 20190827 (Red Hat 9.2.1-1)
REM options -cpp -mtune=generic -march=x86-64 -g -O0 -fpre-include=/usr/include/finclude/math-vector-fortran.h
REM seed -1810008607 -535171383 1147468956 171226417 591636313 1809687670 -1139269240 608299964 993082268 1219984982 -720571198 2138604988 -794184523 773491079 75016029 2077017866 -2035706083 1034819251 928783423 -442650121 1872611789 -635484977 1214006285 1016489718 -1977434476 1222915332 1735965046 1650916118 2060063735 1849715736 49777816 1051910536 -1940610257
REM
CELL 1.54180   50.00000   50.00000   50.00000   90.00000   90.00000   90.00000
LATT -1
SFAC C  
C      1  0.6068850000000  0.5424660000000  0.4684650000000 1.0
C      1  0.5042460000000  0.5351270000000  0.3948010000000 1.0
C      1  0.3959510000000  0.5211420000000  0.4661200000000 1.0
C      1  0.4342120000000  0.5445890000000  0.5880970000000 1.0
C      1  0.5609630000000  0.5395610000000  0.5864000000000 1.0
C      1  0.5042710000000  0.4113530000000  0.4726570000000 1.0
C      1  0.4767530000000  0.4140420000000  0.4868710000000 1.0
C      1  0.4826640000000  0.4169540000000  0.5173340000000 1.0
C      1  0.5134960000000  0.4164170000000  0.5210820000000 1.0
C      1  0.5255320000000  0.4165820000000  0.4933630000000 1.0
C      1  0.4582430000000  0.5876950000000  0.4964190000000 1.0
C      1  0.4827560000000  0.5895370000000  0.5378990000000 1.0
C      1  0.5373250000000  0.5943060000000  0.5228370000000 1.0
C      1  0.5347800000000  0.5947040000000  0.4700910000000 1.0
C      1  0.4894610000000  0.5860860000000  0.4601750000000 1.0
C      1  0.5677940000000  0.4485750000000  0.4107080000000 1.0
C      1  0.4346870000000  0.4527180000000  0.4124440000000 1.0
C      1  0.4001730000000  0.4578940000000  0.5336670000000 1.0
C      1  0.5037700000000  0.4493260000000  0.6074170000000 1.0
C      1  0.6016150000000  0.4522390000000  0.5264780000000 1.0
C      1  0.4095150000000  0.4993530000000  0.3985080000000 1.0
C      1  0.3791080000000  0.5029110000000  0.5679830000000 1.0
C      1  0.5242590000000  0.4994560000000  0.6350990000000 1.0
C      1  0.6372360000000  0.5003830000000  0.5167720000000 1.0
C      1  0.5634860000000  0.4971380000000  0.3794930000000 1.0
C      1  0.4280280000000  0.4101520000000  0.5592060000000 1.0
C      1  0.5392100000000  0.4046830000000  0.5842070000000 1.0
C      1  0.5891330000000  0.4125430000000  0.4806960000000 1.0
C      1  0.5384990000000  0.3998220000000  0.4122420000000 1.0
C      1  0.4236730000000  0.4036720000000  0.4412980000000 1.0
C      1  0.4806480000000  0.5438740000000  0.4836670000000 1.0
C      1  0.4741500000000  0.5458150000000  0.5165090000000 1.0
C      1  0.5022970000000  0.5454470000000  0.5325590000000 1.0
C      1  0.5260920000000  0.5451200000000  0.5102070000000 1.0
C      1  0.5141780000000  0.5464040000000  0.4796120000000 1.0
C      1  0.5697710000000  0.4943740000000  0.4571470000000 1.0
C      1  0.4948510000000  0.4994640000000  0.4310570000000 1.0
C      1  0.4276090000000  0.5046750000000  0.4934120000000 1.0
C      1  0.4642830000000  0.5042220000000  0.5710360000000 1.0
C      1  0.5522130000000  0.4991140000000  0.5545690000000 1.0
C      1  0.5394550000000  0.4536560000000  0.5332620000000 1.0
C      1  0.5365380000000  0.4558820000000  0.4689050000000 1.0
C      1  0.4858870000000  0.4372410000000  0.4396550000000 1.0
C      1  0.4371780000000  0.4393740000000  0.4960140000000 1.0
C      1  0.4858790000000  0.4470350000000  0.5535350000000 1.0
C      1  0.5268940000000  0.4750790000000  0.4050720000000 1.0
C      1  0.4093580000000  0.4775330000000  0.4450510000000 1.0
C      1  0.4237080000000  0.4817510000000  0.5689050000000 1.0
C      1  0.5414600000000  0.4773720000000  0.5941240000000 1.0
C      1  0.6031130000000  0.4808890000000  0.4871960000000 1.0
C      1  0.5072060000000  0.4188450000000  0.4436100000000 1.0
C      1  0.4502620000000  0.4233780000000  0.4767240000000 1.0
C      1  0.4675250000000  0.4299940000000  0.5397230000000 1.0
C      1  0.5292550000000  0.4290290000000  0.5432300000000 1.0
C      1  0.5467580000000  0.4349210000000  0.4851220000000 1.0
C      1  0.3827900000000  0.4760450000000  0.4883130000000 1.0
C      1  0.4571560000000  0.4695600000000  0.6044060000000 1.0
C      1  0.5854090000000  0.4676600000000  0.5716700000000 1.0
C      1  0.6054530000000  0.4698690000000  0.4380670000000 1.0
C      1  0.4786910000000  0.4698180000000  0.3951170000000 1.0
C      1  0.4581320000000  0.5493140000000  0.6006730000000 1.0
C      1  0.5783700000000  0.5415580000000  0.5654450000000 1.0
C      1  0.5933020000000  0.5480000000000  0.4454800000000 1.0
C      1  0.4779510000000  0.5399640000000  0.4010730000000 1.0
C      1  0.3927420000000  0.5369030000000  0.4912070000000 1.0
C      1  0.5583090000000  0.5201700000000  0.4576900000000 1.0
C      1  0.4729400000000  0.5143660000000  0.4397070000000 1.0
C      1  0.4285190000000  0.5211640000000  0.5151320000000 1.0
C      1  0.4854090000000  0.5209400000000  0.5765140000000 1.0
C      1  0.5618980000000  0.5127410000000  0.5320840000000 1.0
C      1  0.5305720000000  0.5238000000000  0.4636340000000 1.0
C      1  0.4699080000000  0.5178240000000  0.4694750000000 1.0
C      1  0.4536900000000  0.5255950000000  0.5267810000000 1.0
C      1  0.5041080000000  0.5239820000000  0.5550270000000 1.0
C      1  0.5402830000000  0.5170600000000  0.5130890000000 1.0
C      1  0.5457870000000  0.5687050000000  0.5142510000000 1.0
C      1  0.5173860000000  0.5718730000000  0.4594770000000 1.0
C      1  0.4659340000000  0.5698480000000  0.4722610000000 1.0
C      1  0.4599120000000  0.5738630000000  0.5236840000000 1.0
C      1  0.5017280000000  0.5714690000000  0.5496650000000 1.0
C      1  0.4224530000000  0.4578520000000  0.5514050000000 1.0
C      1  0.5268170000000  0.4517300000000  0.5910790000000 1.0
C      1  0.5926150000000  0.4567020000000  0.5001110000000 1.0
C      1  0.5390950000000  0.4487930000000  0.4126160000000 1.0
C      1  0.4248960000000  0.4525440000000  0.4393730000000 1.0
C      1  0.3531660000000  0.5005560000000  0.5672510000000 1.0
C      1  0.5144550000000  0.4977890000000  0.6591850000000 1.0
C      1  0.6571830000000  0.4977600000000  0.5333360000000 1.0
C      1  0.5843020000000  0.4970740000000  0.3638130000000 1.0
C      1  0.4062180000000  0.5011480000000  0.3727170000000 1.0
C      1  0.5188860000000  0.6128870000000  0.5125680000000 1.0
C      1  0.5196190000000  0.6149950000000  0.4835630000000 1.0
C      1  0.4918910000000  0.6122930000000  0.4738510000000 1.0
C      1  0.4742190000000  0.6120820000000  0.4968050000000 1.0
C      1  0.4911480000000  0.6115960000000  0.5212510000000 1.0
C      1  0.4742470000000  0.4843900000000  0.5299770000000 1.0
C      1  0.5243300000000  0.4935290000000  0.5083080000000 1.0
C      1  0.5077030000000  0.4884310000000  0.4864990000000 1.0
C      1  0.4813390000000  0.4963400000000  0.4863790000000 1.0
C      1  0.4658470000000  0.4810890000000  0.5039200000000 1.0
C      1  0.5815160000000  0.5321530000000  0.5384550000000 1.0
C      1  0.5677000000000  0.5386080000000  0.4378160000000 1.0
C      1  0.4599190000000  0.5326700000000  0.4222340000000 1.0
C      1  0.4061420000000  0.5386730000000  0.5176240000000 1.0
C      1  0.4850950000000  0.5403910000000  0.5970270000000 1.0
C      1  0.4785270000000  0.4559500000000  0.6126380000000 1.0
C      1  0.6001170000000  0.4561260000000  0.5527140000000 1.0
C      1  0.5921490000000  0.4556400000000  0.4194340000000 1.0
C      1  0.4544340000000  0.4590030000000  0.3958020000000 1.0
C      1  0.3858950000000  0.4647410000000  0.5122470000000 1.0
C      1  0.4339850000000  0.5715990000000  0.5386310000000 1.0
C      1  0.5142810000000  0.5706150000000  0.5753660000000 1.0
C      1  0.5730950000000  0.5654840000000  0.5072870000000 1.0
C      1  0.5278110000000  0.5644860000000  0.4324640000000 1.0
C      1  0.4431920000000  0.5641650000000  0.4537940000000 1.0
C      1  0.5315350000000  0.4285630000000  0.5725760000000 1.0
C      1  0.5756720000000  0.4352700000000  0.4890080000000 1.0
C      1  0.5279940000000  0.4229370000000  0.4234020000000 1.0
C      1  0.4334400000000  0.4270240000000  0.4526810000000 1.0
C      1  0.4398220000000  0.4334200000000  0.5495580000000 1.0
C      1  0.6059460000000  0.5309820000000  0.4946820000000 1.0
C      1  0.5313640000000  0.5269260000000  0.4019040000000 1.0
C      1  0.4127200000000  0.5263300000000  0.4406980000000 1.0
C      1  0.4168500000000  0.5345310000000  0.5670830000000 1.0
C      1  0.5360810000000  0.5312000000000  0.5989740000000 1.0
C      1  0.5527590000000  0.4727320000000  0.4546740000000 1.0
C      1  0.5165230000000  0.5075390000000  0.4460870000000 1.0
C      1  0.4415280000000  0.5111840000000  0.4719810000000 1.0
C      1  0.4618500000000  0.5047790000000  0.5432190000000 1.0
C      1  0.5258990000000  0.5076420000000  0.5583450000000 1.0
C      1  0.5105200000000  0.4654680000000  0.4710550000000 1.0
C      1  0.4878670000000  0.4586100000000  0.4557240000000 1.0
C      1  0.4443770000000  0.4644370000000  0.5002120000000 1.0
C      1  0.4953230000000  0.4698290000000  0.5403260000000 1.0
C      1  0.5209660000000  0.4738950000000  0.5285660000000 1.0
C      1  0.4993010000000  0.4806230000000  0.4103260000000 1.0
C      1  0.3934050000000  0.4902680000000  0.4666840000000 1.0
C      1  0.4477140000000  0.4856620000000  0.5838080000000 1.0
C      1  0.5616460000000  0.4817320000000  0.5743500000000 1.0
C      1  0.5963000000000  0.4850570000000  0.4600210000000 1.0
C      1  0.5409600000000  0.4995640000000  0.3960310000000 1.0
C      1  0.4121910000000  0.5004930000000  0.4261870000000 1.0
C      1  0.4070530000000  0.5063380000000  0.5675150000000 1.0
C      1  0.5337630000000  0.5025940000000  0.6086860000000 1.0
C      1  0.6151900000000  0.5039040000000  0.4999190000000 1.0
C      1  0.5453720000000  0.5454500000000  0.4202720000000 1.0
C      1  0.4360210000000  0.5436890000000  0.4353140000000 1.0
C      1  0.4132910000000  0.5519470000000  0.5428550000000 1.0
C      1  0.5127700000000  0.5503820000000  0.5961130000000 1.0
C      1  0.5910320000000  0.5451070000000  0.5149650000000 1.0
END
