TITL C-3623282-6910-1740 -2.64173853493449e-06 125000 -639.068841945947 0 0 107 (C1) n - 1
REM
REM in /home/nfs/bkarasulu/CARBON/AIRSS/Generating-Clusters/LCBOP/Higher-Symm/SD-CG/FIRE-CG
REM
REM
REM
REM
REM
REM ./C.cell (b20cbc046b6831c77cfcea5457e17084)
REM AIRSS Version 0.9.1 bugfix July 2018 build 013d7b7c2542+ Fri, 06 Jul 2018 19:26:36 +0100
REM compiler GCC version 9.2.1 20190827 (Red Hat 9.2.1-1)
REM options -cpp -mtune=generic -march=x86-64 -g -O0 -fpre-include=/usr/include/finclude/math-vector-fortran.h
REM seed -1077479922 -1880963150 1180149776 -1846136501 1507194359 -155728002 -330407786 -407874208 -396142984 256651687 284349551 -886540750 -686770569 1643273531 -847299847 -1135910010 -782160792 -2035259946 -1356012919 2055987496 -1749663682 1072057786 -1589423040 -1697982062 -869242545 -2123116922 -464487806 1051821292 -233554738 144340211 -1500533311 417056812 -363410392
REM
CELL 1.54180   50.00000   50.00000   50.00000   90.00000   90.00000   90.00000
LATT -1
SFAC C  
C      1  0.5530130000000  0.4538890000000  0.4325600000000 1.0
C      1  0.4318390000000  0.4768720000000  0.4324500000000 1.0
C      1  0.5136670000000  0.5692960000000  0.4335560000000 1.0
C      1  0.4966930000000  0.5503110000000  0.5770220000000 1.0
C      1  0.5442720000000  0.4780250000000  0.5774380000000 1.0
C      1  0.4578310000000  0.4725520000000  0.5782480000000 1.0
C      1  0.4588600000000  0.4964440000000  0.5179820000000 1.0
C      1  0.5169840000000  0.5360390000000  0.5171860000000 1.0
C      1  0.5197250000000  0.4714210000000  0.5151350000000 1.0
C      1  0.5619100000000  0.5604270000000  0.5297880000000 1.0
C      1  0.5208260000000  0.4177390000000  0.5290080000000 1.0
C      1  0.4160480000000  0.5241350000000  0.5298320000000 1.0
C      1  0.4609400000000  0.4564370000000  0.4950320000000 1.0
C      1  0.4810250000000  0.5542590000000  0.4945570000000 1.0
C      1  0.5581080000000  0.4892450000000  0.4921890000000 1.0
C      1  0.4226740000000  0.4533790000000  0.5490340000000 1.0
C      1  0.4982460000000  0.5901150000000  0.5478660000000 1.0
C      1  0.5778440000000  0.4563320000000  0.5485110000000 1.0
C      1  0.5445280000000  0.4980050000000  0.4684820000000 1.0
C      1  0.4752980000000  0.4649120000000  0.4707740000000 1.0
C      1  0.4814750000000  0.5360810000000  0.4721860000000 1.0
C      1  0.4795420000000  0.4070800000000  0.4986420000000 1.0
C      1  0.4286020000000  0.5642420000000  0.4987490000000 1.0
C      1  0.5916050000000  0.5292680000000  0.4993550000000 1.0
C      1  0.4171760000000  0.5099910000000  0.5046460000000 1.0
C      1  0.5494230000000  0.5660110000000  0.5043510000000 1.0
C      1  0.5301810000000  0.4280120000000  0.5039200000000 1.0
C      1  0.4450710000000  0.5346200000000  0.4312400000000 1.0
C      1  0.5588250000000  0.5309130000000  0.4309110000000 1.0
C      1  0.4963750000000  0.4352840000000  0.4306020000000 1.0
C      1  0.4278610000000  0.5510800000000  0.5258600000000 1.0
C      1  0.5799460000000  0.5368070000000  0.5264870000000 1.0
C      1  0.4916200000000  0.4127090000000  0.5258990000000 1.0
C      1  0.5058910000000  0.5302670000000  0.4563400000000 1.0
C      1  0.5243190000000  0.4814140000000  0.4538570000000 1.0
C      1  0.4684650000000  0.4892380000000  0.4539090000000 1.0
C      1  0.4532120000000  0.4243560000000  0.4568280000000 1.0
C      1  0.4574300000000  0.5771100000000  0.4573540000000 1.0
C      1  0.5895620000000  0.4984710000000  0.4568930000000 1.0
C      1  0.5399510000000  0.4532790000000  0.5085490000000 1.0
C      1  0.4333700000000  0.4882950000000  0.5100690000000 1.0
C      1  0.5224260000000  0.5619500000000  0.5084830000000 1.0
C      1  0.5270980000000  0.4372190000000  0.5540020000000 1.0
C      1  0.4305900000000  0.5079840000000  0.5549610000000 1.0
C      1  0.5410110000000  0.5561950000000  0.5544930000000 1.0
C      1  0.4989490000000  0.4470880000000  0.5628670000000 1.0
C      1  0.4542510000000  0.5273480000000  0.5625190000000 1.0
C      1  0.5461860000000  0.5266870000000  0.5634830000000 1.0
C      1  0.4757970000000  0.4997580000000  0.4961620000000 1.0
C      1  0.5187400000000  0.5166170000000  0.4978920000000 1.0
C      1  0.5048770000000  0.4884410000000  0.4954160000000 1.0
C      1  0.4513570000000  0.4114540000000  0.4912700000000 1.0
C      1  0.4470580000000  0.5858240000000  0.4912510000000 1.0
C      1  0.6010690000000  0.5024100000000  0.4913390000000 1.0
C      1  0.4293270000000  0.5207110000000  0.4810980000000 1.0
C      1  0.5542520000000  0.5507880000000  0.4807910000000 1.0
C      1  0.5146580000000  0.4322570000000  0.4803790000000 1.0
C      1  0.5857600000000  0.4484380000000  0.5022450000000 1.0
C      1  0.4109280000000  0.4487200000000  0.5028230000000 1.0
C      1  0.4996250000000  0.6012640000000  0.5013570000000 1.0
C      1  0.4813560000000  0.5251930000000  0.5775780000000 1.0
C      1  0.5303200000000  0.5040270000000  0.5781350000000 1.0
C      1  0.4874020000000  0.4719060000000  0.5781550000000 1.0
C      1  0.4338720000000  0.5057000000000  0.4290340000000 1.0
C      1  0.5380030000000  0.5540100000000  0.4297100000000 1.0
C      1  0.5270000000000  0.4412210000000  0.4291690000000 1.0
C      1  0.4183730000000  0.4343660000000  0.5266120000000 1.0
C      1  0.4840160000000  0.6029700000000  0.5253990000000 1.0
C      1  0.5958290000000  0.4613770000000  0.5258040000000 1.0
C      1  0.4634230000000  0.5120980000000  0.4729400000000 1.0
C      1  0.5312200000000  0.5247530000000  0.4727770000000 1.0
C      1  0.5051970000000  0.4671410000000  0.4724100000000 1.0
C      1  0.4769930000000  0.4822260000000  0.4272810000000 1.0
C      1  0.4959820000000  0.5272040000000  0.4293390000000 1.0
C      1  0.5269820000000  0.4911090000000  0.4267150000000 1.0
C      1  0.4954680000000  0.5283960000000  0.5330800000000 1.0
C      1  0.5255200000000  0.4905620000000  0.5346830000000 1.0
C      1  0.4758390000000  0.4822670000000  0.5356780000000 1.0
C      1  0.5133870000000  0.5678670000000  0.5607360000000 1.0
C      1  0.5509300000000  0.4548650000000  0.5609680000000 1.0
C      1  0.4341590000000  0.4780280000000  0.5618170000000 1.0
C      1  0.4530110000000  0.5478050000000  0.5400160000000 1.0
C      1  0.5649940000000  0.5170320000000  0.5417580000000 1.0
C      1  0.4813590000000  0.4353420000000  0.5409940000000 1.0
C      1  0.4957260000000  0.4131620000000  0.4752930000000 1.0
C      1  0.4244210000000  0.5471810000000  0.4755820000000 1.0
C      1  0.5798410000000  0.5419980000000  0.4758420000000 1.0
C      1  0.5813480000000  0.5274610000000  0.4510190000000 1.0
C      1  0.4822580000000  0.4177140000000  0.4506330000000 1.0
C      1  0.4366990000000  0.5556700000000  0.4511620000000 1.0
C      1  0.4336100000000  0.4125760000000  0.5142790000000 1.0
C      1  0.4572660000000  0.6008660000000  0.5138360000000 1.0
C      1  0.6079720000000  0.4851650000000  0.5136360000000 1.0
C      1  0.4470030000000  0.4481890000000  0.4362770000000 1.0
C      1  0.4814530000000  0.5702980000000  0.4374580000000 1.0
C      1  0.5714980000000  0.4812280000000  0.4361070000000 1.0
C      1  0.4746240000000  0.4537740000000  0.4225250000000 1.0
C      1  0.4725670000000  0.5434920000000  0.4241440000000 1.0
C      1  0.5532650000000  0.5029040000000  0.4223140000000 1.0
C      1  0.4725970000000  0.4556350000000  0.5236840000000 1.0
C      1  0.4746670000000  0.5450350000000  0.5222840000000 1.0
C      1  0.5516730000000  0.4991770000000  0.5249660000000 1.0
C      1  0.4327020000000  0.4645370000000  0.4954150000000 1.0
C      1  0.5020650000000  0.5744290000000  0.4942110000000 1.0
C      1  0.5623810000000  0.4612450000000  0.4942420000000 1.0
C      1  0.4985480000000  0.5007180000000  0.5399680000000 1.0
C      1  0.4996820000000  0.5004390000000  0.5829670000000 1.0
END
