TITL C-3623283-6828-1559 3.57351460882614e-07 125000 -670.663159609651 0 0 106 (C1) n - 1
REM
REM in /home/nfs/bkarasulu/CARBON/AIRSS/Generating-Clusters/LCBOP/Higher-Symm/SD-CG/FIRE-CG
REM
REM
REM
REM
REM
REM ./C.cell (b20cbc046b6831c77cfcea5457e17084)
REM AIRSS Version 0.9.1 bugfix July 2018 build 013d7b7c2542+ Fri, 06 Jul 2018 19:26:36 +0100
REM compiler GCC version 9.2.1 20190827 (Red Hat 9.2.1-1)
REM options -cpp -mtune=generic -march=x86-64 -g -O0 -fpre-include=/usr/include/finclude/math-vector-fortran.h
REM seed -1864202357 842777395 -1469529240 1480843315 1441979666 -2087161696 1293280042 1362366980 -392786126 -2426573 674946941 -205089588 1544082507 390788297 -1358398768 -1312391321 561367103 1101608686 -1655036029 -1650125372 1037643329 774301262 51073326 1834005655 -2116710272 -1780665627 -1355631828 239564452 -1877639619 1917513622 -895639877 -446872231 -235395158
REM
CELL 1.54180   50.00000   50.00000   50.00000   90.00000   90.00000   90.00000
LATT -1
SFAC C  
C      1  0.5480530000000  0.5225330000000  0.4327560000000 1.0
C      1  0.5376280000000  0.5210650000000  0.5775040000000 1.0
C      1  0.4114000000000  0.5184150000000  0.4892860000000 1.0
C      1  0.5613670000000  0.4635490000000  0.5522670000000 1.0
C      1  0.4208600000000  0.4622130000000  0.5273940000000 1.0
C      1  0.5144180000000  0.4632880000000  0.4193870000000 1.0
C      1  0.5231120000000  0.5392660000000  0.5014720000000 1.0
C      1  0.4938900000000  0.5328890000000  0.5074060000000 1.0
C      1  0.4842160000000  0.5261540000000  0.4802280000000 1.0
C      1  0.4424110000000  0.4957610000000  0.3988850000000 1.0
C      1  0.6163150000000  0.4976990000000  0.4994630000000 1.0
C      1  0.4426110000000  0.5004170000000  0.6008350000000 1.0
C      1  0.5628260000000  0.5550380000000  0.4679430000000 1.0
C      1  0.5024380000000  0.5535630000000  0.5707220000000 1.0
C      1  0.4370210000000  0.5510210000000  0.4622150000000 1.0
C      1  0.5212250000000  0.5727830000000  0.5606370000000 1.0
C      1  0.4393070000000  0.5647330000000  0.4876450000000 1.0
C      1  0.5382500000000  0.5689140000000  0.4607110000000 1.0
C      1  0.4945510000000  0.5035850000000  0.5621700000000 1.0
C      1  0.4478140000000  0.5006800000000  0.4626240000000 1.0
C      1  0.5548050000000  0.5065620000000  0.4773210000000 1.0
C      1  0.5105150000000  0.5259200000000  0.5713090000000 1.0
C      1  0.4296490000000  0.5228060000000  0.4675520000000 1.0
C      1  0.5594340000000  0.5275810000000  0.4582780000000 1.0
C      1  0.4201120000000  0.4063550000000  0.4860130000000 1.0
C      1  0.5549080000000  0.4104610000000  0.4377460000000 1.0
C      1  0.5269980000000  0.4089570000000  0.5758310000000 1.0
C      1  0.5782200000000  0.4648390000000  0.4874030000000 1.0
C      1  0.4711400000000  0.4642340000000  0.5775600000000 1.0
C      1  0.4474680000000  0.4604060000000  0.4363720000000 1.0
C      1  0.5708560000000  0.5687310000000  0.5457160000000 1.0
C      1  0.4372290000000  0.5746730000000  0.5358440000000 1.0
C      1  0.5020130000000  0.5723460000000  0.4249550000000 1.0
C      1  0.4742190000000  0.5585880000000  0.5690750000000 1.0
C      1  0.4533810000000  0.5564350000000  0.4388790000000 1.0
C      1  0.5769950000000  0.5590720000000  0.4933730000000 1.0
C      1  0.5610830000000  0.5123680000000  0.5647320000000 1.0
C      1  0.4133380000000  0.5133380000000  0.5173420000000 1.0
C      1  0.5245420000000  0.5141860000000  0.4191030000000 1.0
C      1  0.4733470000000  0.5462610000000  0.5217900000000 1.0
C      1  0.4930240000000  0.5480740000000  0.4641650000000 1.0
C      1  0.5344950000000  0.5618850000000  0.5164230000000 1.0
C      1  0.5465190000000  0.4266590000000  0.5816640000000 1.0
C      1  0.4050190000000  0.4241620000000  0.4995720000000 1.0
C      1  0.5505110000000  0.4290890000000  0.4187450000000 1.0
C      1  0.4467170000000  0.4491830000000  0.5349590000000 1.0
C      1  0.4960640000000  0.4480370000000  0.4374160000000 1.0
C      1  0.5533790000000  0.4510070000000  0.5269500000000 1.0
C      1  0.4636640000000  0.5632770000000  0.5430460000000 1.0
C      1  0.4814870000000  0.5617460000000  0.4425830000000 1.0
C      1  0.5626290000000  0.5654020000000  0.5179120000000 1.0
C      1  0.5039830000000  0.4122720000000  0.5623200000000 1.0
C      1  0.4435310000000  0.4091530000000  0.4730620000000 1.0
C      1  0.5524500000000  0.4118070000000  0.4644880000000 1.0
C      1  0.4774360000000  0.5018640000000  0.5393070000000 1.0
C      1  0.4764050000000  0.5030970000000  0.4667420000000 1.0
C      1  0.5388610000000  0.5123730000000  0.5013210000000 1.0
C      1  0.5186410000000  0.5537140000000  0.4746180000000 1.0
C      1  0.5178310000000  0.5775150000000  0.5326950000000 1.0
C      1  0.4513280000000  0.5441700000000  0.5039540000000 1.0
C      1  0.5140120000000  0.5318300000000  0.3998240000000 1.0
C      1  0.5850700000000  0.5268460000000  0.5657400000000 1.0
C      1  0.4070480000000  0.5339150000000  0.5357100000000 1.0
C      1  0.5263510000000  0.5815780000000  0.4381020000000 1.0
C      1  0.5497080000000  0.5760080000000  0.5645920000000 1.0
C      1  0.4341910000000  0.5845380000000  0.5080470000000 1.0
C      1  0.6029520000000  0.4748480000000  0.4958340000000 1.0
C      1  0.4510320000000  0.4762600000000  0.5930080000000 1.0
C      1  0.4444350000000  0.4720040000000  0.4110140000000 1.0
C      1  0.4627190000000  0.4614010000000  0.5127570000000 1.0
C      1  0.5056180000000  0.4605360000000  0.4627050000000 1.0
C      1  0.5269510000000  0.4648360000000  0.5241300000000 1.0
C      1  0.4681270000000  0.4419000000000  0.4438920000000 1.0
C      1  0.5626690000000  0.4448070000000  0.5006180000000 1.0
C      1  0.4666910000000  0.4453130000000  0.5562190000000 1.0
C      1  0.4592830000000  0.4897670000000  0.5209360000000 1.0
C      1  0.4985530000000  0.4883800000000  0.4563280000000 1.0
C      1  0.5369410000000  0.4934270000000  0.5234510000000 1.0
C      1  0.5223000000000  0.4680920000000  0.5825340000000 1.0
C      1  0.4173890000000  0.4650470000000  0.4777520000000 1.0
C      1  0.5574750000000  0.4706340000000  0.4423160000000 1.0
C      1  0.5099040000000  0.4917690000000  0.4286580000000 1.0
C      1  0.5571380000000  0.4921910000000  0.5456980000000 1.0
C      1  0.4293540000000  0.4911630000000  0.5250890000000 1.0
C      1  0.4625640000000  0.4296870000000  0.4699240000000 1.0
C      1  0.5440560000000  0.4312330000000  0.4829820000000 1.0
C      1  0.4916820000000  0.4330100000000  0.5478710000000 1.0
C      1  0.4451730000000  0.5449960000000  0.4144600000000 1.0
C      1  0.6024150000000  0.5471340000000  0.4958070000000 1.0
C      1  0.4573980000000  0.5484820000000  0.5891960000000 1.0
C      1  0.5464920000000  0.4542140000000  0.5753300000000 1.0
C      1  0.4099760000000  0.4518680000000  0.5023690000000 1.0
C      1  0.5423670000000  0.4558210000000  0.4226510000000 1.0
C      1  0.5904720000000  0.5514690000000  0.5562610000000 1.0
C      1  0.4152820000000  0.5582570000000  0.5441160000000 1.0
C      1  0.5057000000000  0.5574570000000  0.4011720000000 1.0
C      1  0.5061470000000  0.4454650000000  0.5263330000000 1.0
C      1  0.4725070000000  0.4424150000000  0.4939020000000 1.0
C      1  0.5176330000000  0.4423070000000  0.4806490000000 1.0
C      1  0.6160320000000  0.5243690000000  0.4987460000000 1.0
C      1  0.4456520000000  0.5269190000000  0.5996920000000 1.0
C      1  0.4421810000000  0.5224130000000  0.4005000000000 1.0
C      1  0.4358630000000  0.4749970000000  0.4584790000000 1.0
C      1  0.5635840000000  0.4806120000000  0.4683670000000 1.0
C      1  0.4965870000000  0.4785490000000  0.5765480000000 1.0
C      1  0.4991210000000  0.4361220000000  0.5007550000000 1.0
END
