TITL C-3623282-6910-1451 806.780671720824 125000 -902.603818823996 0 0 149 (C1) n - 1
REM
REM in /home/nfs/bkarasulu/CARBON/AIRSS/Generating-Clusters/LCBOP/Higher-Symm/SD-CG/FIRE-CG
REM
REM
REM
REM
REM
REM ./C.cell (b20cbc046b6831c77cfcea5457e17084)
REM AIRSS Version 0.9.1 bugfix July 2018 build 013d7b7c2542+ Fri, 06 Jul 2018 19:26:36 +0100
REM compiler GCC version 9.2.1 20190827 (Red Hat 9.2.1-1)
REM options -cpp -mtune=generic -march=x86-64 -g -O0 -fpre-include=/usr/include/finclude/math-vector-fortran.h
REM seed -1860681322 -455320402 -113248994 -681123019 1743783968 -1823228873 -249204794 1729597475 2105203311 -1554761457 -1019722911 -1143216697 379821547 -2060618844 -110358373 -342937571 432020940 -676433155 263216594 355036747 952093559 1087023388 -432643257 621494295 500223607 1680133962 -364841286 1864019385 -1330486719 1473371557 -706750936 1204299978 -608992212
REM
CELL 1.54180   50.00000   50.00000   50.00000   90.00000   90.00000   90.00000
LATT -1
SFAC C  
C      1  0.6087210000000  0.5206950000000  0.5016760000000 1.0
C      1  0.5279920000000  0.6296770000000  0.5130820000000 1.0
C      1  0.4510880000000  0.4148470000000  0.4405460000000 1.0
C      1  0.5900270000000  0.5053500000000  0.5419810000000 1.0
C      1  0.5196050000000  0.5962710000000  0.5477930000000 1.0
C      1  0.6132230000000  0.5059520000000  0.5244680000000 1.0
C      1  0.4758660000000  0.4860140000000  0.5955160000000 1.0
C      1  0.5583420000000  0.5257490000000  0.4024360000000 1.0
C      1  0.5926980000000  0.5170830000000  0.4466200000000 1.0
C      1  0.4388410000000  0.4432700000000  0.5865190000000 1.0
C      1  0.4093160000000  0.5255460000000  0.5487440000000 1.0
C      1  0.5414520000000  0.4015990000000  0.4798660000000 1.0
C      1  0.5639980000000  0.4356790000000  0.5686140000000 1.0
C      1  0.5554680000000  0.4494460000000  0.4315060000000 1.0
C      1  0.5281420000000  0.4425340000000  0.4271730000000 1.0
C      1  0.3964730000000  0.4577880000000  0.5226920000000 1.0
C      1  0.5005800000000  0.4498220000000  0.4948530000000 1.0
C      1  0.5361190000000  0.4745990000000  0.4735310000000 1.0
C      1  0.4928410000000  0.5834730000000  0.5541590000000 1.0
C      1  0.4479020000000  0.4671110000000  0.4890100000000 1.0
C      1  0.4718980000000  0.5114420000000  0.4747900000000 1.0
C      1  0.4799220000000  0.6293930000000  0.5188970000000 1.0
C      1  0.4058680000000  0.4925440000000  0.4897010000000 1.0
C      1  0.5426260000000  0.5065920000000  0.3896240000000 1.0
C      1  0.5273770000000  0.4926230000000  0.5778600000000 1.0
C      1  0.5328770000000  0.3819430000000  0.5472090000000 1.0
C      1  0.5200150000000  0.4506390000000  0.4741880000000 1.0
C      1  0.4480440000000  0.4116450000000  0.5405170000000 1.0
C      1  0.5351140000000  0.6048660000000  0.5239370000000 1.0
C      1  0.5135470000000  0.3957780000000  0.4822720000000 1.0
C      1  0.4706810000000  0.6035320000000  0.5119010000000 1.0
C      1  0.4799910000000  0.5148950000000  0.5463180000000 1.0
C      1  0.4512310000000  0.4062220000000  0.4883810000000 1.0
C      1  0.4176640000000  0.5583520000000  0.5851240000000 1.0
C      1  0.4706780000000  0.5375630000000  0.3944060000000 1.0
C      1  0.5185570000000  0.4441270000000  0.4007910000000 1.0
C      1  0.4581920000000  0.4227650000000  0.5126590000000 1.0
C      1  0.5272710000000  0.5680740000000  0.5854040000000 1.0
C      1  0.4829640000000  0.4588040000000  0.4476430000000 1.0
C      1  0.4164040000000  0.4591690000000  0.5760690000000 1.0
C      1  0.5395370000000  0.5816480000000  0.5633960000000 1.0
C      1  0.5597180000000  0.3898360000000  0.5430760000000 1.0
C      1  0.4853250000000  0.5366720000000  0.5936450000000 1.0
C      1  0.4917460000000  0.3941440000000  0.4635250000000 1.0
C      1  0.4286000000000  0.4861870000000  0.5743730000000 1.0
C      1  0.5410900000000  0.4317550000000  0.5849790000000 1.0
C      1  0.4486990000000  0.5414680000000  0.5075210000000 1.0
C      1  0.4910730000000  0.5371640000000  0.5351980000000 1.0
C      1  0.4591000000000  0.4617320000000  0.6003620000000 1.0
C      1  0.5409060000000  0.4896730000000  0.5512230000000 1.0
C      1  0.4345110000000  0.4927620000000  0.4898810000000 1.0
C      1  0.4642340000000  0.6013700000000  0.4841850000000 1.0
C      1  0.5219050000000  0.4888750000000  0.3837030000000 1.0
C      1  0.5569890000000  0.5850870000000  0.5179960000000 1.0
C      1  0.4840300000000  0.4847960000000  0.4368210000000 1.0
C      1  0.4066160000000  0.4394180000000  0.4715240000000 1.0
C      1  0.5794650000000  0.4596790000000  0.5693130000000 1.0
C      1  0.4640820000000  0.4026940000000  0.4628260000000 1.0
C      1  0.5091220000000  0.4944150000000  0.4293000000000 1.0
C      1  0.4205600000000  0.5331400000000  0.5739700000000 1.0
C      1  0.5705290000000  0.5992540000000  0.4734130000000 1.0
C      1  0.5569620000000  0.5689240000000  0.5436610000000 1.0
C      1  0.4750810000000  0.4621410000000  0.3930620000000 1.0
C      1  0.4970100000000  0.5629170000000  0.5794120000000 1.0
C      1  0.5341050000000  0.5583920000000  0.4269720000000 1.0
C      1  0.5798960000000  0.4633640000000  0.4356160000000 1.0
C      1  0.4636150000000  0.5140100000000  0.5942260000000 1.0
C      1  0.4989260000000  0.4851330000000  0.5777150000000 1.0
C      1  0.5757530000000  0.5410450000000  0.4501230000000 1.0
C      1  0.4969570000000  0.5422700000000  0.4029040000000 1.0
C      1  0.4145330000000  0.5014030000000  0.5347380000000 1.0
C      1  0.5039510000000  0.4019920000000  0.5087210000000 1.0
C      1  0.5823950000000  0.5329270000000  0.5014000000000 1.0
C      1  0.5037050000000  0.6412720000000  0.5145480000000 1.0
C      1  0.6204380000000  0.5209690000000  0.4452310000000 1.0
C      1  0.5040610000000  0.4658210000000  0.3891450000000 1.0
C      1  0.5086100000000  0.5682380000000  0.4128380000000 1.0
C      1  0.4090520000000  0.4785080000000  0.4421690000000 1.0
C      1  0.5142290000000  0.4302350000000  0.5816860000000 1.0
C      1  0.5149040000000  0.5473290000000  0.4881620000000 1.0
C      1  0.3986430000000  0.4864440000000  0.5164860000000 1.0
C      1  0.5214380000000  0.5592310000000  0.5115520000000 1.0
C      1  0.4512090000000  0.4270800000000  0.5654020000000 1.0
C      1  0.4456880000000  0.5149280000000  0.4297640000000 1.0
C      1  0.5713010000000  0.5252570000000  0.5288130000000 1.0
C      1  0.5499480000000  0.5406030000000  0.5402050000000 1.0
C      1  0.5115740000000  0.3877770000000  0.5316670000000 1.0
C      1  0.4911100000000  0.4908180000000  0.5510720000000 1.0
C      1  0.4173550000000  0.5825350000000  0.5948300000000 1.0
C      1  0.5610230000000  0.5473760000000  0.4236330000000 1.0
C      1  0.5076720000000  0.5216850000000  0.4200310000000 1.0
C      1  0.5073520000000  0.5233260000000  0.6083620000000 1.0
C      1  0.4234740000000  0.4975910000000  0.4271100000000 1.0
C      1  0.6259650000000  0.4352290000000  0.4319530000000 1.0
C      1  0.4746450000000  0.5814590000000  0.5306500000000 1.0
C      1  0.4947660000000  0.5020270000000  0.4887050000000 1.0
C      1  0.5655350000000  0.4185280000000  0.5459070000000 1.0
C      1  0.4707450000000  0.5538980000000  0.5229790000000 1.0
C      1  0.5480130000000  0.4821160000000  0.5227510000000 1.0
C      1  0.4543470000000  0.4646130000000  0.5383240000000 1.0
C      1  0.5226180000000  0.5357090000000  0.4407080000000 1.0
C      1  0.4365900000000  0.4860520000000  0.5461230000000 1.0
C      1  0.5307310000000  0.4908000000000  0.4492800000000 1.0
C      1  0.5088240000000  0.4450520000000  0.4484480000000 1.0
C      1  0.5018940000000  0.4758300000000  0.5308520000000 1.0
C      1  0.4624370000000  0.4569470000000  0.4670270000000 1.0
C      1  0.5392700000000  0.4935920000000  0.4976280000000 1.0
C      1  0.4500610000000  0.5386360000000  0.4139410000000 1.0
C      1  0.6036150000000  0.4485550000000  0.4333800000000 1.0
C      1  0.4954610000000  0.4770960000000  0.5037850000000 1.0
C      1  0.5619070000000  0.4072380000000  0.4989690000000 1.0
C      1  0.4665530000000  0.5050080000000  0.4471260000000 1.0
C      1  0.4982560000000  0.5623890000000  0.4717880000000 1.0
C      1  0.4982950000000  0.4395400000000  0.5604170000000 1.0
C      1  0.5667750000000  0.5780710000000  0.4908860000000 1.0
C      1  0.4499120000000  0.4521340000000  0.5128650000000 1.0
C      1  0.5823960000000  0.4909710000000  0.4420180000000 1.0
C      1  0.4500490000000  0.5166350000000  0.4922310000000 1.0
C      1  0.4388360000000  0.4385240000000  0.4293370000000 1.0
C      1  0.4168740000000  0.4506220000000  0.4457940000000 1.0
C      1  0.5644610000000  0.4297700000000  0.5185560000000 1.0
C      1  0.5459950000000  0.5558400000000  0.6026200000000 1.0
C      1  0.5323250000000  0.5176950000000  0.4591840000000 1.0
C      1  0.3944730000000  0.4893670000000  0.4643200000000 1.0
C      1  0.6461960000000  0.5242340000000  0.4429950000000 1.0
C      1  0.5618510000000  0.4575610000000  0.5178910000000 1.0
C      1  0.4140920000000  0.5733410000000  0.4844900000000 1.0
C      1  0.5047150000000  0.5850500000000  0.4563160000000 1.0
C      1  0.4890060000000  0.4262090000000  0.5082040000000 1.0
C      1  0.5871720000000  0.4841010000000  0.5605170000000 1.0
C      1  0.4537030000000  0.4514580000000  0.4072230000000 1.0
C      1  0.5204240000000  0.5419140000000  0.5341290000000 1.0
C      1  0.4916460000000  0.5851430000000  0.4305280000000 1.0
C      1  0.3989630000000  0.4414910000000  0.4981970000000 1.0
C      1  0.4730460000000  0.5530590000000  0.4679160000000 1.0
C      1  0.5212160000000  0.5175840000000  0.4868260000000 1.0
C      1  0.5690840000000  0.3844190000000  0.5159740000000 1.0
C      1  0.5318650000000  0.5115960000000  0.5986830000000 1.0
C      1  0.4463130000000  0.5652110000000  0.4227870000000 1.0
C      1  0.4621790000000  0.5858080000000  0.4347680000000 1.0
C      1  0.4254980000000  0.5569700000000  0.5024200000000 1.0
C      1  0.4708490000000  0.4465170000000  0.5562520000000 1.0
C      1  0.4358450000000  0.5119840000000  0.5858640000000 1.0
C      1  0.5529190000000  0.5296030000000  0.6030500000000 1.0
C      1  0.4008490000000  0.4516630000000  0.5515640000000 1.0
C      1  0.5133070000000  0.4517360000000  0.5400770000000 1.0
C      1  0.5736520000000  0.5511130000000  0.4802010000000 1.0
C      1  0.4231370000000  0.5894450000000  0.4648100000000 1.0
C      1  0.4504200000000  0.5960700000000  0.4598070000000 1.0
END
