TITL C-3623287-7182-862 1601.80321730596 125000 -1274.97095150581 0 0 199 (C1) n - 1
REM
REM in /home/nfs/bkarasulu/CARBON/AIRSS/Generating-Clusters/LCBOP/Higher-Symm/SD-CG/FIRE-CG
REM
REM
REM
REM
REM
REM ./C.cell (b20cbc046b6831c77cfcea5457e17084)
REM AIRSS Version 0.9.1 bugfix July 2018 build 013d7b7c2542+ Fri, 06 Jul 2018 19:26:36 +0100
REM compiler GCC version 9.2.1 20190827 (Red Hat 9.2.1-1)
REM options -cpp -mtune=generic -march=x86-64 -g -O0 -fpre-include=/usr/include/finclude/math-vector-fortran.h
REM seed 210087032 -1628127371 611209929 453244751 -1204612725 885392099 -634638346 1958167495 -442268189 1967217914 572793836 254726385 -1154664567 26052752 -428148591 -1636313739 1515271587 -497350591 -1138291897 361774561 738148857 1749500989 -72259495 1231526474 -19159675 1120225658 -1889281191 1138600216 249157328 897864050 1374175420 -1925048038 262962560
REM
CELL 1.54180   50.00000   50.00000   50.00000   90.00000   90.00000   90.00000
LATT -1
SFAC C  
C      1  0.5028060000000  0.5991220000000  0.5533340000000 1.0
C      1  0.5511170000000  0.5965270000000  0.4961320000000 1.0
C      1  0.4963330000000  0.5960100000000  0.4482120000000 1.0
C      1  0.4473880000000  0.5977940000000  0.5032280000000 1.0
C      1  0.5025820000000  0.4016820000000  0.4477160000000 1.0
C      1  0.5512320000000  0.4034520000000  0.5021210000000 1.0
C      1  0.4968470000000  0.4034940000000  0.5516340000000 1.0
C      1  0.4470830000000  0.4011120000000  0.4966620000000 1.0
C      1  0.5271050000000  0.4080500000000  0.4617080000000 1.0
C      1  0.4602430000000  0.4065270000000  0.4712740000000 1.0
C      1  0.4722310000000  0.4092830000000  0.5378530000000 1.0
C      1  0.5363190000000  0.4132660000000  0.5245850000000 1.0
C      1  0.5284300000000  0.5926920000000  0.5399640000000 1.0
C      1  0.4598450000000  0.5916840000000  0.5285250000000 1.0
C      1  0.4739770000000  0.5872640000000  0.4641480000000 1.0
C      1  0.5379460000000  0.5914850000000  0.4706220000000 1.0
C      1  0.4995960000000  0.4186680000000  0.5757840000000 1.0
C      1  0.5752710000000  0.4184660000000  0.4987300000000 1.0
C      1  0.4989900000000  0.4169000000000  0.4234630000000 1.0
C      1  0.4228280000000  0.4167700000000  0.4999220000000 1.0
C      1  0.4999250000000  0.5798260000000  0.4248800000000 1.0
C      1  0.5755960000000  0.5817720000000  0.4996970000000 1.0
C      1  0.4994150000000  0.5832010000000  0.5778630000000 1.0
C      1  0.4244980000000  0.5811020000000  0.4993070000000 1.0
C      1  0.6048610000000  0.5437790000000  0.5107390000000 1.0
C      1  0.5111030000000  0.5413570000000  0.3958300000000 1.0
C      1  0.3979170000000  0.5420970000000  0.4884530000000 1.0
C      1  0.4882100000000  0.5431100000000  0.6060210000000 1.0
C      1  0.6025980000000  0.4573570000000  0.4879760000000 1.0
C      1  0.5102160000000  0.4566190000000  0.6052160000000 1.0
C      1  0.3948620000000  0.4561410000000  0.5107140000000 1.0
C      1  0.4878500000000  0.4550580000000  0.3940270000000 1.0
C      1  0.5872670000000  0.5664860000000  0.5242960000000 1.0
C      1  0.5238340000000  0.5643690000000  0.4131080000000 1.0
C      1  0.4156980000000  0.5639500000000  0.4758340000000 1.0
C      1  0.4755800000000  0.5663210000000  0.5883860000000 1.0
C      1  0.5858490000000  0.4345960000000  0.4749640000000 1.0
C      1  0.5229320000000  0.4347080000000  0.5867990000000 1.0
C      1  0.4117660000000  0.4329290000000  0.5240430000000 1.0
C      1  0.4747130000000  0.4323030000000  0.4117480000000 1.0
C      1  0.5323400000000  0.3927180000000  0.4844070000000 1.0
C      1  0.4841800000000  0.3926420000000  0.4671680000000 1.0
C      1  0.4674400000000  0.3940820000000  0.5151180000000 1.0
C      1  0.5150650000000  0.3971820000000  0.5314910000000 1.0
C      1  0.5319220000000  0.6049570000000  0.5150760000000 1.0
C      1  0.4839430000000  0.6059280000000  0.5328940000000 1.0
C      1  0.4672640000000  0.6044350000000  0.4848720000000 1.0
C      1  0.5145430000000  0.6064930000000  0.4669940000000 1.0
C      1  0.5682780000000  0.5042070000000  0.5271640000000 1.0
C      1  0.5324030000000  0.4973870000000  0.4274340000000 1.0
C      1  0.4311870000000  0.4998610000000  0.4689540000000 1.0
C      1  0.4668640000000  0.5010170000000  0.5723600000000 1.0
C      1  0.5690300000000  0.5006100000000  0.4714530000000 1.0
C      1  0.5306230000000  0.4975350000000  0.5723120000000 1.0
C      1  0.4311490000000  0.4972810000000  0.5274740000000 1.0
C      1  0.4711950000000  0.4975810000000  0.4296850000000 1.0
C      1  0.3864680000000  0.4835430000000  0.5183340000000 1.0
C      1  0.5181720000000  0.4832130000000  0.6157520000000 1.0
C      1  0.6128850000000  0.4837660000000  0.4803470000000 1.0
C      1  0.4802420000000  0.4824090000000  0.3853540000000 1.0
C      1  0.3874710000000  0.5160040000000  0.4803220000000 1.0
C      1  0.5187260000000  0.5146620000000  0.3850880000000 1.0
C      1  0.6133880000000  0.5164760000000  0.5182690000000 1.0
C      1  0.4800830000000  0.5158650000000  0.6156870000000 1.0
C      1  0.5547850000000  0.5674670000000  0.5799340000000 1.0
C      1  0.5781820000000  0.5668660000000  0.4445570000000 1.0
C      1  0.4456190000000  0.5632350000000  0.4254340000000 1.0
C      1  0.4226380000000  0.5661370000000  0.5545780000000 1.0
C      1  0.5537900000000  0.4319930000000  0.4209930000000 1.0
C      1  0.5754970000000  0.4341760000000  0.5535790000000 1.0
C      1  0.4444710000000  0.4323730000000  0.5784190000000 1.0
C      1  0.4202210000000  0.4315090000000  0.4443160000000 1.0
C      1  0.3998510000000  0.5518750000000  0.4306960000000 1.0
C      1  0.4300730000000  0.5522100000000  0.6011560000000 1.0
C      1  0.6008250000000  0.5522820000000  0.5701070000000 1.0
C      1  0.5693900000000  0.5519820000000  0.3983550000000 1.0
C      1  0.3980260000000  0.4466280000000  0.5697100000000 1.0
C      1  0.4290310000000  0.4459310000000  0.3978740000000 1.0
C      1  0.6000090000000  0.4469240000000  0.4293620000000 1.0
C      1  0.5684580000000  0.4472430000000  0.6003470000000 1.0
C      1  0.5965990000000  0.5016350000000  0.4650530000000 1.0
C      1  0.4653230000000  0.5003740000000  0.4023490000000 1.0
C      1  0.4039110000000  0.5011710000000  0.5332280000000 1.0
C      1  0.5348270000000  0.5006100000000  0.6001010000000 1.0
C      1  0.5953840000000  0.4994820000000  0.5329310000000 1.0
C      1  0.4635180000000  0.4978280000000  0.6001440000000 1.0
C      1  0.4032140000000  0.4986010000000  0.4640500000000 1.0
C      1  0.5354160000000  0.4961120000000  0.3995260000000 1.0
C      1  0.5907720000000  0.5361400000000  0.4088030000000 1.0
C      1  0.4089050000000  0.5353230000000  0.4091900000000 1.0
C      1  0.4093040000000  0.5358950000000  0.5902870000000 1.0
C      1  0.5904900000000  0.5364750000000  0.5915960000000 1.0
C      1  0.5893900000000  0.4635640000000  0.5898530000000 1.0
C      1  0.4082420000000  0.4624340000000  0.5912270000000 1.0
C      1  0.4079920000000  0.4621850000000  0.4084060000000 1.0
C      1  0.5898550000000  0.4619270000000  0.4072890000000 1.0
C      1  0.5534490000000  0.5660620000000  0.4176930000000 1.0
C      1  0.4217970000000  0.5641010000000  0.4467420000000 1.0
C      1  0.4463110000000  0.5663880000000  0.5819660000000 1.0
C      1  0.5817570000000  0.5669860000000  0.5544360000000 1.0
C      1  0.5519720000000  0.4339440000000  0.5806950000000 1.0
C      1  0.4173550000000  0.4324550000000  0.5537810000000 1.0
C      1  0.4449030000000  0.4314910000000  0.4170350000000 1.0
C      1  0.5805810000000  0.4332810000000  0.4455730000000 1.0
C      1  0.5864020000000  0.5707190000000  0.4739980000000 1.0
C      1  0.4744770000000  0.5676290000000  0.4159120000000 1.0
C      1  0.4142570000000  0.5699580000000  0.5251250000000 1.0
C      1  0.5252200000000  0.5713180000000  0.5884810000000 1.0
C      1  0.5845390000000  0.4302400000000  0.5245170000000 1.0
C      1  0.4738170000000  0.4291980000000  0.5864660000000 1.0
C      1  0.4123290000000  0.4282050000000  0.4740150000000 1.0
C      1  0.5245360000000  0.4281100000000  0.4127360000000 1.0
C      1  0.5000340000000  0.4664170000000  0.4516870000000 1.0
C      1  0.4508350000000  0.4657960000000  0.4977440000000 1.0
C      1  0.4968690000000  0.4726400000000  0.5450950000000 1.0
C      1  0.5301230000000  0.4832890000000  0.4988520000000 1.0
C      1  0.5008400000000  0.5311920000000  0.5555060000000 1.0
C      1  0.4684840000000  0.5116270000000  0.4991680000000 1.0
C      1  0.5043040000000  0.5140520000000  0.4605610000000 1.0
C      1  0.5452550000000  0.5354430000000  0.4992230000000 1.0
C      1  0.5344050000000  0.5634730000000  0.4653490000000 1.0
C      1  0.4762500000000  0.5597500000000  0.4713850000000 1.0
C      1  0.4621890000000  0.5627030000000  0.5304500000000 1.0
C      1  0.5308560000000  0.5643430000000  0.5405780000000 1.0
C      1  0.5346190000000  0.4413490000000  0.5252980000000 1.0
C      1  0.4687240000000  0.4369180000000  0.5355810000000 1.0
C      1  0.4622720000000  0.4343280000000  0.4670430000000 1.0
C      1  0.5303630000000  0.4357720000000  0.4660090000000 1.0
C      1  0.5495060000000  0.4845610000000  0.5225800000000 1.0
C      1  0.5254940000000  0.4730850000000  0.4397690000000 1.0
C      1  0.4413640000000  0.4741620000000  0.4723780000000 1.0
C      1  0.4716590000000  0.4780290000000  0.5573470000000 1.0
C      1  0.5577770000000  0.5257930000000  0.4754690000000 1.0
C      1  0.5273540000000  0.5219080000000  0.5595000000000 1.0
C      1  0.4511930000000  0.5162360000000  0.5220810000000 1.0
C      1  0.4803750000000  0.5189190000000  0.4458710000000 1.0
C      1  0.5455880000000  0.5401100000000  0.5461270000000 1.0
C      1  0.5441590000000  0.5388760000000  0.4533780000000 1.0
C      1  0.4639110000000  0.5369340000000  0.4601030000000 1.0
C      1  0.4565340000000  0.5363660000000  0.5407900000000 1.0
C      1  0.5443810000000  0.4597140000000  0.4573320000000 1.0
C      1  0.5426010000000  0.4638350000000  0.5409940000000 1.0
C      1  0.4536200000000  0.4596720000000  0.5446090000000 1.0
C      1  0.4541730000000  0.4583050000000  0.4525670000000 1.0
C      1  0.5230540000000  0.5520230000000  0.4899120000000 1.0
C      1  0.4953760000000  0.5554160000000  0.4923440000000 1.0
C      1  0.4871970000000  0.5580880000000  0.5182430000000 1.0
C      1  0.5049680000000  0.5529770000000  0.5379900000000 1.0
C      1  0.5172290000000  0.4556400000000  0.5053660000000 1.0
C      1  0.4901870000000  0.4523870000000  0.5199370000000 1.0
C      1  0.4750470000000  0.4483530000000  0.4911140000000 1.0
C      1  0.5052580000000  0.4492890000000  0.4769040000000 1.0
C      1  0.3982190000000  0.4857720000000  0.3974610000000 1.0
C      1  0.3973490000000  0.4861560000000  0.6007100000000 1.0
C      1  0.6001660000000  0.4863020000000  0.6015220000000 1.0
C      1  0.6005450000000  0.4857990000000  0.3979190000000 1.0
C      1  0.3988130000000  0.5127250000000  0.6013990000000 1.0
C      1  0.3973300000000  0.5123520000000  0.3988820000000 1.0
C      1  0.6001730000000  0.5124120000000  0.3978450000000 1.0
C      1  0.6015180000000  0.5128750000000  0.6011860000000 1.0
C      1  0.5926290000000  0.4578810000000  0.5621360000000 1.0
C      1  0.5628370000000  0.4542510000000  0.4021860000000 1.0
C      1  0.4035100000000  0.4555370000000  0.4358120000000 1.0
C      1  0.4354770000000  0.4554730000000  0.5962320000000 1.0
C      1  0.5955480000000  0.5433400000000  0.4360070000000 1.0
C      1  0.5632900000000  0.5435350000000  0.5967560000000 1.0
C      1  0.4057750000000  0.5422710000000  0.5627620000000 1.0
C      1  0.4366850000000  0.5410480000000  0.4060880000000 1.0
C      1  0.3976080000000  0.5466770000000  0.5172900000000 1.0
C      1  0.5176050000000  0.5476630000000  0.6056020000000 1.0
C      1  0.6042720000000  0.5480170000000  0.4815280000000 1.0
C      1  0.4819000000000  0.5458200000000  0.3971070000000 1.0
C      1  0.3954460000000  0.4518740000000  0.4814860000000 1.0
C      1  0.5170740000000  0.4502310000000  0.3939800000000 1.0
C      1  0.6013610000000  0.4534470000000  0.5169520000000 1.0
C      1  0.4811010000000  0.4517930000000  0.6047400000000 1.0
C      1  0.3945680000000  0.4708790000000  0.4589270000000 1.0
C      1  0.4584030000000  0.4700510000000  0.6069460000000 1.0
C      1  0.6019860000000  0.4722640000000  0.5389850000000 1.0
C      1  0.5398790000000  0.4685390000000  0.3912980000000 1.0
C      1  0.3966900000000  0.5280850000000  0.5394230000000 1.0
C      1  0.4595850000000  0.5274420000000  0.3951470000000 1.0
C      1  0.6052520000000  0.5288830000000  0.4592210000000 1.0
C      1  0.5401490000000  0.5287290000000  0.6069390000000 1.0
C      1  0.5223920000000  0.4752460000000  0.5571360000000 1.0
C      1  0.5511200000000  0.4794940000000  0.4764970000000 1.0
C      1  0.4751400000000  0.4722550000000  0.4407620000000 1.0
C      1  0.4404360000000  0.4715640000000  0.5230360000000 1.0
C      1  0.5268410000000  0.5190750000000  0.4439020000000 1.0
C      1  0.5572380000000  0.5293320000000  0.5236100000000 1.0
C      1  0.4740780000000  0.5251510000000  0.5603670000000 1.0
C      1  0.4500800000000  0.5193010000000  0.4771870000000 1.0
C      1  0.3722060000000  0.5000670000000  0.4991470000000 1.0
C      1  0.6279640000000  0.4997370000000  0.4994710000000 1.0
C      1  0.4991480000000  0.4995110000000  0.6302370000000 1.0
C      1  0.4990890000000  0.4988730000000  0.3705480000000 1.0
C      1  0.4990130000000  0.3887990000000  0.4987030000000 1.0
C      1  0.5005140000000  0.6105770000000  0.5007440000000 1.0
C      1  0.5014950000000  0.5036660000000  0.4881760000000 1.0
END
