TITL C-3623284-6838-1573 -4.37451086064945e-07 125000 -1114.62106769289 0 0 185 (C1) n - 1
REM
REM in /home/nfs/bkarasulu/CARBON/AIRSS/Generating-Clusters/LCBOP/Higher-Symm/SD-CG/FIRE-CG
REM
REM
REM
REM
REM
REM ./C.cell (b20cbc046b6831c77cfcea5457e17084)
REM AIRSS Version 0.9.1 bugfix July 2018 build 013d7b7c2542+ Fri, 06 Jul 2018 19:26:36 +0100
REM compiler GCC version 9.2.1 20190827 (Red Hat 9.2.1-1)
REM options -cpp -mtune=generic -march=x86-64 -g -O0 -fpre-include=/usr/include/finclude/math-vector-fortran.h
REM seed 1649117851 -1340145344 261129799 -1784781255 1019507037 2062607579 966528653 -1513205667 40485183 766211022 332079855 -915863264 624139192 -470886991 719195710 1507757740 557872776 1159141009 1417625414 1041770641 1983089451 786016700 1838546282 317851305 -377872584 1441836558 -829202284 -538121047 1929632880 537546684 -1661358665 -1716248238 792157067
REM
CELL 1.54180   50.00000   50.00000   50.00000   90.00000   90.00000   90.00000
LATT -1
SFAC C  
C      1  0.4460510000000  0.4484890000000  0.4123210000000 1.0
C      1  0.4357430000000  0.4181040000000  0.4473710000000 1.0
C      1  0.4059620000000  0.4550790000000  0.4385150000000 1.0
C      1  0.5391770000000  0.4406180000000  0.5835720000000 1.0
C      1  0.5524890000000  0.5508940000000  0.4176870000000 1.0
C      1  0.4505470000000  0.5602810000000  0.5896460000000 1.0
C      1  0.5522650000000  0.4124940000000  0.5479500000000 1.0
C      1  0.5575100000000  0.5837560000000  0.4540150000000 1.0
C      1  0.4423280000000  0.5881380000000  0.5520710000000 1.0
C      1  0.5789880000000  0.4499070000000  0.5594490000000 1.0
C      1  0.5877540000000  0.5459490000000  0.4481040000000 1.0
C      1  0.4127230000000  0.5524840000000  0.5618560000000 1.0
C      1  0.5188590000000  0.6351680000000  0.5154010000000 1.0
C      1  0.5989850000000  0.5141530000000  0.5295190000000 1.0
C      1  0.5268050000000  0.5333780000000  0.6070370000000 1.0
C      1  0.4849790000000  0.6007860000000  0.4822750000000 1.0
C      1  0.4871970000000  0.3708580000000  0.5018280000000 1.0
C      1  0.5295150000000  0.3975930000000  0.4725930000000 1.0
C      1  0.3653420000000  0.5138380000000  0.4983370000000 1.0
C      1  0.3907380000000  0.4776360000000  0.5354260000000 1.0
C      1  0.6006650000000  0.4810170000000  0.4808380000000 1.0
C      1  0.4968450000000  0.5069780000000  0.3685560000000 1.0
C      1  0.4925770000000  0.4921390000000  0.6285370000000 1.0
C      1  0.5247570000000  0.4699110000000  0.4005790000000 1.0
C      1  0.4597740000000  0.5454310000000  0.4279850000000 1.0
C      1  0.5450700000000  0.4209210000000  0.4592610000000 1.0
C      1  0.4151720000000  0.4622060000000  0.5453070000000 1.0
C      1  0.5417940000000  0.5457870000000  0.5831270000000 1.0
C      1  0.5424280000000  0.4535980000000  0.4209180000000 1.0
C      1  0.4583300000000  0.4563810000000  0.5708380000000 1.0
C      1  0.4479970000000  0.4263010000000  0.5321310000000 1.0
C      1  0.4561030000000  0.5819460000000  0.4673760000000 1.0
C      1  0.5487050000000  0.5748650000000  0.5444780000000 1.0
C      1  0.5808230000000  0.4608340000000  0.4595810000000 1.0
C      1  0.5806590000000  0.5341900000000  0.5476610000000 1.0
C      1  0.4209570000000  0.5442450000000  0.4574110000000 1.0
C      1  0.5516490000000  0.5139250000000  0.4973220000000 1.0
C      1  0.5093090000000  0.4967230000000  0.5524620000000 1.0
C      1  0.4955000000000  0.5547760000000  0.5187020000000 1.0
C      1  0.4401650000000  0.5141880000000  0.5062460000000 1.0
C      1  0.4346880000000  0.4885780000000  0.4936510000000 1.0
C      1  0.5490400000000  0.4863060000000  0.5082610000000 1.0
C      1  0.5098160000000  0.4875840000000  0.4201800000000 1.0
C      1  0.4832430000000  0.5088010000000  0.5544860000000 1.0
C      1  0.5272770000000  0.5067880000000  0.4308260000000 1.0
C      1  0.5079380000000  0.5569970000000  0.4931580000000 1.0
C      1  0.5017680000000  0.4434270000000  0.5067730000000 1.0
C      1  0.4891180000000  0.4462480000000  0.4812110000000 1.0
C      1  0.4655980000000  0.3787400000000  0.5176870000000 1.0
C      1  0.3738330000000  0.5306470000000  0.4776750000000 1.0
C      1  0.5738510000000  0.4261720000000  0.3838840000000 1.0
C      1  0.5812190000000  0.3862580000000  0.4335720000000 1.0
C      1  0.5375670000000  0.6256770000000  0.5340160000000 1.0
C      1  0.4268570000000  0.6241980000000  0.4466920000000 1.0
C      1  0.6234540000000  0.5567770000000  0.5764900000000 1.0
C      1  0.6239700000000  0.4377620000000  0.4329770000000 1.0
C      1  0.3949190000000  0.4242890000000  0.5824470000000 1.0
C      1  0.4767740000000  0.4715800000000  0.6181320000000 1.0
C      1  0.4811050000000  0.5263610000000  0.3816020000000 1.0
C      1  0.5739050000000  0.5823810000000  0.6113070000000 1.0
C      1  0.6076470000000  0.4718680000000  0.5067840000000 1.0
C      1  0.4850740000000  0.5197890000000  0.6286090000000 1.0
C      1  0.5151900000000  0.6040280000000  0.4776210000000 1.0
C      1  0.3769290000000  0.4686820000000  0.5118610000000 1.0
C      1  0.3682680000000  0.5200750000000  0.5261320000000 1.0
C      1  0.6102560000000  0.5224120000000  0.5043900000000 1.0
C      1  0.5399420000000  0.4901700000000  0.3826400000000 1.0
C      1  0.5368650000000  0.5093010000000  0.6191120000000 1.0
C      1  0.4892100000000  0.4792260000000  0.3672470000000 1.0
C      1  0.4907780000000  0.6336030000000  0.5196970000000 1.0
C      1  0.5053190000000  0.3880900000000  0.4603960000000 1.0
C      1  0.5144740000000  0.3704310000000  0.5105330000000 1.0
C      1  0.5380530000000  0.5850640000000  0.4754610000000 1.0
C      1  0.5778600000000  0.4735300000000  0.5440440000000 1.0
C      1  0.4723750000000  0.5434380000000  0.5847980000000 1.0
C      1  0.4573740000000  0.5803880000000  0.5296050000000 1.0
C      1  0.4507400000000  0.4208930000000  0.4709580000000 1.0
C      1  0.5374710000000  0.4179690000000  0.5247940000000 1.0
C      1  0.4041600000000  0.4769820000000  0.4563300000000 1.0
C      1  0.4166910000000  0.5310510000000  0.5442050000000 1.0
C      1  0.5848320000000  0.5228770000000  0.4641010000000 1.0
C      1  0.5309360000000  0.5337060000000  0.4276330000000 1.0
C      1  0.5178290000000  0.4566350000000  0.5745890000000 1.0
C      1  0.4687990000000  0.4644180000000  0.4152250000000 1.0
C      1  0.5636700000000  0.4418280000000  0.4770450000000 1.0
C      1  0.4381300000000  0.4775220000000  0.5627020000000 1.0
C      1  0.4718210000000  0.5659320000000  0.4480700000000 1.0
C      1  0.4272390000000  0.4454140000000  0.5212680000000 1.0
C      1  0.4362560000000  0.5602430000000  0.4795360000000 1.0
C      1  0.5669950000000  0.5551770000000  0.5289530000000 1.0
C      1  0.5603010000000  0.4742330000000  0.4395730000000 1.0
C      1  0.5571250000000  0.5228090000000  0.5674330000000 1.0
C      1  0.4371830000000  0.5276930000000  0.4369380000000 1.0
C      1  0.5261140000000  0.5642110000000  0.5621820000000 1.0
C      1  0.5236630000000  0.4358150000000  0.4400180000000 1.0
C      1  0.4701440000000  0.4395530000000  0.5475680000000 1.0
C      1  0.5346320000000  0.3826080000000  0.4963950000000 1.0
C      1  0.3800670000000  0.5027190000000  0.5438360000000 1.0
C      1  0.5254730000000  0.5091430000000  0.3690430000000 1.0
C      1  0.4856440000000  0.3747720000000  0.4736210000000 1.0
C      1  0.4757700000000  0.6181760000000  0.5029540000000 1.0
C      1  0.5246300000000  0.6293450000000  0.4880510000000 1.0
C      1  0.6040240000000  0.5095400000000  0.4793080000000 1.0
C      1  0.5995660000000  0.4851860000000  0.5309660000000 1.0
C      1  0.3645420000000  0.4855650000000  0.4944070000000 1.0
C      1  0.5014830000000  0.5395080000000  0.6187060000000 1.0
C      1  0.5039750000000  0.4600920000000  0.3808210000000 1.0
C      1  0.5209760000000  0.4895020000000  0.6290150000000 1.0
C      1  0.4888090000000  0.4585560000000  0.5292190000000 1.0
C      1  0.4537330000000  0.5391840000000  0.4953410000000 1.0
C      1  0.5413480000000  0.4950190000000  0.4542270000000 1.0
C      1  0.5013340000000  0.4520890000000  0.4549090000000 1.0
C      1  0.5043720000000  0.5505020000000  0.5458210000000 1.0
C      1  0.4935870000000  0.5496530000000  0.4664410000000 1.0
C      1  0.5505350000000  0.5417310000000  0.5067800000000 1.0
C      1  0.5466760000000  0.4587150000000  0.4968650000000 1.0
C      1  0.4429320000000  0.4614610000000  0.4999450000000 1.0
C      1  0.4554640000000  0.4997390000000  0.5495920000000 1.0
C      1  0.4464000000000  0.5021290000000  0.4507710000000 1.0
C      1  0.5375460000000  0.5043200000000  0.5519900000000 1.0
C      1  0.5827480000000  0.4255470000000  0.4952340000000 1.0
C      1  0.4256780000000  0.4939660000000  0.5860360000000 1.0
C      1  0.4896110000000  0.5847380000000  0.4314160000000 1.0
C      1  0.4064740000000  0.4309130000000  0.5036720000000 1.0
C      1  0.4159850000000  0.5734920000000  0.4980920000000 1.0
C      1  0.5876180000000  0.5708450000000  0.5125030000000 1.0
C      1  0.5778600000000  0.4904170000000  0.4194850000000 1.0
C      1  0.5705660000000  0.5034810000000  0.5876380000000 1.0
C      1  0.4216650000000  0.5148990000000  0.4135970000000 1.0
C      1  0.5090280000000  0.5863400000000  0.5759920000000 1.0
C      1  0.5045560000000  0.4172130000000  0.4231530000000 1.0
C      1  0.4872940000000  0.4171350000000  0.5600510000000 1.0
C      1  0.5497380000000  0.6029610000000  0.5412390000000 1.0
C      1  0.6020160000000  0.5474570000000  0.5650090000000 1.0
C      1  0.5615100000000  0.5646270000000  0.5968300000000 1.0
C      1  0.4408680000000  0.6046340000000  0.4566610000000 1.0
C      1  0.4503290000000  0.3989250000000  0.5262110000000 1.0
C      1  0.5657520000000  0.4050700000000  0.4428410000000 1.0
C      1  0.3933680000000  0.5397990000000  0.4619110000000 1.0
C      1  0.4038400000000  0.4420510000000  0.5656360000000 1.0
C      1  0.6023840000000  0.4466800000000  0.4445140000000 1.0
C      1  0.4710830000000  0.5398810000000  0.4024690000000 1.0
C      1  0.4673690000000  0.4574310000000  0.5975210000000 1.0
C      1  0.5603700000000  0.4367640000000  0.4035050000000 1.0
C      1  0.5787200000000  0.5409310000000  0.4213040000000 1.0
C      1  0.5366970000000  0.4144140000000  0.5718290000000 1.0
C      1  0.4155130000000  0.5780080000000  0.5491210000000 1.0
C      1  0.4252000000000  0.5469010000000  0.5871870000000 1.0
C      1  0.4207470000000  0.4619180000000  0.4145920000000 1.0
C      1  0.5649970000000  0.4530160000000  0.5843590000000 1.0
C      1  0.4507270000000  0.4222550000000  0.4232370000000 1.0
C      1  0.4559680000000  0.5858910000000  0.5771840000000 1.0
C      1  0.5453600000000  0.5779290000000  0.4283990000000 1.0
C      1  0.5827110000000  0.5713640000000  0.4608060000000 1.0
C      1  0.5781900000000  0.4246710000000  0.5460840000000 1.0
C      1  0.4094800000000  0.4295410000000  0.4512730000000 1.0
C      1  0.4777720000000  0.4126250000000  0.4198780000000 1.0
C      1  0.3993660000000  0.4261370000000  0.4779180000000 1.0
C      1  0.4179180000000  0.4890710000000  0.4056510000000 1.0
C      1  0.5096440000000  0.4057290000000  0.5698820000000 1.0
C      1  0.5165890000000  0.5763340000000  0.4312890000000 1.0
C      1  0.4833140000000  0.5945010000000  0.5795030000000 1.0
C      1  0.5904100000000  0.4211520000000  0.5207250000000 1.0
C      1  0.5930670000000  0.5763270000000  0.4866910000000 1.0
C      1  0.4059770000000  0.5800690000000  0.5222900000000 1.0
C      1  0.5703130000000  0.4779690000000  0.5965230000000 1.0
C      1  0.5847010000000  0.5151340000000  0.4112730000000 1.0
C      1  0.4227600000000  0.5193810000000  0.5953180000000 1.0
C      1  0.4372340000000  0.5154570000000  0.5339590000000 1.0
C      1  0.5144420000000  0.5493270000000  0.4445320000000 1.0
C      1  0.5290150000000  0.4396320000000  0.5096030000000 1.0
C      1  0.5589180000000  0.5131860000000  0.4698110000000 1.0
C      1  0.5532890000000  0.4857570000000  0.5363490000000 1.0
C      1  0.4259300000000  0.4908250000000  0.4670680000000 1.0
C      1  0.4861820000000  0.5354970000000  0.5621490000000 1.0
C      1  0.4880630000000  0.4736510000000  0.4359690000000 1.0
C      1  0.5069690000000  0.4687640000000  0.5516700000000 1.0
C      1  0.4605830000000  0.4442280000000  0.4833830000000 1.0
C      1  0.4671960000000  0.5577340000000  0.5165010000000 1.0
C      1  0.5353460000000  0.5613680000000  0.4917440000000 1.0
C      1  0.4827250000000  0.4867080000000  0.5092790000000 1.0
C      1  0.4769930000000  0.5282590000000  0.4788430000000 1.0
C      1  0.5165080000000  0.4934230000000  0.4733730000000 1.0
C      1  0.4723270000000  0.4905850000000  0.4547680000000 1.0
C      1  0.4868960000000  0.4998760000000  0.4800710000000 1.0
END
