TITL C-3623285-6872-1606 -4.83322369037427e-08 125000 -14.6332359548069 0 0 5 (Td) n - 1
REM
REM in /home/nfs/bkarasulu/CARBON/AIRSS/Generating-Clusters/LCBOP/Higher-Symm/SD-CG/FIRE-CG
REM
REM
REM
REM
REM
REM ./C.cell (b20cbc046b6831c77cfcea5457e17084)
REM AIRSS Version 0.9.1 bugfix July 2018 build 013d7b7c2542+ Fri, 06 Jul 2018 19:26:36 +0100
REM compiler GCC version 9.2.1 20190827 (Red Hat 9.2.1-1)
REM options -cpp -mtune=generic -march=x86-64 -g -O0 -fpre-include=/usr/include/finclude/math-vector-fortran.h
REM seed 261645863 -365317467 -14591261 1096282954 207820864 1526765928 433459967 -1907132494 2136597596 -1520144043 -1220611497 1598478581 -1084108929 505334655 -1378013229 760927230 -1801035573 791791422 1870575378 199983106 -997649468 727712443 -1923984659 -2094847962 -321036017 1166247150 529188835 -180874117 747479997 1262024635 -46878340 1969697908 -500110368
REM
CELL 1.54180   50.00000   50.00000   50.00000   90.00000   90.00000   90.00000
LATT -1
SFAC C  
C      1  0.5143990000000  0.4837450000000  0.4833050000000 1.0
C      1  0.5143990000000  0.5187820000000  0.5183420000000 1.0
C      1  0.4793630000000  0.5187820000000  0.4833050000000 1.0
C      1  0.4793630000000  0.4837450000000  0.5183420000000 1.0
C      1  0.4968810000000  0.5012640000000  0.5008230000000 1.0
END
