TITL C-3623285-6872-1214 2.38947803204578 125000 -1241.24595934958 0 0 200 (C1) n - 1
REM
REM in /home/nfs/bkarasulu/CARBON/AIRSS/Generating-Clusters/LCBOP/Higher-Symm/SD-CG/FIRE-CG
REM
REM
REM
REM
REM
REM ./C.cell (b20cbc046b6831c77cfcea5457e17084)
REM AIRSS Version 0.9.1 bugfix July 2018 build 013d7b7c2542+ Fri, 06 Jul 2018 19:26:36 +0100
REM compiler GCC version 9.2.1 20190827 (Red Hat 9.2.1-1)
REM options -cpp -mtune=generic -march=x86-64 -g -O0 -fpre-include=/usr/include/finclude/math-vector-fortran.h
REM seed -161712161 -1118465372 1025454217 2118450481 -1084451551 -666911508 -802959437 746451662 1087638010 1980021912 76963764 2003242029 388515231 -1932159438 -908505885 -548856921 1730225921 -1566936727 -1667219879 1589738894 -700555778 875890481 -779680582 1947868416 -511615314 -284041201 -1387396808 -1541283781 -1929377484 -1917704079 918470886 1512821026 -349062211
REM
CELL 1.54180   50.00000   50.00000   50.00000   90.00000   90.00000   90.00000
LATT -1
SFAC C  
C      1  0.4381220000000  0.5996950000000  0.5325000000000 1.0
C      1  0.4337250000000  0.4778290000000  0.3903660000000 1.0
C      1  0.4379190000000  0.4203840000000  0.5738060000000 1.0
C      1  0.5077190000000  0.5648790000000  0.5189730000000 1.0
C      1  0.4755560000000  0.4942930000000  0.4356560000000 1.0
C      1  0.4922750000000  0.4484700000000  0.5386260000000 1.0
C      1  0.5842190000000  0.4723200000000  0.5096010000000 1.0
C      1  0.5801060000000  0.5244770000000  0.4997370000000 1.0
C      1  0.5816060000000  0.4990600000000  0.4527250000000 1.0
C      1  0.5643950000000  0.5560100000000  0.3990520000000 1.0
C      1  0.5690740000000  0.3907570000000  0.5151090000000 1.0
C      1  0.5673610000000  0.5630270000000  0.6001630000000 1.0
C      1  0.4003710000000  0.5221000000000  0.5190800000000 1.0
C      1  0.3971820000000  0.5042330000000  0.4708930000000 1.0
C      1  0.3996320000000  0.4720020000000  0.5121390000000 1.0
C      1  0.5533970000000  0.4925410000000  0.3712520000000 1.0
C      1  0.5313210000000  0.3550000000000  0.5814370000000 1.0
C      1  0.5275850000000  0.6411130000000  0.5864790000000 1.0
C      1  0.5834390000000  0.5406000000000  0.6109820000000 1.0
C      1  0.5769080000000  0.5664680000000  0.4244030000000 1.0
C      1  0.5916450000000  0.4030780000000  0.4997480000000 1.0
C      1  0.4696760000000  0.5892220000000  0.4226750000000 1.0
C      1  0.4688400000000  0.3857300000000  0.4625700000000 1.0
C      1  0.4802040000000  0.5210620000000  0.6095250000000 1.0
C      1  0.5023580000000  0.5515990000000  0.4335450000000 1.0
C      1  0.5007260000000  0.4186100000000  0.4861050000000 1.0
C      1  0.5157620000000  0.5241110000000  0.5676270000000 1.0
C      1  0.5320030000000  0.6222830000000  0.6048870000000 1.0
C      1  0.5528870000000  0.5153780000000  0.3566430000000 1.0
C      1  0.5360650000000  0.3486490000000  0.5559300000000 1.0
C      1  0.3988300000000  0.4893300000000  0.5742110000000 1.0
C      1  0.3929800000000  0.5649630000000  0.4729810000000 1.0
C      1  0.3928020000000  0.4421260000000  0.4588430000000 1.0
C      1  0.4500220000000  0.5112460000000  0.5232930000000 1.0
C      1  0.4458760000000  0.5179520000000  0.4754700000000 1.0
C      1  0.4459200000000  0.4732660000000  0.4941640000000 1.0
C      1  0.4917240000000  0.5181110000000  0.5300150000000 1.0
C      1  0.4943940000000  0.5250450000000  0.4701700000000 1.0
C      1  0.4873500000000  0.4625480000000  0.4913730000000 1.0
C      1  0.4570440000000  0.4344230000000  0.4649430000000 1.0
C      1  0.4687330000000  0.5029280000000  0.5678230000000 1.0
C      1  0.4641630000000  0.5630880000000  0.4641770000000 1.0
C      1  0.5111430000000  0.4328160000000  0.4407220000000 1.0
C      1  0.5348500000000  0.4829770000000  0.5791470000000 1.0
C      1  0.5292790000000  0.5838370000000  0.4595790000000 1.0
C      1  0.4881940000000  0.4675710000000  0.5188670000000 1.0
C      1  0.5031270000000  0.5378600000000  0.5139230000000 1.0
C      1  0.4858690000000  0.5007020000000  0.4603030000000 1.0
C      1  0.5215270000000  0.4144410000000  0.6228110000000 1.0
C      1  0.5198640000000  0.6482920000000  0.5139310000000 1.0
C      1  0.5182870000000  0.4324210000000  0.3880610000000 1.0
C      1  0.4613780000000  0.4823990000000  0.3809550000000 1.0
C      1  0.4652650000000  0.4108020000000  0.5736510000000 1.0
C      1  0.4663220000000  0.6032910000000  0.5381670000000 1.0
C      1  0.4993740000000  0.4533440000000  0.6023450000000 1.0
C      1  0.4966150000000  0.6144700000000  0.4863430000000 1.0
C      1  0.4754520000000  0.4275820000000  0.4073740000000 1.0
C      1  0.5108280000000  0.4460100000000  0.5577350000000 1.0
C      1  0.5271710000000  0.5805940000000  0.5062220000000 1.0
C      1  0.4804080000000  0.4702240000000  0.4258550000000 1.0
C      1  0.4898260000000  0.5198700000000  0.5575280000000 1.0
C      1  0.4871370000000  0.5479940000000  0.4578100000000 1.0
C      1  0.4801560000000  0.4382380000000  0.4814700000000 1.0
C      1  0.5379780000000  0.3548980000000  0.5299730000000 1.0
C      1  0.5340420000000  0.5967750000000  0.6126490000000 1.0
C      1  0.5441500000000  0.5412260000000  0.3577460000000 1.0
C      1  0.4048000000000  0.5585310000000  0.5503960000000 1.0
C      1  0.4002710000000  0.5110780000000  0.4219670000000 1.0
C      1  0.4039580000000  0.4265880000000  0.5303390000000 1.0
C      1  0.5397650000000  0.3783980000000  0.5115960000000 1.0
C      1  0.5381870000000  0.5688170000000  0.6026360000000 1.0
C      1  0.5357480000000  0.5542840000000  0.3842290000000 1.0
C      1  0.4891940000000  0.4368250000000  0.3839650000000 1.0
C      1  0.4987950000000  0.4257720000000  0.6095360000000 1.0
C      1  0.4973850000000  0.6311170000000  0.5093580000000 1.0
C      1  0.6067910000000  0.4552590000000  0.5048440000000 1.0
C      1  0.5824670000000  0.5007770000000  0.5176790000000 1.0
C      1  0.5895280000000  0.5249490000000  0.4672750000000 1.0
C      1  0.5557870000000  0.5359330000000  0.5412070000000 1.0
C      1  0.5452410000000  0.5244880000000  0.4391920000000 1.0
C      1  0.5476080000000  0.4391870000000  0.4908740000000 1.0
C      1  0.5850850000000  0.5362310000000  0.3913910000000 1.0
C      1  0.5749370000000  0.4017320000000  0.5420440000000 1.0
C      1  0.5859640000000  0.5793780000000  0.5847470000000 1.0
C      1  0.4895960000000  0.6409640000000  0.5562330000000 1.0
C      1  0.5085050000000  0.4783710000000  0.3720910000000 1.0
C      1  0.4922550000000  0.3792270000000  0.5972460000000 1.0
C      1  0.4257370000000  0.5030680000000  0.4631030000000 1.0
C      1  0.4285970000000  0.4681980000000  0.5150360000000 1.0
C      1  0.4291160000000  0.5291530000000  0.5192010000000 1.0
C      1  0.5179200000000  0.5304260000000  0.3956450000000 1.0
C      1  0.5227900000000  0.4022160000000  0.5234070000000 1.0
C      1  0.5243630000000  0.5680570000000  0.5744270000000 1.0
C      1  0.5436180000000  0.4724800000000  0.5298960000000 1.0
C      1  0.5511920000000  0.5658460000000  0.4989310000000 1.0
C      1  0.5389650000000  0.4778390000000  0.4468880000000 1.0
C      1  0.5337090000000  0.5447840000000  0.5586030000000 1.0
C      1  0.5231310000000  0.5317830000000  0.4244210000000 1.0
C      1  0.5258910000000  0.4232970000000  0.5021200000000 1.0
C      1  0.6196770000000  0.5172650000000  0.4725560000000 1.0
C      1  0.6275220000000  0.4691630000000  0.4913510000000 1.0
C      1  0.6309810000000  0.4939100000000  0.4807050000000 1.0
C      1  0.4828650000000  0.5681380000000  0.6006620000000 1.0
C      1  0.4807940000000  0.5476420000000  0.4116820000000 1.0
C      1  0.4843030000000  0.3983270000000  0.5024480000000 1.0
C      1  0.5756660000000  0.4220660000000  0.4495500000000 1.0
C      1  0.5578940000000  0.4758710000000  0.6501860000000 1.0
C      1  0.5763560000000  0.6442870000000  0.4442810000000 1.0
C      1  0.5194690000000  0.3716750000000  0.6004470000000 1.0
C      1  0.5162550000000  0.6488460000000  0.5621680000000 1.0
C      1  0.5347470000000  0.4753890000000  0.3836060000000 1.0
C      1  0.5002110000000  0.3818200000000  0.4609090000000 1.0
C      1  0.5101730000000  0.5220310000000  0.6119000000000 1.0
C      1  0.4999530000000  0.5917540000000  0.4131430000000 1.0
C      1  0.4262790000000  0.5784830000000  0.5478930000000 1.0
C      1  0.4198990000000  0.5010210000000  0.4015240000000 1.0
C      1  0.4238660000000  0.4156100000000  0.5490520000000 1.0
C      1  0.3922800000000  0.4538150000000  0.5348090000000 1.0
C      1  0.3907430000000  0.5497360000000  0.5248310000000 1.0
C      1  0.3869250000000  0.4938110000000  0.4442080000000 1.0
C      1  0.4117640000000  0.4152210000000  0.5028780000000 1.0
C      1  0.4148400000000  0.5404540000000  0.5735820000000 1.0
C      1  0.4089430000000  0.5404280000000  0.4268290000000 1.0
C      1  0.4426540000000  0.4588280000000  0.4691300000000 1.0
C      1  0.4503890000000  0.4953350000000  0.5475850000000 1.0
C      1  0.4456820000000  0.5469910000000  0.4783990000000 1.0
C      1  0.4747250000000  0.6107460000000  0.4688780000000 1.0
C      1  0.4570890000000  0.4106870000000  0.4200770000000 1.0
C      1  0.4784840000000  0.4720390000000  0.6056620000000 1.0
C      1  0.4369170000000  0.3983200000000  0.5054250000000 1.0
C      1  0.4424100000000  0.5487030000000  0.5833490000000 1.0
C      1  0.4337040000000  0.5471480000000  0.4108960000000 1.0
C      1  0.5209970000000  0.3715410000000  0.4817380000000 1.0
C      1  0.5238760000000  0.5465430000000  0.6186660000000 1.0
C      1  0.5164310000000  0.5805280000000  0.3897340000000 1.0
C      1  0.5180220000000  0.4595420000000  0.5813150000000 1.0
C      1  0.5181720000000  0.5963150000000  0.4834990000000 1.0
C      1  0.4885380000000  0.4438350000000  0.4273610000000 1.0
C      1  0.5591520000000  0.4581820000000  0.5103280000000 1.0
C      1  0.5638600000000  0.5452500000000  0.5137940000000 1.0
C      1  0.5565050000000  0.4982240000000  0.4394970000000 1.0
C      1  0.4958760000000  0.5763710000000  0.5758440000000 1.0
C      1  0.4886320000000  0.5281730000000  0.3920130000000 1.0
C      1  0.4939620000000  0.3972600000000  0.5293700000000 1.0
C      1  0.4301390000000  0.5527430000000  0.5011790000000 1.0
C      1  0.4272920000000  0.4750820000000  0.4522810000000 1.0
C      1  0.4333670000000  0.4730990000000  0.5439470000000 1.0
C      1  0.5310840000000  0.5031720000000  0.4919720000000 1.0
C      1  0.5265230000000  0.4837570000000  0.4713210000000 1.0
C      1  0.5271660000000  0.4910550000000  0.5169680000000 1.0
C      1  0.5542540000000  0.4362730000000  0.4607580000000 1.0
C      1  0.5677560000000  0.5081270000000  0.5439430000000 1.0
C      1  0.5575980000000  0.5415040000000  0.4576350000000 1.0
C      1  0.4745000000000  0.5831060000000  0.5577480000000 1.0
C      1  0.4656280000000  0.5119480000000  0.3852210000000 1.0
C      1  0.4710880000000  0.3999090000000  0.5469290000000 1.0
C      1  0.6020260000000  0.3934520000000  0.4756740000000 1.0
C      1  0.5754600000000  0.5195910000000  0.6270500000000 1.0
C      1  0.5780330000000  0.5935290000000  0.4309050000000 1.0
C      1  0.5522860000000  0.4852740000000  0.5550210000000 1.0
C      1  0.5496880000000  0.5648850000000  0.4697440000000 1.0
C      1  0.5364930000000  0.4494160000000  0.4378460000000 1.0
C      1  0.5137520000000  0.5263110000000  0.4901200000000 1.0
C      1  0.4988010000000  0.4794030000000  0.4727660000000 1.0
C      1  0.5002900000000  0.4919700000000  0.5240730000000 1.0
C      1  0.4711650000000  0.4973830000000  0.5957090000000 1.0
C      1  0.4651410000000  0.5899250000000  0.4522890000000 1.0
C      1  0.4567720000000  0.4093510000000  0.4486240000000 1.0
C      1  0.4653040000000  0.5452690000000  0.6022160000000 1.0
C      1  0.4572630000000  0.5639760000000  0.4127130000000 1.0
C      1  0.4598210000000  0.3892940000000  0.4904440000000 1.0
C      1  0.5357540000000  0.4521220000000  0.4011840000000 1.0
C      1  0.5327280000000  0.3901050000000  0.6175710000000 1.0
C      1  0.5300150000000  0.6555570000000  0.5382050000000 1.0
C      1  0.6024090000000  0.5305570000000  0.4123750000000 1.0
C      1  0.5938340000000  0.4221690000000  0.5411340000000 1.0
C      1  0.6113300000000  0.5681470000000  0.5855950000000 1.0
C      1  0.6104660000000  0.5450830000000  0.6010190000000 1.0
C      1  0.5952020000000  0.5453880000000  0.4361310000000 1.0
C      1  0.6025820000000  0.4276940000000  0.5136890000000 1.0
C      1  0.4836640000000  0.4647770000000  0.3756540000000 1.0
C      1  0.4828340000000  0.4061520000000  0.5950490000000 1.0
C      1  0.4818520000000  0.6259810000000  0.5331960000000 1.0
C      1  0.4023460000000  0.5632270000000  0.4997960000000 1.0
C      1  0.3998410000000  0.4664210000000  0.4455920000000 1.0
C      1  0.4070870000000  0.4686030000000  0.5570570000000 1.0
C      1  0.5945620000000  0.4034150000000  0.4519260000000 1.0
C      1  0.5676100000000  0.4976880000000  0.6397330000000 1.0
C      1  0.5780760000000  0.6193030000000  0.4370420000000 1.0
C      1  0.4439970000000  0.4000280000000  0.5336940000000 1.0
C      1  0.4491780000000  0.5695360000000  0.5642110000000 1.0
C      1  0.4394360000000  0.5228170000000  0.3953350000000 1.0
C      1  0.3976490000000  0.5563470000000  0.4476690000000 1.0
C      1  0.3993550000000  0.4248640000000  0.4788860000000 1.0
C      1  0.4029730000000  0.5154300000000  0.5792820000000 1.0
C      1  0.5234880000000  0.5075740000000  0.5895710000000 1.0
C      1  0.5141820000000  0.5792930000000  0.4360070000000 1.0
C      1  0.5084110000000  0.4102420000000  0.4582230000000 1.0
C      1  0.3933790000000  0.4993380000000  0.5008740000000 1.0
C      1  0.4551530000000  0.5005430000000  0.4968870000000 1.0
END
