TITL C-3623289-7120-1464 -2.20354787315577e-07 125000 -13.4215031952081 0 0 7 (C3v) n - 1
REM
REM in /home/nfs/bkarasulu/CARBON/AIRSS/Generating-Clusters/LCBOP/Higher-Symm/SD-CG/FIRE-CG
REM
REM
REM
REM
REM
REM ./C.cell (b20cbc046b6831c77cfcea5457e17084)
REM AIRSS Version 0.9.1 bugfix July 2018 build 013d7b7c2542+ Fri, 06 Jul 2018 19:26:36 +0100
REM compiler GCC version 9.2.1 20190827 (Red Hat 9.2.1-1)
REM options -cpp -mtune=generic -march=x86-64 -g -O0 -fpre-include=/usr/include/finclude/math-vector-fortran.h
REM seed -338687382 1958296571 1661897617 -177033495 -1615079367 1601125118 -1473627877 -1586573001 517350143 366769403 -909756210 596491080 807143730 2366768 1947345783 1577805766 -206777983 451683172 365186213 1511434787 2007856506 1996815787 -131659773 477756779 -143602871 1817723380 -58551770 1055857117 1022332641 1981271123 -676307903 711412585 960085010
REM
CELL 1.54180   50.00000   50.00000   50.00000   90.00000   90.00000   90.00000
LATT -1
SFAC C  
C      1  0.5336790000000  0.5006500000000  0.5007560000000 1.0
C      1  0.4659550000000  0.5014810000000  0.5015870000000 1.0
C      1  0.4988900000000  0.5014810000000  0.5345220000000 1.0
C      1  0.4997210000000  0.5006500000000  0.4667980000000 1.0
C      1  0.4997210000000  0.4666920000000  0.5007560000000 1.0
C      1  0.4988900000000  0.5344170000000  0.5015870000000 1.0
C      1  0.5007640000000  0.4996070000000  0.4997130000000 1.0
END
