TITL C-3623285-6872-1306 262723.915964303 125000 -1119.57739071645 0 0 184 (C1) n - 1
REM
REM in /home/nfs/bkarasulu/CARBON/AIRSS/Generating-Clusters/LCBOP/Higher-Symm/SD-CG/FIRE-CG
REM
REM
REM
REM
REM
REM ./C.cell (b20cbc046b6831c77cfcea5457e17084)
REM AIRSS Version 0.9.1 bugfix July 2018 build 013d7b7c2542+ Fri, 06 Jul 2018 19:26:36 +0100
REM compiler GCC version 9.2.1 20190827 (Red Hat 9.2.1-1)
REM options -cpp -mtune=generic -march=x86-64 -g -O0 -fpre-include=/usr/include/finclude/math-vector-fortran.h
REM seed 35434873 762927373 -673677048 1075397450 -496350614 -73882106 205212556 609594092 -500888444 1311105378 -1875389917 1564644233 1668059436 1149861823 1290793554 870708157 -475341886 -507132371 -141040947 -203882230 122509659 -339883214 2079982814 -1973208118 2004417337 -761245422 1355706281 -1705892924 -1508700398 1435654123 -1513174000 -281820763 1843508182
REM
CELL 1.54180   50.00000   50.00000   50.00000   90.00000   90.00000   90.00000
LATT -1
SFAC C  
C      1  0.4703140000000  0.5986020000000  0.4118970000000 1.0
C      1  0.5335740000000  0.4061180000000  0.5917760000000 1.0
C      1  0.5724750000000  0.4347730000000  0.4133870000000 1.0
C      1  0.4185810000000  0.5614350000000  0.5847700000000 1.0
C      1  0.5647660000000  0.5104940000000  0.4145590000000 1.0
C      1  0.4324060000000  0.4857830000000  0.5804800000000 1.0
C      1  0.5037330000000  0.5388230000000  0.6272210000000 1.0
C      1  0.4897430000000  0.4652310000000  0.3694730000000 1.0
C      1  0.5272270000000  0.5000380000000  0.4556110000000 1.0
C      1  0.4756320000000  0.4998560000000  0.5384810000000 1.0
C      1  0.5291100000000  0.4503990000000  0.3977420000000 1.0
C      1  0.4617460000000  0.5488060000000  0.6009920000000 1.0
C      1  0.4241680000000  0.5835810000000  0.5696460000000 1.0
C      1  0.5652800000000  0.4191050000000  0.4364110000000 1.0
C      1  0.5423170000000  0.5346120000000  0.5077460000000 1.0
C      1  0.4601060000000  0.4673550000000  0.4906820000000 1.0
C      1  0.5536130000000  0.4957710000000  0.6245070000000 1.0
C      1  0.4420000000000  0.5101180000000  0.3730640000000 1.0
C      1  0.5930510000000  0.5883520000000  0.5149360000000 1.0
C      1  0.4354380000000  0.4082630000000  0.4688720000000 1.0
C      1  0.5280940000000  0.4200150000000  0.6419820000000 1.0
C      1  0.4718700000000  0.5839740000000  0.3616200000000 1.0
C      1  0.4034550000000  0.4518630000000  0.4944500000000 1.0
C      1  0.5979440000000  0.5417540000000  0.5019770000000 1.0
C      1  0.4341440000000  0.5753310000000  0.4550640000000 1.0
C      1  0.5668660000000  0.4304690000000  0.5487790000000 1.0
C      1  0.4532560000000  0.4447580000000  0.4241340000000 1.0
C      1  0.5375910000000  0.5553770000000  0.5699650000000 1.0
C      1  0.5496170000000  0.4488180000000  0.5056990000000 1.0
C      1  0.4638280000000  0.5603750000000  0.5063140000000 1.0
C      1  0.5397720000000  0.5749500000000  0.4246610000000 1.0
C      1  0.4619940000000  0.4237290000000  0.5739060000000 1.0
C      1  0.4584320000000  0.4319520000000  0.6015870000000 1.0
C      1  0.5426190000000  0.5681280000000  0.3966160000000 1.0
C      1  0.4636050000000  0.4625580000000  0.3789080000000 1.0
C      1  0.5294960000000  0.5420650000000  0.6167840000000 1.0
C      1  0.4792960000000  0.6040740000000  0.4893060000000 1.0
C      1  0.5238010000000  0.4000430000000  0.5135770000000 1.0
C      1  0.5427290000000  0.4900620000000  0.6491190000000 1.0
C      1  0.4528780000000  0.5165990000000  0.3487140000000 1.0
C      1  0.5108870000000  0.4982210000000  0.4318140000000 1.0
C      1  0.4899180000000  0.5025340000000  0.5631420000000 1.0
C      1  0.5474490000000  0.6025150000000  0.4644550000000 1.0
C      1  0.4594240000000  0.3830140000000  0.5436760000000 1.0
C      1  0.6076070000000  0.4616940000000  0.5599130000000 1.0
C      1  0.3952890000000  0.5384080000000  0.4499010000000 1.0
C      1  0.4771800000000  0.5992310000000  0.4388160000000 1.0
C      1  0.5271330000000  0.4042630000000  0.5648480000000 1.0
C      1  0.5983990000000  0.5151770000000  0.5458670000000 1.0
C      1  0.4003130000000  0.4860380000000  0.4561140000000 1.0
C      1  0.4720200000000  0.5143020000000  0.4935140000000 1.0
C      1  0.5129150000000  0.4903470000000  0.5022140000000 1.0
C      1  0.5256610000000  0.5184380000000  0.4836520000000 1.0
C      1  0.4821130000000  0.4897720000000  0.5093380000000 1.0
C      1  0.5606270000000  0.4356830000000  0.4594140000000 1.0
C      1  0.4122840000000  0.5417530000000  0.5262600000000 1.0
C      1  0.5681540000000  0.4949340000000  0.5143770000000 1.0
C      1  0.4459830000000  0.5079580000000  0.4799120000000 1.0
C      1  0.4934420000000  0.5520920000000  0.5414420000000 1.0
C      1  0.4957990000000  0.4466710000000  0.4604480000000 1.0
C      1  0.5031090000000  0.3864150000000  0.5280170000000 1.0
C      1  0.5042710000000  0.6083540000000  0.4766990000000 1.0
C      1  0.5320680000000  0.5976430000000  0.4399220000000 1.0
C      1  0.4728450000000  0.3999000000000  0.5632290000000 1.0
C      1  0.4602330000000  0.5294480000000  0.4382160000000 1.0
C      1  0.5366300000000  0.4714900000000  0.5675170000000 1.0
C      1  0.4695810000000  0.5927700000000  0.3860570000000 1.0
C      1  0.5324760000000  0.4117030000000  0.6176610000000 1.0
C      1  0.5947330000000  0.4866540000000  0.5514270000000 1.0
C      1  0.3916820000000  0.5107510000000  0.4441460000000 1.0
C      1  0.5013900000000  0.3964140000000  0.5560710000000 1.0
C      1  0.5041000000000  0.6040970000000  0.4477140000000 1.0
C      1  0.3806800000000  0.5000650000000  0.4996080000000 1.0
C      1  0.6339140000000  0.5055220000000  0.5126050000000 1.0
C      1  0.3438580000000  0.5035580000000  0.5323560000000 1.0
C      1  0.6686080000000  0.5011730000000  0.4781790000000 1.0
C      1  0.4848050000000  0.4882080000000  0.4307130000000 1.0
C      1  0.5148990000000  0.5151250000000  0.5620840000000 1.0
C      1  0.4035270000000  0.5430230000000  0.4774330000000 1.0
C      1  0.6325680000000  0.4627940000000  0.5458150000000 1.0
C      1  0.4256730000000  0.4327120000000  0.4856020000000 1.0
C      1  0.5809320000000  0.5644770000000  0.5085280000000 1.0
C      1  0.4291990000000  0.5113560000000  0.5901310000000 1.0
C      1  0.5656010000000  0.4845390000000  0.4057930000000 1.0
C      1  0.5338100000000  0.5489410000000  0.4398370000000 1.0
C      1  0.4667250000000  0.4494210000000  0.5575350000000 1.0
C      1  0.5728340000000  0.5286650000000  0.5469750000000 1.0
C      1  0.4261050000000  0.4751960000000  0.4505050000000 1.0
C      1  0.4399430000000  0.5797260000000  0.5234600000000 1.0
C      1  0.5778810000000  0.4097890000000  0.4954350000000 1.0
C      1  0.4142460000000  0.5688340000000  0.5209620000000 1.0
C      1  0.5622840000000  0.4307010000000  0.4868490000000 1.0
C      1  0.4694330000000  0.5060170000000  0.6243710000000 1.0
C      1  0.5273560000000  0.4943670000000  0.3727100000000 1.0
C      1  0.5248620000000  0.4646240000000  0.5098550000000 1.0
C      1  0.4754640000000  0.5417810000000  0.4880730000000 1.0
C      1  0.4658220000000  0.4025600000000  0.4707810000000 1.0
C      1  0.5237100000000  0.5994000000000  0.5381880000000 1.0
C      1  0.6125860000000  0.5233550000000  0.5215320000000 1.0
C      1  0.3906820000000  0.4773490000000  0.4818600000000 1.0
C      1  0.5139090000000  0.5177800000000  0.4111000000000 1.0
C      1  0.4856800000000  0.4842770000000  0.5851500000000 1.0
C      1  0.5172760000000  0.4335350000000  0.4201670000000 1.0
C      1  0.4710250000000  0.5659590000000  0.5787070000000 1.0
C      1  0.4945280000000  0.6045430000000  0.5439150000000 1.0
C      1  0.5008020000000  0.3964020000000  0.4597780000000 1.0
C      1  0.5145100000000  0.4080320000000  0.4855290000000 1.0
C      1  0.4839530000000  0.5974320000000  0.5171750000000 1.0
C      1  0.4519080000000  0.4415100000000  0.4959590000000 1.0
C      1  0.5514130000000  0.5627290000000  0.5089700000000 1.0
C      1  0.6006930000000  0.5343610000000  0.4737030000000 1.0
C      1  0.4012460000000  0.4557790000000  0.5238970000000 1.0
C      1  0.3758780000000  0.4660870000000  0.5322580000000 1.0
C      1  0.6268870000000  0.5243990000000  0.4685660000000 1.0
C      1  0.4219560000000  0.5505010000000  0.4055530000000 1.0
C      1  0.5748290000000  0.4533570000000  0.5949990000000 1.0
C      1  0.5309080000000  0.5627360000000  0.5966850000000 1.0
C      1  0.4606790000000  0.4406140000000  0.3971960000000 1.0
C      1  0.5456600000000  0.3981610000000  0.4332290000000 1.0
C      1  0.4445470000000  0.5916250000000  0.5502640000000 1.0
C      1  0.4768900000000  0.3754120000000  0.5235180000000 1.0
C      1  0.5307330000000  0.6028120000000  0.4882330000000 1.0
C      1  0.5069380000000  0.5419760000000  0.4232390000000 1.0
C      1  0.4910440000000  0.4590070000000  0.5738370000000 1.0
C      1  0.5732070000000  0.4964650000000  0.4650820000000 1.0
C      1  0.4310950000000  0.4929240000000  0.5247630000000 1.0
C      1  0.4238210000000  0.4681100000000  0.5362320000000 1.0
C      1  0.5787640000000  0.5238530000000  0.4579450000000 1.0
C      1  0.5576080000000  0.4569130000000  0.4027450000000 1.0
C      1  0.4342120000000  0.5395720000000  0.5950910000000 1.0
C      1  0.3654530000000  0.4906230000000  0.5220770000000 1.0
C      1  0.6440750000000  0.5100960000000  0.4861310000000 1.0
C      1  0.4488390000000  0.5080680000000  0.5397460000000 1.0
C      1  0.5498910000000  0.4838650000000  0.4560920000000 1.0
C      1  0.5745900000000  0.4767040000000  0.5339710000000 1.0
C      1  0.4440110000000  0.5302010000000  0.4613400000000 1.0
C      1  0.4435920000000  0.5348130000000  0.5441490000000 1.0
C      1  0.5438610000000  0.4572210000000  0.4532370000000 1.0
C      1  0.5379070000000  0.5455780000000  0.3814240000000 1.0
C      1  0.4625690000000  0.4553870000000  0.6153780000000 1.0
C      1  0.4809080000000  0.4549580000000  0.5292640000000 1.0
C      1  0.5202620000000  0.5450270000000  0.4677270000000 1.0
C      1  0.5658140000000  0.4511510000000  0.5289140000000 1.0
C      1  0.4309600000000  0.5533380000000  0.4726440000000 1.0
C      1  0.4675530000000  0.5478490000000  0.5551620000000 1.0
C      1  0.5182780000000  0.4498790000000  0.4444270000000 1.0
C      1  0.5632590000000  0.5419170000000  0.5694520000000 1.0
C      1  0.4310120000000  0.4625540000000  0.4262450000000 1.0
C      1  0.4256880000000  0.5056840000000  0.5006770000000 1.0
C      1  0.5809290000000  0.4897680000000  0.4904640000000 1.0
C      1  0.4142070000000  0.5611480000000  0.4302660000000 1.0
C      1  0.5857550000000  0.4431070000000  0.5700260000000 1.0
C      1  0.4919280000000  0.5499650000000  0.4666970000000 1.0
C      1  0.5086120000000  0.4531800000000  0.5312700000000 1.0
C      1  0.6402320000000  0.4819720000000  0.5277840000000 1.0
C      1  0.4017240000000  0.5233990000000  0.5017040000000 1.0
C      1  0.4773060000000  0.5329310000000  0.6194320000000 1.0
C      1  0.5162300000000  0.4684190000000  0.3784840000000 1.0
C      1  0.4717950000000  0.4436000000000  0.4451600000000 1.0
C      1  0.5164060000000  0.5425580000000  0.5552990000000 1.0
C      1  0.4584030000000  0.5935440000000  0.4608150000000 1.0
C      1  0.5446610000000  0.4108260000000  0.5427620000000 1.0
C      1  0.5516410000000  0.5228990000000  0.6147900000000 1.0
C      1  0.4426710000000  0.4827430000000  0.3817950000000 1.0
C      1  0.4636140000000  0.5042640000000  0.4264470000000 1.0
C      1  0.5363530000000  0.4982440000000  0.5680520000000 1.0
C      1  0.4237500000000  0.4751370000000  0.4018430000000 1.0
C      1  0.5705910000000  0.5313530000000  0.5950350000000 1.0
C      1  0.4721850000000  0.4223590000000  0.4919960000000 1.0
C      1  0.5361760000000  0.5882720000000  0.5128730000000 1.0
C      1  0.4465770000000  0.4804830000000  0.4696990000000 1.0
C      1  0.5576190000000  0.5187900000000  0.5245180000000 1.0
C      1  0.4866990000000  0.5689450000000  0.5199400000000 1.0
C      1  0.4982970000000  0.4328210000000  0.4857870000000 1.0
C      1  0.5264440000000  0.5194390000000  0.3858210000000 1.0
C      1  0.4726760000000  0.4819450000000  0.6103910000000 1.0
C      1  0.5168150000000  0.4050430000000  0.4332870000000 1.0
C      1  0.4722560000000  0.5928940000000  0.5630810000000 1.0
C      1  0.4303140000000  0.5309900000000  0.3888220000000 1.0
C      1  0.5662550000000  0.4741970000000  0.6102460000000 1.0
C      1  0.5612970000000  0.5306000000000  0.4357670000000 1.0
C      1  0.4390750000000  0.4649890000000  0.5605710000000 1.0
C      1  0.5154940000000  0.4555610000000  0.5590620000000 1.0
C      1  0.4836080000000  0.5454690000000  0.4394840000000 1.0
END
