TITL C-3623284-6838-846 8.67425303429849e-07 125000 -633.423563557031 0 0 104 (C1) n - 1
REM
REM in /home/nfs/bkarasulu/CARBON/AIRSS/Generating-Clusters/LCBOP/Higher-Symm/SD-CG/FIRE-CG
REM
REM
REM
REM
REM
REM ./C.cell (b20cbc046b6831c77cfcea5457e17084)
REM AIRSS Version 0.9.1 bugfix July 2018 build 013d7b7c2542+ Fri, 06 Jul 2018 19:26:36 +0100
REM compiler GCC version 9.2.1 20190827 (Red Hat 9.2.1-1)
REM options -cpp -mtune=generic -march=x86-64 -g -O0 -fpre-include=/usr/include/finclude/math-vector-fortran.h
REM seed -1675106180 1754964084 -1229883577 691069704 -675541855 -1376179590 -5800074 -1789493881 -561845750 795670314 926562159 229957557 2049282584 -1769834161 1058324140 1235534292 1651167844 -526178706 734876696 -813413740 -1399155253 1159123345 -1742977303 213956770 978836383 -1697530301 -1401976832 763507423 1977638394 1089698204 1892508790 -1803523557 -146696335
REM
CELL 1.54180   50.00000   50.00000   50.00000   90.00000   90.00000   90.00000
LATT -1
SFAC C  
C      1  0.4893500000000  0.4370340000000  0.4701030000000 1.0
C      1  0.5324820000000  0.4376890000000  0.5057010000000 1.0
C      1  0.4801310000000  0.4368210000000  0.5251890000000 1.0
C      1  0.5031220000000  0.5065760000000  0.5995780000000 1.0
C      1  0.4117100000000  0.5050200000000  0.4534050000000 1.0
C      1  0.5833880000000  0.5085150000000  0.4479220000000 1.0
C      1  0.5960200000000  0.4959980000000  0.4714550000000 1.0
C      1  0.4767120000000  0.4935920000000  0.5986440000000 1.0
C      1  0.4260390000000  0.4925290000000  0.4309000000000 1.0
C      1  0.4269310000000  0.5563030000000  0.4498210000000 1.0
C      1  0.5760250000000  0.5598900000000  0.4625780000000 1.0
C      1  0.4926960000000  0.5576000000000  0.5862980000000 1.0
C      1  0.5158390000000  0.5496710000000  0.5222320000000 1.0
C      1  0.4710800000000  0.5491980000000  0.5024350000000 1.0
C      1  0.5107270000000  0.5496230000000  0.4736560000000 1.0
C      1  0.4886390000000  0.4650930000000  0.5250820000000 1.0
C      1  0.4845880000000  0.4651760000000  0.4778520000000 1.0
C      1  0.5274700000000  0.4657950000000  0.4980230000000 1.0
C      1  0.5451200000000  0.5216450000000  0.5461890000000 1.0
C      1  0.4384960000000  0.5183050000000  0.5162700000000 1.0
C      1  0.5162750000000  0.5186640000000  0.4389270000000 1.0
C      1  0.5109470000000  0.4600080000000  0.5663000000000 1.0
C      1  0.4378930000000  0.4591370000000  0.4765780000000 1.0
C      1  0.5519190000000  0.4609150000000  0.4580280000000 1.0
C      1  0.5257060000000  0.5272190000000  0.4637710000000 1.0
C      1  0.5177360000000  0.5267280000000  0.5401250000000 1.0
C      1  0.4550470000000  0.5264530000000  0.4952980000000 1.0
C      1  0.3996690000000  0.4934770000000  0.4779050000000 1.0
C      1  0.5688030000000  0.4966550000000  0.4249390000000 1.0
C      1  0.5305080000000  0.4953540000000  0.5983230000000 1.0
C      1  0.5564840000000  0.5191690000000  0.4997250000000 1.0
C      1  0.4720820000000  0.5179780000000  0.5505700000000 1.0
C      1  0.4696640000000  0.5178210000000  0.4505140000000 1.0
C      1  0.4934170000000  0.4404950000000  0.5795910000000 1.0
C      1  0.4354400000000  0.4397300000000  0.4545890000000 1.0
C      1  0.5727470000000  0.4420520000000  0.4667450000000 1.0
C      1  0.5817040000000  0.5369110000000  0.4501930000000 1.0
C      1  0.5014180000000  0.5349280000000  0.5973500000000 1.0
C      1  0.4135190000000  0.5334450000000  0.4529200000000 1.0
C      1  0.5562550000000  0.4656100000000  0.5493940000000 1.0
C      1  0.4302100000000  0.4640970000000  0.5245500000000 1.0
C      1  0.5142200000000  0.4648700000000  0.4271860000000 1.0
C      1  0.5581830000000  0.5436430000000  0.5584720000000 1.0
C      1  0.4206970000000  0.6027200000000  0.5029800000000 1.0
C      1  0.5328380000000  0.6015770000000  0.4260130000000 1.0
C      1  0.4980500000000  0.5078330000000  0.5477030000000 1.0
C      1  0.4592130000000  0.5075720000000  0.4743730000000 1.0
C      1  0.5418360000000  0.5087500000000  0.4782900000000 1.0
C      1  0.3937820000000  0.4860380000000  0.5041140000000 1.0
C      1  0.5494580000000  0.4886000000000  0.4065170000000 1.0
C      1  0.5563240000000  0.4881700000000  0.5906910000000 1.0
C      1  0.4479540000000  0.4151540000000  0.4621170000000 1.0
C      1  0.5606740000000  0.4170380000000  0.4735390000000 1.0
C      1  0.4942250000000  0.4157380000000  0.5653100000000 1.0
C      1  0.4952870000000  0.4771000000000  0.3867930000000 1.0
C      1  0.6004040000000  0.4787660000000  0.5530580000000 1.0
C      1  0.4043920000000  0.4759620000000  0.5610010000000 1.0
C      1  0.5949840000000  0.4509790000000  0.4816340000000 1.0
C      1  0.4692350000000  0.4485860000000  0.5916460000000 1.0
C      1  0.4368200000000  0.4479270000000  0.4276360000000 1.0
C      1  0.5532150000000  0.5680370000000  0.5473380000000 1.0
C      1  0.4401150000000  0.5866480000000  0.5095990000000 1.0
C      1  0.5188610000000  0.5861430000000  0.4416890000000 1.0
C      1  0.5500900000000  0.5787050000000  0.4999980000000 1.0
C      1  0.4695120000000  0.5728120000000  0.5456730000000 1.0
C      1  0.4733730000000  0.5722580000000  0.4506360000000 1.0
C      1  0.4461400000000  0.5762520000000  0.4447610000000 1.0
C      1  0.5688760000000  0.5815360000000  0.4791740000000 1.0
C      1  0.4813450000000  0.5780930000000  0.5706710000000 1.0
C      1  0.5233710000000  0.4758710000000  0.4010840000000 1.0
C      1  0.5742630000000  0.4764210000000  0.5704510000000 1.0
C      1  0.4026970000000  0.4742210000000  0.5296120000000 1.0
C      1  0.4381400000000  0.4477500000000  0.5034820000000 1.0
C      1  0.5288950000000  0.4489550000000  0.4446410000000 1.0
C      1  0.5343880000000  0.4488420000000  0.5529610000000 1.0
C      1  0.4600960000000  0.5697360000000  0.5192760000000 1.0
C      1  0.5010280000000  0.5696050000000  0.4553990000000 1.0
C      1  0.5377640000000  0.5689960000000  0.5233320000000 1.0
C      1  0.5421780000000  0.4798400000000  0.4775810000000 1.0
C      1  0.4987340000000  0.4789690000000  0.5482280000000 1.0
C      1  0.4592220000000  0.4786200000000  0.4749910000000 1.0
C      1  0.5995280000000  0.4766880000000  0.4936930000000 1.0
C      1  0.4560740000000  0.4740990000000  0.5902310000000 1.0
C      1  0.4441210000000  0.4736150000000  0.4169600000000 1.0
C      1  0.4500450000000  0.5063460000000  0.5384480000000 1.0
C      1  0.4914430000000  0.5064220000000  0.4377370000000 1.0
C      1  0.5570670000000  0.5077280000000  0.5250850000000 1.0
C      1  0.4600740000000  0.4290420000000  0.5066630000000 1.0
C      1  0.5156110000000  0.4298420000000  0.4619490000000 1.0
C      1  0.5265860000000  0.4299200000000  0.5324100000000 1.0
C      1  0.5806650000000  0.6059400000000  0.4750950000000 1.0
C      1  0.4819330000000  0.6038630000000  0.5799750000000 1.0
C      1  0.4381610000000  0.6000810000000  0.4338400000000 1.0
C      1  0.4692110000000  0.4193450000000  0.4806340000000 1.0
C      1  0.5338810000000  0.4203490000000  0.4827470000000 1.0
C      1  0.4996550000000  0.4196850000000  0.5375880000000 1.0
C      1  0.5936190000000  0.4784450000000  0.5230580000000 1.0
C      1  0.4336650000000  0.4760190000000  0.5704210000000 1.0
C      1  0.4724480000000  0.4760990000000  0.4073960000000 1.0
C      1  0.5647400000000  0.4809280000000  0.5265660000000 1.0
C      1  0.4453020000000  0.4792810000000  0.5438670000000 1.0
C      1  0.4895280000000  0.4793360000000  0.4308340000000 1.0
C      1  0.4992130000000  0.5491380000000  0.4994550000000 1.0
C      1  0.5000960000000  0.4724490000000  0.5003270000000 1.0
END
