TITL C-3623285-6872-1690 6.69415465548091e-05 125000 -495.553395628367 0 0 81 (C1) n - 1
REM
REM in /home/nfs/bkarasulu/CARBON/AIRSS/Generating-Clusters/LCBOP/Higher-Symm/SD-CG/FIRE-CG
REM
REM
REM
REM
REM
REM ./C.cell (b20cbc046b6831c77cfcea5457e17084)
REM AIRSS Version 0.9.1 bugfix July 2018 build 013d7b7c2542+ Fri, 06 Jul 2018 19:26:36 +0100
REM compiler GCC version 9.2.1 20190827 (Red Hat 9.2.1-1)
REM options -cpp -mtune=generic -march=x86-64 -g -O0 -fpre-include=/usr/include/finclude/math-vector-fortran.h
REM seed -1914690053 663439221 -1249715965 309956699 1823220110 -1253744435 924956510 -1711035835 -1756760492 -1498388129 -1471338210 386127409 -2040703717 1383195237 -1416694226 430151572 503733493 -1007104420 -1065281241 1804348292 -36192945 -1809387647 1576568427 1239275652 -819189973 1837125623 1715044209 1098824140 1329634754 1607686575 1665842622 -2009529606 -1783707971
REM
CELL 1.54180   50.00000   50.00000   50.00000   90.00000   90.00000   90.00000
LATT -1
SFAC C  
C      1  0.4601000000000  0.5450320000000  0.4462840000000 1.0
C      1  0.4920360000000  0.5134420000000  0.5292460000000 1.0
C      1  0.4988850000000  0.5112560000000  0.5568570000000 1.0
C      1  0.5631490000000  0.4573470000000  0.5359390000000 1.0
C      1  0.5621410000000  0.5351020000000  0.5124460000000 1.0
C      1  0.4564050000000  0.5059430000000  0.6162710000000 1.0
C      1  0.4267220000000  0.4125240000000  0.4742300000000 1.0
C      1  0.4257600000000  0.4874690000000  0.6547730000000 1.0
C      1  0.4882890000000  0.4878860000000  0.4527390000000 1.0
C      1  0.5811710000000  0.4492310000000  0.4866730000000 1.0
C      1  0.5088220000000  0.5424150000000  0.4948450000000 1.0
C      1  0.4382970000000  0.4370300000000  0.4785230000000 1.0
C      1  0.5422190000000  0.5160340000000  0.5203960000000 1.0
C      1  0.4764280000000  0.5431620000000  0.5908960000000 1.0
C      1  0.5251540000000  0.4838650000000  0.4809400000000 1.0
C      1  0.5480410000000  0.3925320000000  0.4687090000000 1.0
C      1  0.4664370000000  0.5052970000000  0.5113190000000 1.0
C      1  0.5732100000000  0.4008840000000  0.4720830000000 1.0
C      1  0.5783830000000  0.4530640000000  0.5144510000000 1.0
C      1  0.4804040000000  0.4247210000000  0.4533100000000 1.0
C      1  0.4612550000000  0.5663160000000  0.4652950000000 1.0
C      1  0.5151050000000  0.5234130000000  0.5145020000000 1.0
C      1  0.6003800000000  0.5493240000000  0.4859540000000 1.0
C      1  0.4749750000000  0.5413450000000  0.4224260000000 1.0
C      1  0.5191220000000  0.4600330000000  0.5610220000000 1.0
C      1  0.4694900000000  0.4065170000000  0.4358510000000 1.0
C      1  0.5156180000000  0.4605430000000  0.4255960000000 1.0
C      1  0.4230790000000  0.5096920000000  0.4228220000000 1.0
C      1  0.4251520000000  0.4557540000000  0.4964510000000 1.0
C      1  0.4761000000000  0.4779140000000  0.4978030000000 1.0
C      1  0.5054370000000  0.5062390000000  0.4101010000000 1.0
C      1  0.4679300000000  0.4568720000000  0.5168930000000 1.0
C      1  0.4397040000000  0.4640170000000  0.5198280000000 1.0
C      1  0.5017970000000  0.4728360000000  0.5805720000000 1.0
C      1  0.4565410000000  0.5264550000000  0.4907550000000 1.0
C      1  0.4736040000000  0.4706400000000  0.4700300000000 1.0
C      1  0.5383230000000  0.5613800000000  0.5742400000000 1.0
C      1  0.5383140000000  0.5336960000000  0.5797680000000 1.0
C      1  0.5024440000000  0.5320180000000  0.4227380000000 1.0
C      1  0.4260790000000  0.5085710000000  0.4508910000000 1.0
C      1  0.5754590000000  0.4936070000000  0.4619810000000 1.0
C      1  0.5675190000000  0.4673840000000  0.4694050000000 1.0
C      1  0.5136860000000  0.5038190000000  0.3841840000000 1.0
C      1  0.5643630000000  0.5573990000000  0.5300570000000 1.0
C      1  0.4850670000000  0.4395500000000  0.5298790000000 1.0
C      1  0.6227630000000  0.5625750000000  0.4843590000000 1.0
C      1  0.4728290000000  0.5151720000000  0.5958280000000 1.0
C      1  0.5068230000000  0.5019060000000  0.4697140000000 1.0
C      1  0.5243140000000  0.4473560000000  0.4492610000000 1.0
C      1  0.4070120000000  0.4735520000000  0.4845420000000 1.0
C      1  0.4088810000000  0.4934320000000  0.4668340000000 1.0
C      1  0.5549030000000  0.5687290000000  0.5525930000000 1.0
C      1  0.4869380000000  0.4974940000000  0.5785460000000 1.0
C      1  0.5497830000000  0.5335680000000  0.4450470000000 1.0
C      1  0.4409500000000  0.4966520000000  0.6356800000000 1.0
C      1  0.4633610000000  0.4443020000000  0.4656910000000 1.0
C      1  0.5142000000000  0.5738060000000  0.5816460000000 1.0
C      1  0.4750750000000  0.5765270000000  0.5539760000000 1.0
C      1  0.4888690000000  0.5607210000000  0.5040890000000 1.0
C      1  0.4276810000000  0.6020560000000  0.5574930000000 1.0
C      1  0.4419820000000  0.4929790000000  0.5262850000000 1.0
C      1  0.5271090000000  0.5145250000000  0.5630490000000 1.0
C      1  0.5868290000000  0.4232890000000  0.4774560000000 1.0
C      1  0.5678860000000  0.5210450000000  0.4637140000000 1.0
C      1  0.5428290000000  0.4719460000000  0.5486190000000 1.0
C      1  0.4584480000000  0.5349960000000  0.4001860000000 1.0
C      1  0.5762750000000  0.5350390000000  0.4874790000000 1.0
C      1  0.4357170000000  0.5204010000000  0.4016030000000 1.0
C      1  0.5062170000000  0.4397550000000  0.5462040000000 1.0
C      1  0.5213530000000  0.5376390000000  0.4442380000000 1.0
C      1  0.4507520000000  0.5900370000000  0.5559360000000 1.0
C      1  0.5089320000000  0.4244930000000  0.4570210000000 1.0
C      1  0.5232490000000  0.4016710000000  0.4647760000000 1.0
C      1  0.5103060000000  0.5301960000000  0.4693180000000 1.0
C      1  0.5393770000000  0.4633500000000  0.4677060000000 1.0
C      1  0.5431510000000  0.5001440000000  0.5444440000000 1.0
C      1  0.4993450000000  0.4836780000000  0.4265570000000 1.0
C      1  0.4873940000000  0.5655900000000  0.5772750000000 1.0
C      1  0.4478020000000  0.5230280000000  0.4623220000000 1.0
C      1  0.4877950000000  0.5734970000000  0.5289680000000 1.0
C      1  0.4642760000000  0.5552810000000  0.4915700000000 1.0
END
