TITL C-3623288-6813-689 -1632.05897769039 125000 -794.155357563116 0 0 129 (C1) n - 1
REM
REM in /home/nfs/bkarasulu/CARBON/AIRSS/Generating-Clusters/LCBOP/Higher-Symm/SD-CG/FIRE-CG
REM
REM
REM
REM
REM
REM ./C.cell (b20cbc046b6831c77cfcea5457e17084)
REM AIRSS Version 0.9.1 bugfix July 2018 build 013d7b7c2542+ Fri, 06 Jul 2018 19:26:36 +0100
REM compiler GCC version 9.2.1 20190827 (Red Hat 9.2.1-1)
REM options -cpp -mtune=generic -march=x86-64 -g -O0 -fpre-include=/usr/include/finclude/math-vector-fortran.h
REM seed 898234906 -1382308598 -948111170 -1104619775 421892423 134446541 -1051259882 -483925753 -1990764923 -763494145 -1645046582 1592325748 390603887 -363514392 1706668241 498506250 1936390684 -259200923 886375767 -1159311558 664735823 577165815 613822390 1004224758 -775501585 964733972 -963806385 1166506115 -1115091704 -1188706038 369635472 605529140 360145686
REM
CELL 1.54180   50.00000   50.00000   50.00000   90.00000   90.00000   90.00000
LATT -1
SFAC C  
C      1  0.4715560000000  0.4401910000000  0.5073340000000 1.0
C      1  0.5468500000000  0.5517990000000  0.5776190000000 1.0
C      1  0.4173640000000  0.5357640000000  0.4878100000000 1.0
C      1  0.5291330000000  0.4542530000000  0.6028680000000 1.0
C      1  0.5171070000000  0.5062920000000  0.4076490000000 1.0
C      1  0.5357250000000  0.5623210000000  0.4077660000000 1.0
C      1  0.5881880000000  0.5283510000000  0.5307410000000 1.0
C      1  0.4919420000000  0.4397640000000  0.5748700000000 1.0
C      1  0.5662270000000  0.5093820000000  0.5803170000000 1.0
C      1  0.5418980000000  0.5796140000000  0.3876720000000 1.0
C      1  0.3973000000000  0.4852130000000  0.4357270000000 1.0
C      1  0.4034760000000  0.5462780000000  0.5111770000000 1.0
C      1  0.5450940000000  0.4250020000000  0.4598990000000 1.0
C      1  0.5270720000000  0.5367710000000  0.5042160000000 1.0
C      1  0.3791770000000  0.4670240000000  0.4426600000000 1.0
C      1  0.4754180000000  0.4571690000000  0.5311870000000 1.0
C      1  0.5382250000000  0.4894070000000  0.5403710000000 1.0
C      1  0.4945770000000  0.5864790000000  0.5189440000000 1.0
C      1  0.5874500000000  0.4877900000000  0.4653400000000 1.0
C      1  0.5553900000000  0.5466830000000  0.4221620000000 1.0
C      1  0.4792430000000  0.4295280000000  0.4470640000000 1.0
C      1  0.5597470000000  0.5562460000000  0.4483690000000 1.0
C      1  0.4472520000000  0.5168430000000  0.5729500000000 1.0
C      1  0.5614510000000  0.4237870000000  0.4846290000000 1.0
C      1  0.5920410000000  0.5675070000000  0.5599920000000 1.0
C      1  0.5087560000000  0.5174950000000  0.5876430000000 1.0
C      1  0.5302670000000  0.5642070000000  0.4923450000000 1.0
C      1  0.5335100000000  0.5376490000000  0.5333270000000 1.0
C      1  0.5044340000000  0.4938500000000  0.3862880000000 1.0
C      1  0.4914200000000  0.5411210000000  0.5774280000000 1.0
C      1  0.4683810000000  0.4918450000000  0.4408950000000 1.0
C      1  0.5838780000000  0.4383910000000  0.4946360000000 1.0
C      1  0.5005550000000  0.3884870000000  0.4713010000000 1.0
C      1  0.4667720000000  0.5883840000000  0.5602060000000 1.0
C      1  0.5043550000000  0.4631880000000  0.5278090000000 1.0
C      1  0.5996240000000  0.5531410000000  0.5381870000000 1.0
C      1  0.4623380000000  0.5414960000000  0.5753410000000 1.0
C      1  0.5591870000000  0.4838970000000  0.4610600000000 1.0
C      1  0.4897980000000  0.4807980000000  0.3684850000000 1.0
C      1  0.4916620000000  0.5835880000000  0.5476580000000 1.0
C      1  0.3659710000000  0.4535970000000  0.4614290000000 1.0
C      1  0.3988420000000  0.5743880000000  0.5039000000000 1.0
C      1  0.5342110000000  0.4116960000000  0.5566760000000 1.0
C      1  0.4637170000000  0.4921080000000  0.5753040000000 1.0
C      1  0.5502730000000  0.5183140000000  0.4945190000000 1.0
C      1  0.4876450000000  0.5016310000000  0.5389160000000 1.0
C      1  0.4577210000000  0.3947430000000  0.5316610000000 1.0
C      1  0.4527380000000  0.4409790000000  0.4852350000000 1.0
C      1  0.3604330000000  0.4482290000000  0.4868630000000 1.0
C      1  0.4220710000000  0.5186210000000  0.5565170000000 1.0
C      1  0.5193830000000  0.4100250000000  0.4640230000000 1.0
C      1  0.4584520000000  0.4523050000000  0.3373480000000 1.0
C      1  0.5475320000000  0.5147300000000  0.5409080000000 1.0
C      1  0.4178980000000  0.5399670000000  0.5365410000000 1.0
C      1  0.4168940000000  0.5035640000000  0.4437480000000 1.0
C      1  0.4677030000000  0.4809690000000  0.5484930000000 1.0
C      1  0.5889150000000  0.5124230000000  0.4082520000000 1.0
C      1  0.5043040000000  0.5619050000000  0.5612070000000 1.0
C      1  0.5950190000000  0.5031290000000  0.4878770000000 1.0
C      1  0.4630470000000  0.3884650000000  0.5059520000000 1.0
C      1  0.3629810000000  0.4516520000000  0.5130820000000 1.0
C      1  0.4548170000000  0.4691780000000  0.4784800000000 1.0
C      1  0.5805130000000  0.4586550000000  0.5420050000000 1.0
C      1  0.5716630000000  0.5653690000000  0.5777240000000 1.0
C      1  0.4716340000000  0.5826940000000  0.5024780000000 1.0
C      1  0.4104820000000  0.5208270000000  0.4652570000000 1.0
C      1  0.5181590000000  0.4395010000000  0.4192780000000 1.0
C      1  0.5731700000000  0.5168500000000  0.5527380000000 1.0
C      1  0.5012450000000  0.4321320000000  0.4657120000000 1.0
C      1  0.5403960000000  0.4957010000000  0.4786720000000 1.0
C      1  0.6055950000000  0.4844550000000  0.4441560000000 1.0
C      1  0.4783560000000  0.4812020000000  0.4652320000000 1.0
C      1  0.4631330000000  0.5413990000000  0.4699670000000 1.0
C      1  0.4667450000000  0.4267690000000  0.5726160000000 1.0
C      1  0.5625380000000  0.5195320000000  0.4149230000000 1.0
C      1  0.5008350000000  0.5210120000000  0.4958280000000 1.0
C      1  0.5784410000000  0.5192940000000  0.5042380000000 1.0
C      1  0.5303820000000  0.5559420000000  0.5545150000000 1.0
C      1  0.5116240000000  0.4865810000000  0.5405960000000 1.0
C      1  0.4931860000000  0.6208260000000  0.4489290000000 1.0
C      1  0.5407130000000  0.5243860000000  0.5884270000000 1.0
C      1  0.5868500000000  0.4658860000000  0.5690690000000 1.0
C      1  0.4514300000000  0.5646390000000  0.5612910000000 1.0
C      1  0.4415380000000  0.4875640000000  0.4951470000000 1.0
C      1  0.4831940000000  0.5952230000000  0.4530450000000 1.0
C      1  0.5112530000000  0.4635560000000  0.5002600000000 1.0
C      1  0.5354580000000  0.6104030000000  0.5075170000000 1.0
C      1  0.4969290000000  0.4411150000000  0.4912440000000 1.0
C      1  0.5713200000000  0.4822520000000  0.5874520000000 1.0
C      1  0.5503620000000  0.4075970000000  0.5058130000000 1.0
C      1  0.4799370000000  0.5148850000000  0.5158920000000 1.0
C      1  0.3722750000000  0.4626230000000  0.5354060000000 1.0
C      1  0.4538630000000  0.5076520000000  0.5079180000000 1.0
C      1  0.4029550000000  0.4981710000000  0.5584230000000 1.0
C      1  0.5514610000000  0.4712410000000  0.6040410000000 1.0
C      1  0.5547340000000  0.4677820000000  0.5359400000000 1.0
C      1  0.5406080000000  0.4460110000000  0.4368670000000 1.0
C      1  0.5502530000000  0.6318020000000  0.5090060000000 1.0
C      1  0.5444380000000  0.4039640000000  0.5317410000000 1.0
C      1  0.4931470000000  0.5754190000000  0.4338860000000 1.0
C      1  0.5483880000000  0.4747050000000  0.4361660000000 1.0
C      1  0.6069180000000  0.4964000000000  0.4201150000000 1.0
C      1  0.5200920000000  0.5871060000000  0.5061550000000 1.0
C      1  0.4435540000000  0.5006060000000  0.4346040000000 1.0
C      1  0.4889700000000  0.5317270000000  0.4711920000000 1.0
C      1  0.4435710000000  0.5470070000000  0.4885480000000 1.0
C      1  0.4647550000000  0.5931840000000  0.4759600000000 1.0
C      1  0.4129700000000  0.5916910000000  0.4878470000000 1.0
C      1  0.5428940000000  0.4977630000000  0.4176030000000 1.0
C      1  0.4913570000000  0.4340310000000  0.4217800000000 1.0
C      1  0.3862590000000  0.4789420000000  0.5509860000000 1.0
C      1  0.4522220000000  0.5631350000000  0.5108650000000 1.0
C      1  0.4720350000000  0.3946540000000  0.4794190000000 1.0
C      1  0.5009430000000  0.5240250000000  0.4478950000000 1.0
C      1  0.4919790000000  0.4904140000000  0.5889610000000 1.0
C      1  0.4593660000000  0.4192040000000  0.4659690000000 1.0
C      1  0.5100130000000  0.4886150000000  0.4835650000000 1.0
C      1  0.5031950000000  0.4620150000000  0.5911160000000 1.0
C      1  0.5449840000000  0.4098560000000  0.5828230000000 1.0
C      1  0.5476530000000  0.5658340000000  0.4701930000000 1.0
C      1  0.4361480000000  0.5981500000000  0.4747850000000 1.0
C      1  0.4741270000000  0.4665520000000  0.3525470000000 1.0
C      1  0.5368550000000  0.4265990000000  0.6027500000000 1.0
C      1  0.4570880000000  0.4086770000000  0.5547720000000 1.0
C      1  0.5108320000000  0.4272010000000  0.5574550000000 1.0
C      1  0.5091030000000  0.5572370000000  0.4171070000000 1.0
C      1  0.5057890000000  0.5289170000000  0.4212770000000 1.0
C      1  0.5926760000000  0.4468550000000  0.5191490000000 1.0
C      1  0.4400430000000  0.5583760000000  0.5362730000000 1.0
END
