TITL C-3623284-6838-1481 0.0206893542163938 125000 -714.38026525508 0 0 117 (C1) n - 1
REM
REM in /home/nfs/bkarasulu/CARBON/AIRSS/Generating-Clusters/LCBOP/Higher-Symm/SD-CG/FIRE-CG
REM
REM
REM
REM
REM
REM ./C.cell (b20cbc046b6831c77cfcea5457e17084)
REM AIRSS Version 0.9.1 bugfix July 2018 build 013d7b7c2542+ Fri, 06 Jul 2018 19:26:36 +0100
REM compiler GCC version 9.2.1 20190827 (Red Hat 9.2.1-1)
REM options -cpp -mtune=generic -march=x86-64 -g -O0 -fpre-include=/usr/include/finclude/math-vector-fortran.h
REM seed -1007554856 5312105 225282673 -334248651 -1451745370 1045855641 -591296315 68114984 497230961 -42297294 986353781 416300568 745735430 28348224 2102055992 -632388669 1351017957 868579846 -1116266731 49654616 -990223981 2020294608 -171911302 -36180878 2052094255 1260817072 1577110531 586403436 -387055689 770313197 -20940636 -1515279196 187059049
REM
CELL 1.54180   50.00000   50.00000   50.00000   90.00000   90.00000   90.00000
LATT -1
SFAC C  
C      1  0.5532260000000  0.4405050000000  0.4328480000000 1.0
C      1  0.5821100000000  0.5566450000000  0.4082530000000 1.0
C      1  0.4365320000000  0.4210650000000  0.5493540000000 1.0
C      1  0.4338540000000  0.5763180000000  0.5503390000000 1.0
C      1  0.4675810000000  0.4717480000000  0.4379430000000 1.0
C      1  0.4651970000000  0.5277320000000  0.4374700000000 1.0
C      1  0.5365670000000  0.5723400000000  0.6351740000000 1.0
C      1  0.5380840000000  0.4253960000000  0.6322520000000 1.0
C      1  0.4902330000000  0.4853470000000  0.5364600000000 1.0
C      1  0.4898410000000  0.5138760000000  0.5367580000000 1.0
C      1  0.5708710000000  0.5440030000000  0.3877240000000 1.0
C      1  0.5342410000000  0.4599040000000  0.4253810000000 1.0
C      1  0.4934770000000  0.4857110000000  0.4362500000000 1.0
C      1  0.4922370000000  0.5158290000000  0.4362040000000 1.0
C      1  0.4016580000000  0.5432270000000  0.5018720000000 1.0
C      1  0.4030900000000  0.4535500000000  0.5012250000000 1.0
C      1  0.5128820000000  0.4710680000000  0.5438600000000 1.0
C      1  0.5119310000000  0.5285380000000  0.5451110000000 1.0
C      1  0.4650860000000  0.4733190000000  0.5315140000000 1.0
C      1  0.4643770000000  0.5252670000000  0.5318210000000 1.0
C      1  0.5734440000000  0.5163610000000  0.4971310000000 1.0
C      1  0.5740720000000  0.4877440000000  0.4968470000000 1.0
C      1  0.4436510000000  0.5873570000000  0.4741590000000 1.0
C      1  0.4469490000000  0.4108850000000  0.4730520000000 1.0
C      1  0.5393390000000  0.5166580000000  0.5403810000000 1.0
C      1  0.5397460000000  0.4841730000000  0.5395280000000 1.0
C      1  0.5493620000000  0.5669230000000  0.5058990000000 1.0
C      1  0.5510370000000  0.4360640000000  0.5034290000000 1.0
C      1  0.4380510000000  0.5891920000000  0.5266420000000 1.0
C      1  0.4413660000000  0.4086260000000  0.5255610000000 1.0
C      1  0.4879180000000  0.5254960000000  0.3565050000000 1.0
C      1  0.4780550000000  0.5016060000000  0.3650870000000 1.0
C      1  0.4340450000000  0.5554360000000  0.5677970000000 1.0
C      1  0.4357710000000  0.4417690000000  0.5669930000000 1.0
C      1  0.5445910000000  0.5141700000000  0.5916090000000 1.0
C      1  0.5448790000000  0.4853870000000  0.5910560000000 1.0
C      1  0.4529000000000  0.4843440000000  0.4589270000000 1.0
C      1  0.4520680000000  0.5142880000000  0.4590420000000 1.0
C      1  0.4545930000000  0.4126060000000  0.5004650000000 1.0
C      1  0.4515160000000  0.5859610000000  0.5015310000000 1.0
C      1  0.4561920000000  0.5747390000000  0.3815400000000 1.0
C      1  0.4674630000000  0.4251680000000  0.3814630000000 1.0
C      1  0.5710540000000  0.5597130000000  0.5216710000000 1.0
C      1  0.5723020000000  0.4431410000000  0.5198440000000 1.0
C      1  0.5095150000000  0.5522840000000  0.5599300000000 1.0
C      1  0.5115190000000  0.4466530000000  0.5577090000000 1.0
C      1  0.5967500000000  0.5152360000000  0.5388130000000 1.0
C      1  0.5970180000000  0.4875710000000  0.5384830000000 1.0
C      1  0.5386000000000  0.4726680000000  0.4003430000000 1.0
C      1  0.5599900000000  0.5201340000000  0.3783250000000 1.0
C      1  0.4730870000000  0.5664760000000  0.5039890000000 1.0
C      1  0.4752230000000  0.4330660000000  0.5028390000000 1.0
C      1  0.4440060000000  0.5132880000000  0.5479630000000 1.0
C      1  0.4443930000000  0.4845100000000  0.5477680000000 1.0
C      1  0.4293760000000  0.4538430000000  0.5046360000000 1.0
C      1  0.4279440000000  0.5438410000000  0.5052500000000 1.0
C      1  0.5088910000000  0.5995230000000  0.5457080000000 1.0
C      1  0.5132840000000  0.4000360000000  0.5415750000000 1.0
C      1  0.4612130000000  0.4445080000000  0.4314670000000 1.0
C      1  0.4570460000000  0.5545920000000  0.4314920000000 1.0
C      1  0.5769490000000  0.4389070000000  0.4450000000000 1.0
C      1  0.5902820000000  0.5571200000000  0.4335370000000 1.0
C      1  0.4643000000000  0.5226490000000  0.4842500000000 1.0
C      1  0.4651720000000  0.4766970000000  0.4842000000000 1.0
C      1  0.5234030000000  0.5624080000000  0.4919840000000 1.0
C      1  0.5249950000000  0.4400550000000  0.4893080000000 1.0
C      1  0.5115860000000  0.5319790000000  0.4498260000000 1.0
C      1  0.5161190000000  0.4698300000000  0.4452130000000 1.0
C      1  0.5006000000000  0.4844930000000  0.6108490000000 1.0
C      1  0.5002730000000  0.5134730000000  0.6112410000000 1.0
C      1  0.5880760000000  0.5410370000000  0.5333040000000 1.0
C      1  0.5888620000000  0.4617630000000  0.5322270000000 1.0
C      1  0.4396180000000  0.5276980000000  0.5722430000000 1.0
C      1  0.4403460000000  0.4696210000000  0.5718050000000 1.0
C      1  0.5001380000000  0.5756950000000  0.5027660000000 1.0
C      1  0.5025760000000  0.4252990000000  0.5000010000000 1.0
C      1  0.5132660000000  0.4200720000000  0.5594650000000 1.0
C      1  0.5098450000000  0.5788190000000  0.5627800000000 1.0
C      1  0.5902260000000  0.4723170000000  0.4802550000000 1.0
C      1  0.5875920000000  0.5323960000000  0.4793800000000 1.0
C      1  0.5208980000000  0.4903410000000  0.3866440000000 1.0
C      1  0.5319020000000  0.5156330000000  0.3761940000000 1.0
C      1  0.3621450000000  0.5110840000000  0.4965770000000 1.0
C      1  0.3625580000000  0.4844540000000  0.4963790000000 1.0
C      1  0.5314670000000  0.5498450000000  0.6230470000000 1.0
C      1  0.5324990000000  0.4482620000000  0.6210690000000 1.0
C      1  0.3785670000000  0.4632770000000  0.4982040000000 1.0
C      1  0.3774740000000  0.5327280000000  0.4987150000000 1.0
C      1  0.4940280000000  0.4848110000000  0.3793360000000 1.0
C      1  0.5136410000000  0.5322980000000  0.3622290000000 1.0
C      1  0.4576630000000  0.5633220000000  0.4049230000000 1.0
C      1  0.4646570000000  0.4357340000000  0.4051220000000 1.0
C      1  0.4750100000000  0.4727840000000  0.6070350000000 1.0
C      1  0.4744580000000  0.5247280000000  0.6074620000000 1.0
C      1  0.5211620000000  0.4647140000000  0.4735600000000 1.0
C      1  0.5201230000000  0.5381120000000  0.4761100000000 1.0
C      1  0.4479600000000  0.5730070000000  0.4514920000000 1.0
C      1  0.4513950000000  0.4256690000000  0.4506850000000 1.0
C      1  0.4517730000000  0.4837010000000  0.5943270000000 1.0
C      1  0.4514530000000  0.5135490000000  0.5945430000000 1.0
C      1  0.4580490000000  0.5401620000000  0.5067380000000 1.0
C      1  0.4592560000000  0.4586510000000  0.5062320000000 1.0
C      1  0.5261000000000  0.4719100000000  0.6078960000000 1.0
C      1  0.5255390000000  0.5266360000000  0.6089130000000 1.0
C      1  0.5753760000000  0.4962960000000  0.3793040000000 1.0
C      1  0.5652010000000  0.4736210000000  0.3901180000000 1.0
C      1  0.5529470000000  0.5250360000000  0.5665040000000 1.0
C      1  0.5535780000000  0.4756100000000  0.5655990000000 1.0
C      1  0.5487830000000  0.4796180000000  0.5099180000000 1.0
C      1  0.5482750000000  0.5228310000000  0.5112780000000 1.0
C      1  0.5054660000000  0.5984100000000  0.5190270000000 1.0
C      1  0.5094780000000  0.4020730000000  0.5149820000000 1.0
C      1  0.5278620000000  0.5156170000000  0.4912390000000 1.0
C      1  0.5280810000000  0.4869870000000  0.4897530000000 1.0
C      1  0.5927150000000  0.5474790000000  0.4581590000000 1.0
C      1  0.5919120000000  0.4529320000000  0.4620670000000 1.0
C      1  0.4793940000000  0.4999040000000  0.4915720000000 1.0
END
