TITL C-3623282-6910-1801 -0.278076358288277 125000 -439.000661915048 0 0 75 (C1) n - 1
REM
REM in /home/nfs/bkarasulu/CARBON/AIRSS/Generating-Clusters/LCBOP/Higher-Symm/SD-CG/FIRE-CG
REM
REM
REM
REM
REM
REM ./C.cell (b20cbc046b6831c77cfcea5457e17084)
REM AIRSS Version 0.9.1 bugfix July 2018 build 013d7b7c2542+ Fri, 06 Jul 2018 19:26:36 +0100
REM compiler GCC version 9.2.1 20190827 (Red Hat 9.2.1-1)
REM options -cpp -mtune=generic -march=x86-64 -g -O0 -fpre-include=/usr/include/finclude/math-vector-fortran.h
REM seed -1556259451 450526437 -776455451 -1085029821 802880369 1189536103 -384915789 1717809081 -1990107781 -1822490231 -529868467 -1468005794 327588853 135872543 -2112046015 483389972 -1018894755 780043829 -1483293364 96543678 1070618822 1377474095 233816190 689700184 844164640 -1738808149 -1658144620 754647525 795885664 144622588 -15632809 1966059645 1639124951
REM
CELL 1.54180   50.00000   50.00000   50.00000   90.00000   90.00000   90.00000
LATT -1
SFAC C  
C      1  0.4975540000000  0.5149800000000  0.4693060000000 1.0
C      1  0.5101800000000  0.4318300000000  0.5271480000000 1.0
C      1  0.4287530000000  0.6001870000000  0.5393490000000 1.0
C      1  0.5107520000000  0.4702110000000  0.4733720000000 1.0
C      1  0.5712420000000  0.4199960000000  0.5280480000000 1.0
C      1  0.4256160000000  0.4608610000000  0.5514670000000 1.0
C      1  0.5101050000000  0.5282200000000  0.4913400000000 1.0
C      1  0.5306710000000  0.6199540000000  0.5332580000000 1.0
C      1  0.5465710000000  0.6393270000000  0.5260830000000 1.0
C      1  0.4399840000000  0.4930400000000  0.4473440000000 1.0
C      1  0.5037060000000  0.5616870000000  0.5684790000000 1.0
C      1  0.4649260000000  0.4284300000000  0.4646020000000 1.0
C      1  0.5186230000000  0.5155640000000  0.5696840000000 1.0
C      1  0.4470540000000  0.4596660000000  0.5679910000000 1.0
C      1  0.4111230000000  0.4774260000000  0.4793160000000 1.0
C      1  0.4746300000000  0.5508040000000  0.5132040000000 1.0
C      1  0.5693680000000  0.4132200000000  0.4771140000000 1.0
C      1  0.5760370000000  0.4125740000000  0.5028960000000 1.0
C      1  0.5007030000000  0.5407600000000  0.4223470000000 1.0
C      1  0.5237040000000  0.4653650000000  0.5631910000000 1.0
C      1  0.6089480000000  0.5204620000000  0.4273930000000 1.0
C      1  0.4503800000000  0.4609310000000  0.5084400000000 1.0
C      1  0.4795610000000  0.4788460000000  0.4125210000000 1.0
C      1  0.4342710000000  0.5205840000000  0.5374700000000 1.0
C      1  0.4540790000000  0.5381110000000  0.5984150000000 1.0
C      1  0.5283550000000  0.4428210000000  0.5463240000000 1.0
C      1  0.5376180000000  0.5318490000000  0.4979400000000 1.0
C      1  0.5275490000000  0.4733260000000  0.4962250000000 1.0
C      1  0.4058290000000  0.6118970000000  0.5434650000000 1.0
C      1  0.4845160000000  0.4212140000000  0.4819000000000 1.0
C      1  0.4749490000000  0.5725670000000  0.5314600000000 1.0
C      1  0.5195190000000  0.4848690000000  0.6069830000000 1.0
C      1  0.5772420000000  0.5094810000000  0.4701340000000 1.0
C      1  0.4207960000000  0.5151290000000  0.5145140000000 1.0
C      1  0.5439800000000  0.5321150000000  0.5256540000000 1.0
C      1  0.4459030000000  0.5396540000000  0.4702260000000 1.0
C      1  0.4288900000000  0.4678280000000  0.4581990000000 1.0
C      1  0.5157740000000  0.4576090000000  0.4484880000000 1.0
C      1  0.4972550000000  0.5348560000000  0.5748690000000 1.0
C      1  0.5145630000000  0.6001870000000  0.5404440000000 1.0
C      1  0.5205410000000  0.4885510000000  0.5797510000000 1.0
C      1  0.5580510000000  0.5277010000000  0.4793960000000 1.0
C      1  0.4924270000000  0.5284320000000  0.5139370000000 1.0
C      1  0.4337230000000  0.5148790000000  0.4657390000000 1.0
C      1  0.4980830000000  0.5787160000000  0.5469050000000 1.0
C      1  0.4567390000000  0.4342670000000  0.5109330000000 1.0
C      1  0.4582560000000  0.4911060000000  0.4263050000000 1.0
C      1  0.4175930000000  0.5044740000000  0.4883350000000 1.0
C      1  0.4664530000000  0.4783840000000  0.4919110000000 1.0
C      1  0.4977330000000  0.5266510000000  0.4440630000000 1.0
C      1  0.4742370000000  0.4952760000000  0.5465970000000 1.0
C      1  0.4518270000000  0.5878610000000  0.5351760000000 1.0
C      1  0.4817850000000  0.4819270000000  0.3586720000000 1.0
C      1  0.4568470000000  0.5166930000000  0.5544230000000 1.0
C      1  0.4934450000000  0.5026020000000  0.5273620000000 1.0
C      1  0.4806300000000  0.4802390000000  0.3846530000000 1.0
C      1  0.4283290000000  0.4671580000000  0.5252410000000 1.0
C      1  0.5379700000000  0.5241540000000  0.5505650000000 1.0
C      1  0.4704410000000  0.4717620000000  0.5617350000000 1.0
C      1  0.5138810000000  0.4847910000000  0.5184450000000 1.0
C      1  0.4585110000000  0.5525870000000  0.4899870000000 1.0
C      1  0.5552990000000  0.4734250000000  0.4937540000000 1.0
C      1  0.5545830000000  0.4224130000000  0.4569690000000 1.0
C      1  0.5543230000000  0.4318800000000  0.5449430000000 1.0
C      1  0.4882360000000  0.4880310000000  0.4754180000000 1.0
C      1  0.6031220000000  0.4718910000000  0.4871220000000 1.0
C      1  0.6398480000000  0.5303270000000  0.3860150000000 1.0
C      1  0.5934370000000  0.5154110000000  0.4482600000000 1.0
C      1  0.5007760000000  0.4227280000000  0.5034720000000 1.0
C      1  0.4438370000000  0.4437690000000  0.4572070000000 1.0
C      1  0.4998130000000  0.4652710000000  0.4266160000000 1.0
C      1  0.4686150000000  0.5302780000000  0.5766700000000 1.0
C      1  0.5357270000000  0.4381050000000  0.4466460000000 1.0
C      1  0.6245260000000  0.5254360000000  0.4065320000000 1.0
C      1  0.5790780000000  0.4843890000000  0.4836430000000 1.0
END
