TITL C-3623283-6828-115 -9.74175526174686e-09 125000 -479.217411813365 0 0 77 (C1) n - 1
REM
REM in /home/nfs/bkarasulu/CARBON/AIRSS/Generating-Clusters/LCBOP/Higher-Symm/SD-CG/FIRE-CG
REM
REM
REM
REM
REM
REM ./C.cell (b20cbc046b6831c77cfcea5457e17084)
REM AIRSS Version 0.9.1 bugfix July 2018 build 013d7b7c2542+ Fri, 06 Jul 2018 19:26:36 +0100
REM compiler GCC version 9.2.1 20190827 (Red Hat 9.2.1-1)
REM options -cpp -mtune=generic -march=x86-64 -g -O0 -fpre-include=/usr/include/finclude/math-vector-fortran.h
REM seed -870089994 2049187095 -864811794 -377543308 1600246755 507745540 -1890986033 -569823008 -228899535 1489127849 -2050847624 1950267872 -254756710 -1783043706 -1661023553 -932269898 1062863173 1015914451 1801048732 30975834 -387282926 -326734003 -2146800314 584676569 -403849838 1544808466 1526559786 -2076467185 454921553 1523286608 -1710354134 -1754694774 -1456631110
REM
CELL 1.54180   50.00000   50.00000   50.00000   90.00000   90.00000   90.00000
LATT -1
SFAC C  
C      1  0.5050790000000  0.4517350000000  0.5189830000000 1.0
C      1  0.5047470000000  0.5026220000000  0.5511540000000 1.0
C      1  0.5042720000000  0.5489350000000  0.5141290000000 1.0
C      1  0.5028660000000  0.5184710000000  0.4583540000000 1.0
C      1  0.5057020000000  0.4721670000000  0.4665740000000 1.0
C      1  0.5650280000000  0.5215020000000  0.4880510000000 1.0
C      1  0.5664350000000  0.4955510000000  0.4744300000000 1.0
C      1  0.5664260000000  0.4745400000000  0.4951960000000 1.0
C      1  0.5661410000000  0.4878290000000  0.5214560000000 1.0
C      1  0.5657080000000  0.5168420000000  0.5170300000000 1.0
C      1  0.5357960000000  0.4269230000000  0.5565520000000 1.0
C      1  0.5356000000000  0.5308030000000  0.5860300000000 1.0
C      1  0.5337410000000  0.5906400000000  0.4951550000000 1.0
C      1  0.5368180000000  0.5271260000000  0.4115210000000 1.0
C      1  0.5346160000000  0.4231960000000  0.4482310000000 1.0
C      1  0.4416610000000  0.4988510000000  0.5544180000000 1.0
C      1  0.4414820000000  0.5513920000000  0.5173540000000 1.0
C      1  0.4420500000000  0.5323740000000  0.4559150000000 1.0
C      1  0.4428590000000  0.4687430000000  0.4548150000000 1.0
C      1  0.4421700000000  0.4474660000000  0.5158090000000 1.0
C      1  0.4425040000000  0.5248910000000  0.5655350000000 1.0
C      1  0.4428470000000  0.5698440000000  0.4958930000000 1.0
C      1  0.4409930000000  0.5186430000000  0.4311590000000 1.0
C      1  0.4446300000000  0.4411290000000  0.4610250000000 1.0
C      1  0.4428730000000  0.4449210000000  0.5440170000000 1.0
C      1  0.4650730000000  0.5398590000000  0.5573480000000 1.0
C      1  0.4657070000000  0.5662510000000  0.4796370000000 1.0
C      1  0.4633000000000  0.5020140000000  0.4261870000000 1.0
C      1  0.4667630000000  0.4340620000000  0.4770990000000 1.0
C      1  0.4653170000000  0.4573550000000  0.5559300000000 1.0
C      1  0.5423410000000  0.5636470000000  0.4957640000000 1.0
C      1  0.5429010000000  0.5159160000000  0.4367250000000 1.0
C      1  0.5431520000000  0.4447360000000  0.4642560000000 1.0
C      1  0.5443700000000  0.4487140000000  0.5405860000000 1.0
C      1  0.5441130000000  0.5224680000000  0.5603010000000 1.0
C      1  0.4739610000000  0.4901980000000  0.5920470000000 1.0
C      1  0.4734850000000  0.5845410000000  0.5372630000000 1.0
C      1  0.4753340000000  0.5621240000000  0.4316230000000 1.0
C      1  0.4743720000000  0.4543970000000  0.4190370000000 1.0
C      1  0.4744660000000  0.4090440000000  0.5192330000000 1.0
C      1  0.5140960000000  0.6028880000000  0.5095060000000 1.0
C      1  0.5177390000000  0.5455900000000  0.4055240000000 1.0
C      1  0.5146950000000  0.4225800000000  0.4298090000000 1.0
C      1  0.5156270000000  0.4091810000000  0.5519480000000 1.0
C      1  0.5154900000000  0.5210140000000  0.6015970000000 1.0
C      1  0.4589200000000  0.4810030000000  0.5696260000000 1.0
C      1  0.4586550000000  0.5602670000000  0.5391480000000 1.0
C      1  0.4598930000000  0.5553060000000  0.4544940000000 1.0
C      1  0.4586250000000  0.4747130000000  0.4311320000000 1.0
C      1  0.4597110000000  0.4277390000000  0.5035490000000 1.0
C      1  0.4374550000000  0.5158700000000  0.4797350000000 1.0
C      1  0.4377450000000  0.4858810000000  0.4780260000000 1.0
C      1  0.4374470000000  0.4748180000000  0.5061660000000 1.0
C      1  0.4370740000000  0.4981840000000  0.5253690000000 1.0
C      1  0.4369960000000  0.5235840000000  0.5089910000000 1.0
C      1  0.5290220000000  0.5313180000000  0.4579370000000 1.0
C      1  0.5318500000000  0.4698270000000  0.4545850000000 1.0
C      1  0.5325760000000  0.4462600000000  0.5136720000000 1.0
C      1  0.5323760000000  0.4961020000000  0.5542150000000 1.0
C      1  0.5320610000000  0.5505150000000  0.5200890000000 1.0
C      1  0.5501660000000  0.5338840000000  0.5344940000000 1.0
C      1  0.5472510000000  0.5418990000000  0.4775260000000 1.0
C      1  0.5503610000000  0.4915340000000  0.4506650000000 1.0
C      1  0.5502550000000  0.4506670000000  0.4916870000000 1.0
C      1  0.5502710000000  0.4768520000000  0.5430520000000 1.0
C      1  0.4886000000000  0.5575880000000  0.4938430000000 1.0
C      1  0.4880090000000  0.5132510000000  0.4344520000000 1.0
C      1  0.4902370000000  0.4490160000000  0.4717860000000 1.0
C      1  0.4889230000000  0.4557840000000  0.5402920000000 1.0
C      1  0.4885600000000  0.5241770000000  0.5540900000000 1.0
C      1  0.4939930000000  0.4029340000000  0.5369220000000 1.0
C      1  0.4937370000000  0.5049690000000  0.6031060000000 1.0
C      1  0.4928270000000  0.5996620000000  0.5259280000000 1.0
C      1  0.4958540000000  0.5587340000000  0.4144170000000 1.0
C      1  0.4936210000000  0.4355840000000  0.4191590000000 1.0
C      1  0.4991930000000  0.4975750000000  0.4771350000000 1.0
C      1  0.4899690000000  0.5010410000000  0.5022680000000 1.0
END
