TITL C-3623284-6838-899 0.216380801401732 125000 -449.571681349343 0 0 76 (C1) n - 1
REM
REM in /home/nfs/bkarasulu/CARBON/AIRSS/Generating-Clusters/LCBOP/Higher-Symm/SD-CG/FIRE-CG
REM
REM
REM
REM
REM
REM ./C.cell (b20cbc046b6831c77cfcea5457e17084)
REM AIRSS Version 0.9.1 bugfix July 2018 build 013d7b7c2542+ Fri, 06 Jul 2018 19:26:36 +0100
REM compiler GCC version 9.2.1 20190827 (Red Hat 9.2.1-1)
REM options -cpp -mtune=generic -march=x86-64 -g -O0 -fpre-include=/usr/include/finclude/math-vector-fortran.h
REM seed -1545306352 515007366 -2046283428 -991466508 974155303 752332091 1900210960 -454225840 1669567435 -1815127605 -969067704 1940485817 936237771 1327770105 1201803737 881895320 -634822853 -2128131858 -1660778211 -1362418810 -1513650386 -819817543 -1087975389 1790471892 -14964762 850658452 -413679978 -487421951 -630485891 -1127358209 -1025519382 610139068 901721434
REM
CELL 1.54180   50.00000   50.00000   50.00000   90.00000   90.00000   90.00000
LATT -1
SFAC C  
C      1  0.4350990000000  0.5683420000000  0.4662050000000 1.0
C      1  0.5629120000000  0.4363690000000  0.4476630000000 1.0
C      1  0.4181970000000  0.5111810000000  0.6170500000000 1.0
C      1  0.5025480000000  0.5739190000000  0.4925880000000 1.0
C      1  0.5754140000000  0.4932090000000  0.4656860000000 1.0
C      1  0.5457210000000  0.5595910000000  0.4686140000000 1.0
C      1  0.4819680000000  0.5638650000000  0.4758960000000 1.0
C      1  0.3587870000000  0.5006450000000  0.5412140000000 1.0
C      1  0.5228930000000  0.5434690000000  0.4173950000000 1.0
C      1  0.5354490000000  0.4744030000000  0.5561930000000 1.0
C      1  0.4559050000000  0.5524270000000  0.4743780000000 1.0
C      1  0.4610030000000  0.5622110000000  0.5856010000000 1.0
C      1  0.5176680000000  0.5230980000000  0.5575120000000 1.0
C      1  0.5567160000000  0.4342740000000  0.5005370000000 1.0
C      1  0.5400010000000  0.5058360000000  0.4427290000000 1.0
C      1  0.5059890000000  0.5228180000000  0.5100640000000 1.0
C      1  0.5244780000000  0.4696640000000  0.4654830000000 1.0
C      1  0.4937510000000  0.5767230000000  0.5195020000000 1.0
C      1  0.5703700000000  0.5429190000000  0.4764580000000 1.0
C      1  0.5790080000000  0.5217900000000  0.4571330000000 1.0
C      1  0.5202410000000  0.4956230000000  0.5627260000000 1.0
C      1  0.5629950000000  0.5212830000000  0.4330760000000 1.0
C      1  0.5012220000000  0.5324980000000  0.5360970000000 1.0
C      1  0.4865530000000  0.4533230000000  0.4387390000000 1.0
C      1  0.4504710000000  0.5252790000000  0.4809430000000 1.0
C      1  0.5178250000000  0.4202450000000  0.4460830000000 1.0
C      1  0.5517740000000  0.5802360000000  0.5368960000000 1.0
C      1  0.4396770000000  0.4761430000000  0.4866030000000 1.0
C      1  0.5203950000000  0.5149260000000  0.4054480000000 1.0
C      1  0.4485270000000  0.4564560000000  0.5437800000000 1.0
C      1  0.5313750000000  0.4209600000000  0.4991450000000 1.0
C      1  0.4560720000000  0.4975800000000  0.4772670000000 1.0
C      1  0.4802280000000  0.4932320000000  0.4632230000000 1.0
C      1  0.5462150000000  0.5845470000000  0.5110540000000 1.0
C      1  0.3961730000000  0.4923500000000  0.5081980000000 1.0
C      1  0.4881950000000  0.5577270000000  0.5394600000000 1.0
C      1  0.5472400000000  0.5013650000000  0.4997080000000 1.0
C      1  0.4029270000000  0.4797990000000  0.5793660000000 1.0
C      1  0.4903210000000  0.4255840000000  0.4410260000000 1.0
C      1  0.5482260000000  0.5644160000000  0.5581970000000 1.0
C      1  0.5694230000000  0.4343630000000  0.4741760000000 1.0
C      1  0.5862370000000  0.4693630000000  0.5059770000000 1.0
C      1  0.3352270000000  0.5091010000000  0.5484670000000 1.0
C      1  0.5673720000000  0.4532550000000  0.5206670000000 1.0
C      1  0.5130940000000  0.4212530000000  0.5201320000000 1.0
C      1  0.4963300000000  0.4706900000000  0.4585630000000 1.0
C      1  0.5315610000000  0.4610010000000  0.4145420000000 1.0
C      1  0.4037890000000  0.4793070000000  0.5516610000000 1.0
C      1  0.5595590000000  0.4728680000000  0.5416940000000 1.0
C      1  0.5247380000000  0.5161150000000  0.4900850000000 1.0
C      1  0.4408150000000  0.4499690000000  0.4759970000000 1.0
C      1  0.4705270000000  0.4416560000000  0.5429880000000 1.0
C      1  0.5792310000000  0.5225340000000  0.5267780000000 1.0
C      1  0.4924170000000  0.5163050000000  0.4531150000000 1.0
C      1  0.5315060000000  0.5749340000000  0.4888250000000 1.0
C      1  0.5359830000000  0.5423050000000  0.5672110000000 1.0
C      1  0.4487010000000  0.4260500000000  0.4668550000000 1.0
C      1  0.3839370000000  0.4916300000000  0.5342830000000 1.0
C      1  0.5200370000000  0.5649160000000  0.4005270000000 1.0
C      1  0.5736950000000  0.4991310000000  0.5402870000000 1.0
C      1  0.5245420000000  0.4868810000000  0.4057010000000 1.0
C      1  0.4729320000000  0.5635800000000  0.5619610000000 1.0
C      1  0.4476110000000  0.5518950000000  0.6060640000000 1.0
C      1  0.4678520000000  0.4131760000000  0.4527530000000 1.0
C      1  0.5733930000000  0.4905000000000  0.4933480000000 1.0
C      1  0.5282290000000  0.5488910000000  0.4472980000000 1.0
C      1  0.5380850000000  0.4376400000000  0.4327450000000 1.0
C      1  0.4265850000000  0.4713010000000  0.5356400000000 1.0
C      1  0.5488560000000  0.4826660000000  0.4563440000000 1.0
C      1  0.4222990000000  0.4802870000000  0.5082300000000 1.0
C      1  0.5205260000000  0.5218870000000  0.4593310000000 1.0
C      1  0.4325740000000  0.5335190000000  0.6179790000000 1.0
C      1  0.5781210000000  0.5384350000000  0.5043220000000 1.0
C      1  0.4923100000000  0.4289650000000  0.5347080000000 1.0
C      1  0.5237140000000  0.4119420000000  0.4730050000000 1.0
C      1  0.4076640000000  0.4913650000000  0.6028030000000 1.0
END
