TITL C-3623285-6872-1738 -2.64610994004566e-05 125000 -599.611890777131 0 0 98 (C1) n - 1
REM
REM in /home/nfs/bkarasulu/CARBON/AIRSS/Generating-Clusters/LCBOP/Higher-Symm/SD-CG/FIRE-CG
REM
REM
REM
REM
REM
REM ./C.cell (b20cbc046b6831c77cfcea5457e17084)
REM AIRSS Version 0.9.1 bugfix July 2018 build 013d7b7c2542+ Fri, 06 Jul 2018 19:26:36 +0100
REM compiler GCC version 9.2.1 20190827 (Red Hat 9.2.1-1)
REM options -cpp -mtune=generic -march=x86-64 -g -O0 -fpre-include=/usr/include/finclude/math-vector-fortran.h
REM seed -337975205 -1111248398 798715192 428859412 1796910367 1710089427 269237460 1493125414 1858295802 -1098812621 322296748 788127305 280266895 -600080056 1610558797 -1707244214 -1685573114 1164233049 1077452956 174154183 703846053 -255902412 -1667886904 -384031646 -633742736 -1921696990 -1898662762 -1071392601 1411746721 391965388 -1415142708 -1869850862 -1370782457
REM
CELL 1.54180   50.00000   50.00000   50.00000   90.00000   90.00000   90.00000
LATT -1
SFAC C  
C      1  0.4966330000000  0.4970880000000  0.5271480000000 1.0
C      1  0.5017000000000  0.5219950000000  0.5137990000000 1.0
C      1  0.4964970000000  0.5226930000000  0.4855450000000 1.0
C      1  0.5030230000000  0.4988130000000  0.4710530000000 1.0
C      1  0.4974620000000  0.4740790000000  0.4844670000000 1.0
C      1  0.5034880000000  0.4734520000000  0.5124600000000 1.0
C      1  0.5757110000000  0.4942760000000  0.5767320000000 1.0
C      1  0.4353500000000  0.5641680000000  0.5489640000000 1.0
C      1  0.5736000000000  0.5707830000000  0.4669830000000 1.0
C      1  0.4246280000000  0.5087160000000  0.4238170000000 1.0
C      1  0.5793740000000  0.4376350000000  0.4556240000000 1.0
C      1  0.4192320000000  0.4301440000000  0.5288090000000 1.0
C      1  0.4118920000000  0.5162800000000  0.5397290000000 1.0
C      1  0.6017810000000  0.5544720000000  0.5201620000000 1.0
C      1  0.4089260000000  0.5292630000000  0.4704730000000 1.0
C      1  0.6051040000000  0.4933020000000  0.4445860000000 1.0
C      1  0.3939800000000  0.4496220000000  0.4755980000000 1.0
C      1  0.6054980000000  0.4584480000000  0.5353930000000 1.0
C      1  0.6051890000000  0.5061190000000  0.5266690000000 1.0
C      1  0.3768740000000  0.5256670000000  0.5076100000000 1.0
C      1  0.6049150000000  0.5231600000000  0.4833180000000 1.0
C      1  0.3739470000000  0.4957160000000  0.4712820000000 1.0
C      1  0.6067490000000  0.4771390000000  0.4902350000000 1.0
C      1  0.3946460000000  0.4812130000000  0.5118740000000 1.0
C      1  0.4173600000000  0.4941770000000  0.4018430000000 1.0
C      1  0.5913150000000  0.4130420000000  0.4563670000000 1.0
C      1  0.4069930000000  0.4194910000000  0.5508080000000 1.0
C      1  0.5858590000000  0.5076630000000  0.5983140000000 1.0
C      1  0.4345910000000  0.5914660000000  0.5505300000000 1.0
C      1  0.5841190000000  0.5833210000000  0.4450690000000 1.0
C      1  0.5424170000000  0.4377700000000  0.5225010000000 1.0
C      1  0.4585390000000  0.4859260000000  0.5633400000000 1.0
C      1  0.5377860000000  0.5505100000000  0.5415070000000 1.0
C      1  0.4603200000000  0.5611690000000  0.4764870000000 1.0
C      1  0.5404850000000  0.5101370000000  0.4343010000000 1.0
C      1  0.4581290000000  0.4494530000000  0.4585550000000 1.0
C      1  0.5681990000000  0.4492100000000  0.4792580000000 1.0
C      1  0.4317990000000  0.4558480000000  0.5298460000000 1.0
C      1  0.5650230000000  0.5085200000000  0.5543650000000 1.0
C      1  0.4411290000000  0.5507000000000  0.5240450000000 1.0
C      1  0.5644090000000  0.5437600000000  0.4653740000000 1.0
C      1  0.4345180000000  0.4959910000000  0.4478690000000 1.0
C      1  0.5826540000000  0.4818720000000  0.4321040000000 1.0
C      1  0.4157350000000  0.4322580000000  0.4791920000000 1.0
C      1  0.5825000000000  0.4521320000000  0.5502860000000 1.0
C      1  0.4218670000000  0.5200460000000  0.5657370000000 1.0
C      1  0.5781290000000  0.5693420000000  0.5170050000000 1.0
C      1  0.4187500000000  0.5481320000000  0.4518830000000 1.0
C      1  0.4473610000000  0.4715340000000  0.4455190000000 1.0
C      1  0.5531300000000  0.4337690000000  0.4969860000000 1.0
C      1  0.4473040000000  0.4629310000000  0.5520140000000 1.0
C      1  0.5487560000000  0.5309030000000  0.5581480000000 1.0
C      1  0.4515990000000  0.5651520000000  0.5026900000000 1.0
C      1  0.5496190000000  0.5349620000000  0.4433770000000 1.0
C      1  0.5535210000000  0.5725290000000  0.5335900000000 1.0
C      1  0.4422350000000  0.5661980000000  0.4553990000000 1.0
C      1  0.5579050000000  0.4932610000000  0.4199180000000 1.0
C      1  0.4410920000000  0.4277690000000  0.4641660000000 1.0
C      1  0.5588590000000  0.4346350000000  0.5451960000000 1.0
C      1  0.4424280000000  0.5030300000000  0.5791200000000 1.0
C      1  0.4221300000000  0.5369740000000  0.4243820000000 1.0
C      1  0.5783450000000  0.4524820000000  0.4317450000000 1.0
C      1  0.4193460000000  0.4165350000000  0.5041610000000 1.0
C      1  0.5761140000000  0.4661630000000  0.5756790000000 1.0
C      1  0.4300480000000  0.5480870000000  0.5717500000000 1.0
C      1  0.5721550000000  0.5839210000000  0.4918210000000 1.0
C      1  0.5482280000000  0.4720240000000  0.4026360000000 1.0
C      1  0.4504220000000  0.4018950000000  0.4733110000000 1.0
C      1  0.5480050000000  0.4296950000000  0.5716740000000 1.0
C      1  0.4525990000000  0.5197490000000  0.6005170000000 1.0
C      1  0.5418250000000  0.5973280000000  0.5240230000000 1.0
C      1  0.4498980000000  0.5736350000000  0.4284830000000 1.0
C      1  0.4326590000000  0.5235500000000  0.5203180000000 1.0
C      1  0.5750460000000  0.5238040000000  0.4824680000000 1.0
C      1  0.4285740000000  0.5077480000000  0.4735310000000 1.0
C      1  0.5770230000000  0.4744870000000  0.4885840000000 1.0
C      1  0.4235960000000  0.4766970000000  0.5123320000000 1.0
C      1  0.5753850000000  0.5044400000000  0.5282910000000 1.0
C      1  0.3826820000000  0.5219950000000  0.4796880000000 1.0
C      1  0.6135070000000  0.4982820000000  0.4712240000000 1.0
C      1  0.3831150000000  0.4733210000000  0.4865060000000 1.0
C      1  0.6137770000000  0.4794820000000  0.5182390000000 1.0
C      1  0.3888220000000  0.5065690000000  0.5255500000000 1.0
C      1  0.6118040000000  0.5295630000000  0.5109910000000 1.0
C      1  0.5185700000000  0.4526530000000  0.5235250000000 1.0
C      1  0.4821850000000  0.4951920000000  0.5511000000000 1.0
C      1  0.5149190000000  0.5428180000000  0.5270440000000 1.0
C      1  0.4827030000000  0.5442110000000  0.4738990000000 1.0
C      1  0.5175530000000  0.5001300000000  0.4471700000000 1.0
C      1  0.4824160000000  0.4540350000000  0.4719400000000 1.0
C      1  0.5525280000000  0.6037660000000  0.4993470000000 1.0
C      1  0.4381790000000  0.5563670000000  0.4103200000000 1.0
C      1  0.5599890000000  0.4480560000000  0.4098550000000 1.0
C      1  0.4376940000000  0.3953630000000  0.4969870000000 1.0
C      1  0.5578850000000  0.4484470000000  0.5894400000000 1.0
C      1  0.4455360000000  0.5461280000000  0.5960220000000 1.0
C      1  0.5668160000000  0.5005380000000  0.4996940000000 1.0
C      1  0.4352880000000  0.5015830000000  0.5009900000000 1.0
END
