TITL C-3623284-6838-1173 0.320611205220641 125000 -365.656749796189 0 0 60 (C1) n - 1
REM
REM in /home/nfs/bkarasulu/CARBON/AIRSS/Generating-Clusters/LCBOP/Higher-Symm/SD-CG/FIRE-CG
REM
REM
REM
REM
REM
REM ./C.cell (b20cbc046b6831c77cfcea5457e17084)
REM AIRSS Version 0.9.1 bugfix July 2018 build 013d7b7c2542+ Fri, 06 Jul 2018 19:26:36 +0100
REM compiler GCC version 9.2.1 20190827 (Red Hat 9.2.1-1)
REM options -cpp -mtune=generic -march=x86-64 -g -O0 -fpre-include=/usr/include/finclude/math-vector-fortran.h
REM seed 1329455655 -1157254233 -1611754479 2091519962 1106095788 -2042064279 -999466812 -431770726 -2041547805 -2030557365 1087456454 -1391724673 1340518640 693978758 700319209 -2061562677 -177336323 4620299 -734185625 -1778170742 555329508 831519028 -1735088806 -1254246747 2103267238 1125929625 1618284509 285737010 -860508381 -926655337 911778926 1970437235 -1976593376
REM
CELL 1.54180   50.00000   50.00000   50.00000   90.00000   90.00000   90.00000
LATT -1
SFAC C  
C      1  0.5813390000000  0.5558860000000  0.3856230000000 1.0
C      1  0.3662600000000  0.5567680000000  0.5040890000000 1.0
C      1  0.5523580000000  0.5640320000000  0.6099530000000 1.0
C      1  0.5169300000000  0.4431410000000  0.5844030000000 1.0
C      1  0.5603860000000  0.4442780000000  0.4440870000000 1.0
C      1  0.4173220000000  0.4428230000000  0.4700980000000 1.0
C      1  0.4335350000000  0.4374730000000  0.4477080000000 1.0
C      1  0.4901750000000  0.4347840000000  0.5817450000000 1.0
C      1  0.5725840000000  0.4343900000000  0.4673230000000 1.0
C      1  0.4941200000000  0.4817030000000  0.4499440000000 1.0
C      1  0.4577760000000  0.4763870000000  0.5269580000000 1.0
C      1  0.5423660000000  0.4776750000000  0.5199680000000 1.0
C      1  0.5222150000000  0.5044830000000  0.5786290000000 1.0
C      1  0.5594630000000  0.5067090000000  0.4359050000000 1.0
C      1  0.4127580000000  0.5029750000000  0.4844620000000 1.0
C      1  0.5356150000000  0.5033240000000  0.5078070000000 1.0
C      1  0.4815350000000  0.5029060000000  0.4634200000000 1.0
C      1  0.4714100000000  0.5022740000000  0.5270270000000 1.0
C      1  0.3886160000000  0.5427180000000  0.5020040000000 1.0
C      1  0.5427600000000  0.5479220000000  0.5912480000000 1.0
C      1  0.5740660000000  0.5456660000000  0.4089520000000 1.0
C      1  0.4564030000000  0.4462170000000  0.4368690000000 1.0
C      1  0.4690390000000  0.4427250000000  0.5673540000000 1.0
C      1  0.5725500000000  0.4429620000000  0.4926680000000 1.0
C      1  0.4116870000000  0.5274730000000  0.4994730000000 1.0
C      1  0.5326300000000  0.5304910000000  0.5721470000000 1.0
C      1  0.5665350000000  0.5342740000000  0.4331230000000 1.0
C      1  0.5254370000000  0.4889300000000  0.6019070000000 1.0
C      1  0.5733060000000  0.4862590000000  0.4223550000000 1.0
C      1  0.3926240000000  0.4862310000000  0.4739890000000 1.0
C      1  0.5618150000000  0.4605600000000  0.5094900000000 1.0
C      1  0.4776720000000  0.4623030000000  0.4378170000000 1.0
C      1  0.4588520000000  0.4587700000000  0.5486860000000 1.0
C      1  0.5713920000000  0.5958860000000  0.6471990000000 1.0
C      1  0.5958010000000  0.5760070000000  0.3392530000000 1.0
C      1  0.3218050000000  0.5845430000000  0.5081510000000 1.0
C      1  0.5544400000000  0.5386610000000  0.4799520000000 1.0
C      1  0.4612770000000  0.5211250000000  0.5077010000000 1.0
C      1  0.5193630000000  0.5204370000000  0.5245320000000 1.0
C      1  0.5310380000000  0.4466420000000  0.5597970000000 1.0
C      1  0.5333850000000  0.4524600000000  0.4466900000000 1.0
C      1  0.4312550000000  0.4451230000000  0.4949870000000 1.0
C      1  0.5287710000000  0.4700370000000  0.5442040000000 1.0
C      1  0.5221010000000  0.4779150000000  0.4516350000000 1.0
C      1  0.4432510000000  0.4692980000000  0.5031360000000 1.0
C      1  0.4366390000000  0.5350210000000  0.5117180000000 1.0
C      1  0.5316600000000  0.5371270000000  0.5442110000000 1.0
C      1  0.5647890000000  0.5489600000000  0.4572070000000 1.0
C      1  0.5116180000000  0.4901480000000  0.5558860000000 1.0
C      1  0.5406070000000  0.4990890000000  0.4569130000000 1.0
C      1  0.4388830000000  0.4909400000000  0.4844580000000 1.0
C      1  0.3947110000000  0.4599100000000  0.4676350000000 1.0
C      1  0.5235520000000  0.4620180000000  0.6045780000000 1.0
C      1  0.5751090000000  0.4595510000000  0.4254630000000 1.0
C      1  0.4974260000000  0.5055640000000  0.5364930000000 1.0
C      1  0.5430860000000  0.5126950000000  0.4822210000000 1.0
C      1  0.4614710000000  0.5084380000000  0.4816370000000 1.0
C      1  0.5886300000000  0.5660300000000  0.3622460000000 1.0
C      1  0.3438490000000  0.5707710000000  0.5061370000000 1.0
C      1  0.5619540000000  0.5800920000000  0.6287300000000 1.0
END
