TITL C-3623284-6838-951 3557.17470317726 125000 -497.015458815209 0 0 84 (C1) n - 1
REM
REM in /home/nfs/bkarasulu/CARBON/AIRSS/Generating-Clusters/LCBOP/Higher-Symm/SD-CG/FIRE-CG
REM
REM
REM
REM
REM
REM ./C.cell (b20cbc046b6831c77cfcea5457e17084)
REM AIRSS Version 0.9.1 bugfix July 2018 build 013d7b7c2542+ Fri, 06 Jul 2018 19:26:36 +0100
REM compiler GCC version 9.2.1 20190827 (Red Hat 9.2.1-1)
REM options -cpp -mtune=generic -march=x86-64 -g -O0 -fpre-include=/usr/include/finclude/math-vector-fortran.h
REM seed -834057989 2005966039 -1120219959 758028058 -1450362890 263929962 978360656 1957287323 -1125735497 830905706 -1009436481 515539374 1234080515 639268685 -1140198675 -1981008240 -2119630381 1952720758 -1299937026 1509509778 -1303661675 -1641089738 -747236515 -1641870340 -603984866 2070371493 1216843707 2030890224 -1985699206 1666323479 -1013916303 -198137199 -970194751
REM
CELL 1.54180   50.00000   50.00000   50.00000   90.00000   90.00000   90.00000
LATT -1
SFAC C  
C      1  0.5267790000000  0.5024320000000  0.5548450000000 1.0
C      1  0.5330970000000  0.5350820000000  0.5884630000000 1.0
C      1  0.5646120000000  0.4682180000000  0.4682630000000 1.0
C      1  0.4571070000000  0.4974120000000  0.4129950000000 1.0
C      1  0.5180080000000  0.4250400000000  0.5479140000000 1.0
C      1  0.4546430000000  0.5761450000000  0.5596450000000 1.0
C      1  0.5839980000000  0.4940050000000  0.5151190000000 1.0
C      1  0.5230890000000  0.5150620000000  0.4836560000000 1.0
C      1  0.5783980000000  0.4897880000000  0.4784910000000 1.0
C      1  0.5163370000000  0.4605320000000  0.5063340000000 1.0
C      1  0.4312960000000  0.4934660000000  0.4281950000000 1.0
C      1  0.6100220000000  0.5421150000000  0.5123690000000 1.0
C      1  0.5067870000000  0.5282180000000  0.5932820000000 1.0
C      1  0.4301400000000  0.4959750000000  0.4986330000000 1.0
C      1  0.5219160000000  0.4865390000000  0.5783260000000 1.0
C      1  0.4710030000000  0.4361180000000  0.5283700000000 1.0
C      1  0.4151570000000  0.4960940000000  0.4741790000000 1.0
C      1  0.4625850000000  0.5264030000000  0.4170520000000 1.0
C      1  0.4822200000000  0.5225060000000  0.4605290000000 1.0
C      1  0.4953040000000  0.4631740000000  0.5512520000000 1.0
C      1  0.4377240000000  0.5538060000000  0.5624640000000 1.0
C      1  0.5654490000000  0.5320890000000  0.4604050000000 1.0
C      1  0.5007110000000  0.5022410000000  0.4700930000000 1.0
C      1  0.4841310000000  0.5127740000000  0.5905580000000 1.0
C      1  0.5704290000000  0.5519310000000  0.4106470000000 1.0
C      1  0.4356190000000  0.5290030000000  0.5490950000000 1.0
C      1  0.4671290000000  0.4935150000000  0.5804760000000 1.0
C      1  0.5954270000000  0.5234940000000  0.4999890000000 1.0
C      1  0.5470710000000  0.5763700000000  0.5169590000000 1.0
C      1  0.5609390000000  0.4479850000000  0.4886690000000 1.0
C      1  0.5052290000000  0.4656450000000  0.5761110000000 1.0
C      1  0.4477660000000  0.5185450000000  0.5019350000000 1.0
C      1  0.4793370000000  0.4573530000000  0.4275790000000 1.0
C      1  0.4802460000000  0.5168120000000  0.5386260000000 1.0
C      1  0.4419980000000  0.4552430000000  0.4615340000000 1.0
C      1  0.5069550000000  0.5050490000000  0.5319100000000 1.0
C      1  0.5679740000000  0.5423430000000  0.4347550000000 1.0
C      1  0.5100160000000  0.4337070000000  0.4590380000000 1.0
C      1  0.5270110000000  0.5813920000000  0.5366640000000 1.0
C      1  0.5411590000000  0.4399080000000  0.5511500000000 1.0
C      1  0.4271680000000  0.5035990000000  0.5589380000000 1.0
C      1  0.4983330000000  0.4495450000000  0.4848760000000 1.0
C      1  0.4831000000000  0.5787400000000  0.5672390000000 1.0
C      1  0.5368180000000  0.4269550000000  0.4570930000000 1.0
C      1  0.5546050000000  0.5085340000000  0.5529070000000 1.0
C      1  0.4064360000000  0.5194270000000  0.4593600000000 1.0
C      1  0.4686950000000  0.4647990000000  0.4525060000000 1.0
C      1  0.4805790000000  0.4804950000000  0.4105990000000 1.0
C      1  0.5004700000000  0.5863640000000  0.5448480000000 1.0
C      1  0.4612210000000  0.5280990000000  0.4787190000000 1.0
C      1  0.4327620000000  0.4296590000000  0.4490270000000 1.0
C      1  0.4861100000000  0.5293450000000  0.4329000000000 1.0
C      1  0.4800420000000  0.3953220000000  0.5526790000000 1.0
C      1  0.4473250000000  0.4517470000000  0.4909300000000 1.0
C      1  0.5258900000000  0.4678980000000  0.4280980000000 1.0
C      1  0.5050150000000  0.4468560000000  0.4333290000000 1.0
C      1  0.5093040000000  0.4896840000000  0.4148860000000 1.0
C      1  0.4547270000000  0.5898480000000  0.5338880000000 1.0
C      1  0.5425920000000  0.5361470000000  0.4767520000000 1.0
C      1  0.4996700000000  0.5475200000000  0.5073320000000 1.0
C      1  0.4376060000000  0.5392950000000  0.4224990000000 1.0
C      1  0.5483570000000  0.4619510000000  0.4452960000000 1.0
C      1  0.5552410000000  0.4231860000000  0.4768130000000 1.0
C      1  0.5138280000000  0.5229910000000  0.5094250000000 1.0
C      1  0.5559830000000  0.5290820000000  0.5735200000000 1.0
C      1  0.5709890000000  0.5896580000000  0.5195730000000 1.0
C      1  0.4552180000000  0.5249080000000  0.5285240000000 1.0
C      1  0.4252680000000  0.4783770000000  0.4530260000000 1.0
C      1  0.4810530000000  0.5892060000000  0.5224960000000 1.0
C      1  0.5438530000000  0.5590570000000  0.4944390000000 1.0
C      1  0.4888720000000  0.4757260000000  0.4706590000000 1.0
C      1  0.5852270000000  0.5167660000000  0.4731220000000 1.0
C      1  0.4184180000000  0.5207900000000  0.4332510000000 1.0
C      1  0.4476000000000  0.4827240000000  0.5608880000000 1.0
C      1  0.4723520000000  0.4392890000000  0.4993730000000 1.0
C      1  0.4897480000000  0.4191810000000  0.5428110000000 1.0
C      1  0.5544550000000  0.4610190000000  0.5358670000000 1.0
C      1  0.4499430000000  0.4637830000000  0.5376060000000 1.0
C      1  0.5029550000000  0.4755900000000  0.5266710000000 1.0
C      1  0.5441870000000  0.4563370000000  0.5093920000000 1.0
C      1  0.5679180000000  0.4875740000000  0.5373750000000 1.0
C      1  0.4382890000000  0.4708880000000  0.5107380000000 1.0
C      1  0.5097000000000  0.5177080000000  0.4209000000000 1.0
C      1  0.4872540000000  0.5708050000000  0.5022620000000 1.0
END
