TITL C-3623288-6813-1839 11286.0844742911 125000 -1170.75580493304 0 0 190 (C1) n - 1
REM
REM in /home/nfs/bkarasulu/CARBON/AIRSS/Generating-Clusters/LCBOP/Higher-Symm/SD-CG/FIRE-CG
REM
REM
REM
REM
REM
REM ./C.cell (b20cbc046b6831c77cfcea5457e17084)
REM AIRSS Version 0.9.1 bugfix July 2018 build 013d7b7c2542+ Fri, 06 Jul 2018 19:26:36 +0100
REM compiler GCC version 9.2.1 20190827 (Red Hat 9.2.1-1)
REM options -cpp -mtune=generic -march=x86-64 -g -O0 -fpre-include=/usr/include/finclude/math-vector-fortran.h
REM seed -701193274 -1211008500 -336421652 -1072481599 -2075320159 1141262156 -1787360174 -398452043 -1063622086 956374542 -23526950 -390874979 -1073789088 1790795655 -667192644 -1569641055 611018594 -1628589329 1306027958 -1840590995 42056720 -1720911961 -1148564277 479066696 -166667294 -1575709991 -1292769588 -817327501 -2112552600 -1303303964 -1768369231 1820686878 797988656
REM
CELL 1.54180   50.00000   50.00000   50.00000   90.00000   90.00000   90.00000
LATT -1
SFAC C  
C      1  0.4937080000000  0.5777470000000  0.4438290000000 1.0
C      1  0.5100130000000  0.5834820000000  0.5024830000000 1.0
C      1  0.4673970000000  0.5750930000000  0.5248710000000 1.0
C      1  0.4029040000000  0.4396180000000  0.5193550000000 1.0
C      1  0.5280070000000  0.4316390000000  0.4016060000000 1.0
C      1  0.5630020000000  0.4419590000000  0.5731780000000 1.0
C      1  0.4619020000000  0.5205800000000  0.5561330000000 1.0
C      1  0.4791130000000  0.5066570000000  0.4506080000000 1.0
C      1  0.5615280000000  0.5114840000000  0.5161940000000 1.0
C      1  0.5401020000000  0.4769380000000  0.6269210000000 1.0
C      1  0.3828350000000  0.4965400000000  0.4628680000000 1.0
C      1  0.5695640000000  0.4857580000000  0.4221050000000 1.0
C      1  0.4287530000000  0.4854520000000  0.4623720000000 1.0
C      1  0.5657070000000  0.5146090000000  0.4610030000000 1.0
C      1  0.4985300000000  0.4919590000000  0.5730190000000 1.0
C      1  0.4754910000000  0.4371390000000  0.3977940000000 1.0
C      1  0.6026450000000  0.4394630000000  0.5435650000000 1.0
C      1  0.4237200000000  0.4516400000000  0.5661020000000 1.0
C      1  0.4816910000000  0.4914020000000  0.5959320000000 1.0
C      1  0.4191770000000  0.4982120000000  0.4364480000000 1.0
C      1  0.5961640000000  0.5043830000000  0.4592010000000 1.0
C      1  0.5276640000000  0.4498030000000  0.4971590000000 1.0
C      1  0.4868850000000  0.4376960000000  0.5180890000000 1.0
C      1  0.4867640000000  0.4408620000000  0.4717830000000 1.0
C      1  0.4540140000000  0.4716890000000  0.5188290000000 1.0
C      1  0.5163360000000  0.4830360000000  0.4562370000000 1.0
C      1  0.5213210000000  0.4904470000000  0.5253050000000 1.0
C      1  0.4827400000000  0.3978020000000  0.4490860000000 1.0
C      1  0.5511430000000  0.4070530000000  0.5093480000000 1.0
C      1  0.4639730000000  0.4029290000000  0.5423290000000 1.0
C      1  0.5933490000000  0.4223130000000  0.5220170000000 1.0
C      1  0.4337150000000  0.4246940000000  0.5713690000000 1.0
C      1  0.4711700000000  0.4087990000000  0.4057590000000 1.0
C      1  0.5417920000000  0.5904180000000  0.5557710000000 1.0
C      1  0.4211480000000  0.5772590000000  0.5121300000000 1.0
C      1  0.5426140000000  0.5783590000000  0.4235950000000 1.0
C      1  0.4927750000000  0.4920230000000  0.4723790000000 1.0
C      1  0.5381270000000  0.4987240000000  0.5025080000000 1.0
C      1  0.4847020000000  0.5044730000000  0.5516060000000 1.0
C      1  0.5541580000000  0.4224580000000  0.5542060000000 1.0
C      1  0.4226270000000  0.4173180000000  0.5221160000000 1.0
C      1  0.5190840000000  0.4121720000000  0.4207840000000 1.0
C      1  0.4727200000000  0.4360160000000  0.6090570000000 1.0
C      1  0.4294320000000  0.4323720000000  0.4198320000000 1.0
C      1  0.5980350000000  0.4439720000000  0.4733030000000 1.0
C      1  0.4247140000000  0.5711740000000  0.4514250000000 1.0
C      1  0.5706260000000  0.5685030000000  0.4652780000000 1.0
C      1  0.5013140000000  0.5730460000000  0.5962860000000 1.0
C      1  0.5716090000000  0.4927930000000  0.5876400000000 1.0
C      1  0.4030290000000  0.5010810000000  0.5155700000000 1.0
C      1  0.5312250000000  0.4983020000000  0.3938980000000 1.0
C      1  0.5141220000000  0.6046400000000  0.5220630000000 1.0
C      1  0.4568270000000  0.6034330000000  0.5225610000000 1.0
C      1  0.5079610000000  0.6017980000000  0.4488260000000 1.0
C      1  0.5136700000000  0.5515510000000  0.3676470000000 1.0
C      1  0.6827860000000  0.5332430000000  0.5793880000000 1.0
C      1  0.3914400000000  0.5761440000000  0.5537200000000 1.0
C      1  0.5321100000000  0.4275220000000  0.5143140000000 1.0
C      1  0.4697640000000  0.4149400000000  0.5161940000000 1.0
C      1  0.4992570000000  0.4178430000000  0.4618500000000 1.0
C      1  0.4532520000000  0.3999070000000  0.4497810000000 1.0
C      1  0.5650560000000  0.4090990000000  0.4844630000000 1.0
C      1  0.4795360000000  0.4107450000000  0.5664140000000 1.0
C      1  0.5354640000000  0.5444770000000  0.5435570000000 1.0
C      1  0.4532750000000  0.5457830000000  0.4937050000000 1.0
C      1  0.4986070000000  0.5299910000000  0.4471960000000 1.0
C      1  0.4041470000000  0.4591120000000  0.5439850000000 1.0
C      1  0.5045710000000  0.4486320000000  0.3932700000000 1.0
C      1  0.5889500000000  0.4526780000000  0.5659870000000 1.0
C      1  0.4991500000000  0.4484350000000  0.6113060000000 1.0
C      1  0.4068040000000  0.4406410000000  0.4396490000000 1.0
C      1  0.5940080000000  0.4506330000000  0.4448520000000 1.0
C      1  0.4235360000000  0.4950020000000  0.4090970000000 1.0
C      1  0.6096600000000  0.4925630000000  0.4833590000000 1.0
C      1  0.4537490000000  0.4865350000000  0.5916540000000 1.0
C      1  0.6240810000000  0.5043250000000  0.5048800000000 1.0
C      1  0.4353180000000  0.5056740000000  0.6025090000000 1.0
C      1  0.4380010000000  0.5028330000000  0.3880240000000 1.0
C      1  0.4345410000000  0.6009060000000  0.5011580000000 1.0
C      1  0.5368180000000  0.5972340000000  0.4457050000000 1.0
C      1  0.5138790000000  0.5985650000000  0.5518800000000 1.0
C      1  0.4649950000000  0.5099140000000  0.3886560000000 1.0
C      1  0.6235550000000  0.5041550000000  0.5336900000000 1.0
C      1  0.4193770000000  0.5236240000000  0.5869480000000 1.0
C      1  0.5805790000000  0.4344770000000  0.4233310000000 1.0
C      1  0.5146010000000  0.4405110000000  0.5881770000000 1.0
C      1  0.4106200000000  0.4263070000000  0.4660200000000 1.0
C      1  0.4684850000000  0.5471810000000  0.5609250000000 1.0
C      1  0.4496710000000  0.5641670000000  0.4389740000000 1.0
C      1  0.5531300000000  0.5586360000000  0.4879420000000 1.0
C      1  0.4736450000000  0.4881780000000  0.4297220000000 1.0
C      1  0.5792500000000  0.4916960000000  0.5254540000000 1.0
C      1  0.4362420000000  0.5155300000000  0.5463990000000 1.0
C      1  0.5976830000000  0.4674240000000  0.4892690000000 1.0
C      1  0.4462580000000  0.4698910000000  0.5687090000000 1.0
C      1  0.4522960000000  0.4500030000000  0.4126800000000 1.0
C      1  0.5050770000000  0.5407760000000  0.4763470000000 1.0
C      1  0.5081630000000  0.5397090000000  0.5329500000000 1.0
C      1  0.4764230000000  0.5537680000000  0.4808640000000 1.0
C      1  0.4937570000000  0.5534080000000  0.4292350000000 1.0
C      1  0.5490930000000  0.5696370000000  0.5370570000000 1.0
C      1  0.4442550000000  0.5603890000000  0.5152180000000 1.0
C      1  0.5646080000000  0.5078300000000  0.4058680000000 1.0
C      1  0.5632600000000  0.4847220000000  0.6142280000000 1.0
C      1  0.3917520000000  0.5097380000000  0.4900360000000 1.0
C      1  0.4551680000000  0.6107500000000  0.5505590000000 1.0
C      1  0.4861250000000  0.6199300000000  0.4565880000000 1.0
C      1  0.5366260000000  0.6195770000000  0.5100230000000 1.0
C      1  0.5917370000000  0.4804020000000  0.4395910000000 1.0
C      1  0.5112640000000  0.4732080000000  0.6249420000000 1.0
C      1  0.3879510000000  0.4659340000000  0.4473120000000 1.0
C      1  0.4448630000000  0.4223180000000  0.5002580000000 1.0
C      1  0.5253080000000  0.4241540000000  0.4485480000000 1.0
C      1  0.5282510000000  0.4342060000000  0.5431270000000 1.0
C      1  0.4512820000000  0.5652920000000  0.5755070000000 1.0
C      1  0.4666230000000  0.5516970000000  0.4165140000000 1.0
C      1  0.5594990000000  0.5765620000000  0.5108380000000 1.0
C      1  0.4410840000000  0.4182520000000  0.4699690000000 1.0
C      1  0.5492450000000  0.4127220000000  0.4615360000000 1.0
C      1  0.5022740000000  0.4313400000000  0.5614330000000 1.0
C      1  0.4702510000000  0.5724860000000  0.4601230000000 1.0
C      1  0.5227910000000  0.5633940000000  0.4860060000000 1.0
C      1  0.4852860000000  0.5576050000000  0.5394850000000 1.0
C      1  0.5546480000000  0.4418570000000  0.4103850000000 1.0
C      1  0.5390340000000  0.4555500000000  0.5837230000000 1.0
C      1  0.4023920000000  0.4445150000000  0.4885240000000 1.0
C      1  0.4438120000000  0.4540090000000  0.5002290000000 1.0
C      1  0.5293740000000  0.4610610000000  0.4452640000000 1.0
C      1  0.5275580000000  0.4708910000000  0.5418640000000 1.0
C      1  0.4962320000000  0.4981840000000  0.6194780000000 1.0
C      1  0.3965590000000  0.5159010000000  0.4426130000000 1.0
C      1  0.6086050000000  0.5305100000000  0.4507010000000 1.0
C      1  0.4225630000000  0.4650140000000  0.4831900000000 1.0
C      1  0.5487460000000  0.4661040000000  0.4252860000000 1.0
C      1  0.5283360000000  0.4813800000000  0.5699920000000 1.0
C      1  0.5754090000000  0.4703090000000  0.5061950000000 1.0
C      1  0.4628830000000  0.4666140000000  0.5453400000000 1.0
C      1  0.4617400000000  0.4634270000000  0.4359660000000 1.0
C      1  0.5234210000000  0.5181990000000  0.4865960000000 1.0
C      1  0.4990980000000  0.5102190000000  0.5262340000000 1.0
C      1  0.4838570000000  0.5014410000000  0.5002540000000 1.0
C      1  0.5909650000000  0.5503020000000  0.4413750000000 1.0
C      1  0.5016890000000  0.5265000000000  0.6217520000000 1.0
C      1  0.4024900000000  0.5431840000000  0.4540350000000 1.0
C      1  0.5466930000000  0.5305210000000  0.5665130000000 1.0
C      1  0.4541160000000  0.4976230000000  0.5049870000000 1.0
C      1  0.5211940000000  0.5147620000000  0.4363190000000 1.0
C      1  0.4447790000000  0.4065100000000  0.4218840000000 1.0
C      1  0.5908990000000  0.4217790000000  0.4909060000000 1.0
C      1  0.4599430000000  0.4218060000000  0.5869760000000 1.0
C      1  0.4439030000000  0.5037950000000  0.4775500000000 1.0
C      1  0.5445970000000  0.5282980000000  0.4464170000000 1.0
C      1  0.5549500000000  0.5467560000000  0.5883350000000 1.0
C      1  0.5565460000000  0.6034780000000  0.4962720000000 1.0
C      1  0.4644350000000  0.5923670000000  0.5710130000000 1.0
C      1  0.4588680000000  0.6162150000000  0.4612150000000 1.0
C      1  0.5126160000000  0.5514970000000  0.6117890000000 1.0
C      1  0.4068270000000  0.5344750000000  0.4812080000000 1.0
C      1  0.5747090000000  0.5411000000000  0.4177950000000 1.0
C      1  0.5495200000000  0.5505270000000  0.4275080000000 1.0
C      1  0.5409640000000  0.5521310000000  0.6106790000000 1.0
C      1  0.4350280000000  0.5301290000000  0.4810590000000 1.0
C      1  0.4024480000000  0.5685560000000  0.5769560000000 1.0
C      1  0.5027240000000  0.5375970000000  0.3884080000000 1.0
C      1  0.6641390000000  0.5229900000000  0.5643290000000 1.0
C      1  0.4853030000000  0.4501170000000  0.5441910000000 1.0
C      1  0.4632600000000  0.4477700000000  0.4593260000000 1.0
C      1  0.5480920000000  0.4702940000000  0.4951980000000 1.0
C      1  0.3980980000000  0.4886390000000  0.5428340000000 1.0
C      1  0.5076420000000  0.4780700000000  0.3929570000000 1.0
C      1  0.5917850000000  0.4811510000000  0.5698400000000 1.0
C      1  0.6448850000000  0.5131050000000  0.5490490000000 1.0
C      1  0.4252820000000  0.5530490000000  0.5837690000000 1.0
C      1  0.4738070000000  0.5365560000000  0.3927730000000 1.0
C      1  0.4941410000000  0.5907640000000  0.5740990000000 1.0
C      1  0.4364380000000  0.6001730000000  0.4716640000000 1.0
C      1  0.5590530000000  0.5974110000000  0.4654110000000 1.0
C      1  0.5434300000000  0.5889360000000  0.3981580000000 1.0
C      1  0.5589290000000  0.6028340000000  0.5729340000000 1.0
C      1  0.3983810000000  0.5773810000000  0.5279260000000 1.0
C      1  0.5991490000000  0.4943490000000  0.5451250000000 1.0
C      1  0.4122210000000  0.5094500000000  0.5620470000000 1.0
C      1  0.4821300000000  0.4911240000000  0.4022090000000 1.0
C      1  0.5178960000000  0.5202850000000  0.4059330000000 1.0
C      1  0.5487400000000  0.5030100000000  0.5728560000000 1.0
C      1  0.4311670000000  0.5098780000000  0.5198010000000 1.0
C      1  0.4935390000000  0.3983380000000  0.4211180000000 1.0
C      1  0.5686030000000  0.4093280000000  0.5327630000000 1.0
C      1  0.4349860000000  0.4085050000000  0.5468870000000 1.0
C      1  0.4989020000000  0.4491720000000  0.4953340000000 1.0
END
