TITL C-3623284-6838-1851 6.85126053653537e-06 125000 -1060.16009856269 0 0 173 (C1) n - 1
REM
REM in /home/nfs/bkarasulu/CARBON/AIRSS/Generating-Clusters/LCBOP/Higher-Symm/SD-CG/FIRE-CG
REM
REM
REM
REM
REM
REM ./C.cell (b20cbc046b6831c77cfcea5457e17084)
REM AIRSS Version 0.9.1 bugfix July 2018 build 013d7b7c2542+ Fri, 06 Jul 2018 19:26:36 +0100
REM compiler GCC version 9.2.1 20190827 (Red Hat 9.2.1-1)
REM options -cpp -mtune=generic -march=x86-64 -g -O0 -fpre-include=/usr/include/finclude/math-vector-fortran.h
REM seed -1821048496 175395480 784328561 7544699 -639693571 -695123910 -1973586120 -793665267 1374558566 997061393 -2006591889 -510206321 -576087144 -2091939258 -1444259724 1155875658 1679698881 -862233160 -727133027 134320590 -2035253246 808196177 825183743 -1351938957 1159775843 642069859 -1644999305 1334861512 -109782707 212827925 -479825517 2020213200 1319746403
REM
CELL 1.54180   50.00000   50.00000   50.00000   90.00000   90.00000   90.00000
LATT -1
SFAC C  
C      1  0.5005350000000  0.5459900000000  0.6093760000000 1.0
C      1  0.4614570000000  0.4721930000000  0.5652550000000 1.0
C      1  0.5022170000000  0.4416600000000  0.5338650000000 1.0
C      1  0.5574600000000  0.4739070000000  0.6035270000000 1.0
C      1  0.5541360000000  0.5595370000000  0.4901790000000 1.0
C      1  0.4529300000000  0.4873440000000  0.6100520000000 1.0
C      1  0.5210660000000  0.3845580000000  0.5210150000000 1.0
C      1  0.5643190000000  0.6308710000000  0.5026010000000 1.0
C      1  0.4431150000000  0.5683430000000  0.5237510000000 1.0
C      1  0.5756270000000  0.4642250000000  0.4378460000000 1.0
C      1  0.4007850000000  0.5399390000000  0.5225470000000 1.0
C      1  0.4840700000000  0.3881340000000  0.4551360000000 1.0
C      1  0.5713440000000  0.5205620000000  0.5871240000000 1.0
C      1  0.4387830000000  0.5098050000000  0.5071100000000 1.0
C      1  0.4469560000000  0.4790630000000  0.4411710000000 1.0
C      1  0.6097860000000  0.4790260000000  0.4781510000000 1.0
C      1  0.4133560000000  0.5346730000000  0.4493370000000 1.0
C      1  0.4371750000000  0.4903860000000  0.4650450000000 1.0
C      1  0.4181530000000  0.5109560000000  0.4604510000000 1.0
C      1  0.5698510000000  0.4976830000000  0.6009790000000 1.0
C      1  0.5290420000000  0.5225940000000  0.5147090000000 1.0
C      1  0.6055760000000  0.4658930000000  0.5031220000000 1.0
C      1  0.5978390000000  0.5647950000000  0.5261890000000 1.0
C      1  0.4484340000000  0.4035150000000  0.5509320000000 1.0
C      1  0.4875130000000  0.4339270000000  0.4646390000000 1.0
C      1  0.5451520000000  0.4693700000000  0.3933930000000 1.0
C      1  0.4785840000000  0.5326250000000  0.4324890000000 1.0
C      1  0.5099980000000  0.4224130000000  0.5977200000000 1.0
C      1  0.5530840000000  0.4216810000000  0.4452940000000 1.0
C      1  0.4739770000000  0.4719870000000  0.4401120000000 1.0
C      1  0.5753720000000  0.5664320000000  0.4732290000000 1.0
C      1  0.3832050000000  0.4657480000000  0.5276620000000 1.0
C      1  0.5942110000000  0.5217650000000  0.5442340000000 1.0
C      1  0.4015120000000  0.4887750000000  0.5746040000000 1.0
C      1  0.5454280000000  0.5032310000000  0.5252300000000 1.0
C      1  0.4592460000000  0.4506050000000  0.5475850000000 1.0
C      1  0.5658570000000  0.6254420000000  0.4759200000000 1.0
C      1  0.5510990000000  0.5762340000000  0.5125430000000 1.0
C      1  0.5353100000000  0.4906430000000  0.5479770000000 1.0
C      1  0.6020310000000  0.5692600000000  0.4711090000000 1.0
C      1  0.5237650000000  0.5779950000000  0.5238870000000 1.0
C      1  0.5840300000000  0.5269510000000  0.4383250000000 1.0
C      1  0.5223180000000  0.4435400000000  0.5537070000000 1.0
C      1  0.5516490000000  0.6128730000000  0.4543470000000 1.0
C      1  0.5044650000000  0.5917300000000  0.5053100000000 1.0
C      1  0.4451050000000  0.5685900000000  0.4342540000000 1.0
C      1  0.4986800000000  0.5528970000000  0.3843210000000 1.0
C      1  0.4927840000000  0.6042940000000  0.4089170000000 1.0
C      1  0.5020730000000  0.4109950000000  0.4567570000000 1.0
C      1  0.4625760000000  0.4283700000000  0.4772930000000 1.0
C      1  0.6051830000000  0.5180660000000  0.4518320000000 1.0
C      1  0.5290740000000  0.6094090000000  0.5700270000000 1.0
C      1  0.4649640000000  0.6197980000000  0.4516710000000 1.0
C      1  0.5891660000000  0.4814260000000  0.5203570000000 1.0
C      1  0.5716960000000  0.4017470000000  0.5223260000000 1.0
C      1  0.4687910000000  0.6100620000000  0.4252830000000 1.0
C      1  0.4868700000000  0.4819250000000  0.4165020000000 1.0
C      1  0.4648230000000  0.4981950000000  0.5548480000000 1.0
C      1  0.4112320000000  0.5084540000000  0.5565930000000 1.0
C      1  0.5018750000000  0.5215810000000  0.5235510000000 1.0
C      1  0.5538900000000  0.4843390000000  0.4383390000000 1.0
C      1  0.5990620000000  0.4939280000000  0.5435270000000 1.0
C      1  0.3992790000000  0.3989120000000  0.5179280000000 1.0
C      1  0.4785890000000  0.4469430000000  0.6235400000000 1.0
C      1  0.5106100000000  0.5835400000000  0.4508550000000 1.0
C      1  0.5102530000000  0.5674800000000  0.5959530000000 1.0
C      1  0.4489570000000  0.4897350000000  0.4914190000000 1.0
C      1  0.4644550000000  0.4283640000000  0.5049580000000 1.0
C      1  0.5013400000000  0.3505570000000  0.5673270000000 1.0
C      1  0.5933940000000  0.4167620000000  0.5175110000000 1.0
C      1  0.3823590000000  0.4168310000000  0.5315290000000 1.0
C      1  0.4391430000000  0.4310070000000  0.5517500000000 1.0
C      1  0.4656560000000  0.5506620000000  0.5253910000000 1.0
C      1  0.5212820000000  0.5821020000000  0.5741430000000 1.0
C      1  0.3958910000000  0.5903550000000  0.4766630000000 1.0
C      1  0.4625230000000  0.5121140000000  0.3784540000000 1.0
C      1  0.6219320000000  0.5544150000000  0.4820090000000 1.0
C      1  0.5296380000000  0.5665540000000  0.5515510000000 1.0
C      1  0.5578520000000  0.4457720000000  0.4882750000000 1.0
C      1  0.5371140000000  0.5367670000000  0.4916400000000 1.0
C      1  0.6164040000000  0.5301300000000  0.4967800000000 1.0
C      1  0.4193530000000  0.5613260000000  0.4430810000000 1.0
C      1  0.5437950000000  0.4922810000000  0.4109360000000 1.0
C      1  0.4501750000000  0.5892970000000  0.4152170000000 1.0
C      1  0.4533730000000  0.5582570000000  0.3727700000000 1.0
C      1  0.4463110000000  0.5380580000000  0.5963910000000 1.0
C      1  0.4751010000000  0.4494880000000  0.5225930000000 1.0
C      1  0.6133950000000  0.4807140000000  0.5625540000000 1.0
C      1  0.4774080000000  0.4749190000000  0.6209700000000 1.0
C      1  0.5253720000000  0.6050620000000  0.4625040000000 1.0
C      1  0.5229930000000  0.4415760000000  0.5824380000000 1.0
C      1  0.4159140000000  0.5627920000000  0.5160930000000 1.0
C      1  0.4761080000000  0.4093490000000  0.4090520000000 1.0
C      1  0.4385130000000  0.4247870000000  0.4638130000000 1.0
C      1  0.4836660000000  0.4333670000000  0.3989200000000 1.0
C      1  0.5619490000000  0.4250800000000  0.4718180000000 1.0
C      1  0.5233360000000  0.5643950000000  0.4355270000000 1.0
C      1  0.4918070000000  0.4605940000000  0.4581110000000 1.0
C      1  0.4431850000000  0.4719880000000  0.5878740000000 1.0
C      1  0.5739530000000  0.5334270000000  0.5622060000000 1.0
C      1  0.4522380000000  0.6172060000000  0.5454790000000 1.0
C      1  0.4691920000000  0.5568100000000  0.4450040000000 1.0
C      1  0.5133330000000  0.4765520000000  0.4648930000000 1.0
C      1  0.4165210000000  0.4651130000000  0.5791170000000 1.0
C      1  0.4656420000000  0.6112880000000  0.4777580000000 1.0
C      1  0.4977950000000  0.4947200000000  0.6136840000000 1.0
C      1  0.4867190000000  0.3242570000000  0.5298720000000 1.0
C      1  0.4140470000000  0.4432090000000  0.5594360000000 1.0
C      1  0.4444400000000  0.4975390000000  0.3923620000000 1.0
C      1  0.4858950000000  0.5738760000000  0.4621390000000 1.0
C      1  0.5261110000000  0.5442490000000  0.3905330000000 1.0
C      1  0.4961280000000  0.3716390000000  0.5239670000000 1.0
C      1  0.4155620000000  0.4210300000000  0.4520530000000 1.0
C      1  0.4019940000000  0.5814110000000  0.4522100000000 1.0
C      1  0.4894260000000  0.5811910000000  0.3912230000000 1.0
C      1  0.5270140000000  0.4113630000000  0.4439470000000 1.0
C      1  0.5544190000000  0.4737610000000  0.4872700000000 1.0
C      1  0.4897690000000  0.5159180000000  0.5514750000000 1.0
C      1  0.4880270000000  0.5104650000000  0.4198150000000 1.0
C      1  0.5467280000000  0.3920390000000  0.5223630000000 1.0
C      1  0.4688070000000  0.4739040000000  0.5048050000000 1.0
C      1  0.5542440000000  0.4445970000000  0.4004120000000 1.0
C      1  0.3563520000000  0.4100330000000  0.5367060000000 1.0
C      1  0.4739140000000  0.5377290000000  0.3749100000000 1.0
C      1  0.5421210000000  0.6242860000000  0.5512280000000 1.0
C      1  0.5414160000000  0.4632220000000  0.5476730000000 1.0
C      1  0.4024990000000  0.5826850000000  0.5013320000000 1.0
C      1  0.5636160000000  0.4883900000000  0.5096870000000 1.0
C      1  0.5140630000000  0.4884590000000  0.5916230000000 1.0
C      1  0.6055190000000  0.5373140000000  0.5230400000000 1.0
C      1  0.5192560000000  0.5331450000000  0.4700700000000 1.0
C      1  0.5403810000000  0.4829330000000  0.4639750000000 1.0
C      1  0.5343220000000  0.5172960000000  0.3989300000000 1.0
C      1  0.3953990000000  0.5149610000000  0.5339520000000 1.0
C      1  0.5598980000000  0.6031860000000  0.4288070000000 1.0
C      1  0.6125300000000  0.5079970000000  0.4775940000000 1.0
C      1  0.5185220000000  0.6115060000000  0.4893310000000 1.0
C      1  0.5138310000000  0.5006910000000  0.5653590000000 1.0
C      1  0.5548040000000  0.6305760000000  0.5280520000000 1.0
C      1  0.4391740000000  0.5111150000000  0.5535650000000 1.0
C      1  0.4742610000000  0.3785310000000  0.4805540000000 1.0
C      1  0.4590700000000  0.5804360000000  0.3891590000000 1.0
C      1  0.5649360000000  0.4396230000000  0.4263020000000 1.0
C      1  0.4578030000000  0.5507660000000  0.5754750000000 1.0
C      1  0.5713560000000  0.5717410000000  0.5323790000000 1.0
C      1  0.4845200000000  0.4229410000000  0.6097120000000 1.0
C      1  0.5579950000000  0.5322770000000  0.4388850000000 1.0
C      1  0.4947080000000  0.3487050000000  0.5408450000000 1.0
C      1  0.4786850000000  0.3020990000000  0.5187540000000 1.0
C      1  0.4920260000000  0.5326220000000  0.4797300000000 1.0
C      1  0.4362340000000  0.4859960000000  0.4154610000000 1.0
C      1  0.4662330000000  0.4042360000000  0.5993810000000 1.0
C      1  0.4229020000000  0.3868040000000  0.5144350000000 1.0
C      1  0.4829240000000  0.5360430000000  0.5066340000000 1.0
C      1  0.5565510000000  0.5863150000000  0.4077760000000 1.0
C      1  0.4475210000000  0.5943750000000  0.5338260000000 1.0
C      1  0.6069650000000  0.4383700000000  0.5090670000000 1.0
C      1  0.5318650000000  0.5398900000000  0.4455370000000 1.0
C      1  0.4739520000000  0.5439380000000  0.5534350000000 1.0
C      1  0.5317840000000  0.4660180000000  0.5951330000000 1.0
C      1  0.5579650000000  0.5558990000000  0.5532590000000 1.0
C      1  0.5453690000000  0.5657300000000  0.3939730000000 1.0
C      1  0.4722840000000  0.3795400000000  0.5097510000000 1.0
C      1  0.4898850000000  0.4599340000000  0.3985360000000 1.0
C      1  0.4870810000000  0.5215550000000  0.6148760000000 1.0
C      1  0.3823350000000  0.4923110000000  0.5232440000000 1.0
C      1  0.4802940000000  0.5879570000000  0.4873760000000 1.0
C      1  0.5985770000000  0.4672960000000  0.4543080000000 1.0
C      1  0.4737260000000  0.3899430000000  0.4282110000000 1.0
C      1  0.3925200000000  0.4421080000000  0.5402540000000 1.0
C      1  0.4489040000000  0.3885590000000  0.5256360000000 1.0
C      1  0.4569750000000  0.3942890000000  0.5761740000000 1.0
C      1  0.4580840000000  0.5167760000000  0.6105410000000 1.0
END
