TITL C-3623287-7182-237 0.363767685839612 125000 -1200.86460369127 0 0 193 (C1) n - 1
REM
REM in /home/nfs/bkarasulu/CARBON/AIRSS/Generating-Clusters/LCBOP/Higher-Symm/SD-CG/FIRE-CG
REM
REM
REM
REM
REM
REM ./C.cell (b20cbc046b6831c77cfcea5457e17084)
REM AIRSS Version 0.9.1 bugfix July 2018 build 013d7b7c2542+ Fri, 06 Jul 2018 19:26:36 +0100
REM compiler GCC version 9.2.1 20190827 (Red Hat 9.2.1-1)
REM options -cpp -mtune=generic -march=x86-64 -g -O0 -fpre-include=/usr/include/finclude/math-vector-fortran.h
REM seed -1687285920 -2048982681 1041285946 982651673 712591216 929520248 -2064819663 453469662 1863420684 1334983279 -1942825919 2098135377 1844012160 -1621616046 -1009734677 687279738 -1249708836 -8031116 218888158 -1211115238 1425629723 -1675402989 402774794 739222506 814338602 -1583538594 1482581350 -1013940875 -321665302 317515738 273579111 -727697185 1577334188
REM
CELL 1.54180   50.00000   50.00000   50.00000   90.00000   90.00000   90.00000
LATT -1
SFAC C  
C      1  0.5603630000000  0.4941550000000  0.4665000000000 1.0
C      1  0.4597420000000  0.4615090000000  0.4654300000000 1.0
C      1  0.4381340000000  0.5487760000000  0.5259330000000 1.0
C      1  0.4489800000000  0.5960890000000  0.5832980000000 1.0
C      1  0.5943540000000  0.4625090000000  0.4380380000000 1.0
C      1  0.5510760000000  0.5403970000000  0.5531170000000 1.0
C      1  0.5143600000000  0.5265390000000  0.3961750000000 1.0
C      1  0.4475750000000  0.3929120000000  0.5594660000000 1.0
C      1  0.4750890000000  0.4213330000000  0.5033540000000 1.0
C      1  0.4848910000000  0.5469300000000  0.6199620000000 1.0
C      1  0.4631180000000  0.4819800000000  0.5348060000000 1.0
C      1  0.5300920000000  0.5248380000000  0.5742770000000 1.0
C      1  0.4850260000000  0.4513080000000  0.6104600000000 1.0
C      1  0.4809600000000  0.3973780000000  0.4862760000000 1.0
C      1  0.4247270000000  0.5248070000000  0.5176200000000 1.0
C      1  0.4638160000000  0.4999060000000  0.5125740000000 1.0
C      1  0.5778260000000  0.5736230000000  0.5039120000000 1.0
C      1  0.3666710000000  0.5059540000000  0.5523050000000 1.0
C      1  0.4534330000000  0.6143150000000  0.4700940000000 1.0
C      1  0.5722550000000  0.5191490000000  0.5968190000000 1.0
C      1  0.5598120000000  0.3977030000000  0.4816350000000 1.0
C      1  0.5573380000000  0.5669160000000  0.5675650000000 1.0
C      1  0.5501230000000  0.4841340000000  0.5300740000000 1.0
C      1  0.5312770000000  0.4417420000000  0.4013120000000 1.0
C      1  0.6115340000000  0.5483150000000  0.4813490000000 1.0
C      1  0.4363270000000  0.4170720000000  0.5559300000000 1.0
C      1  0.5067430000000  0.5547480000000  0.5434660000000 1.0
C      1  0.4838580000000  0.4308980000000  0.5935670000000 1.0
C      1  0.4827040000000  0.3977420000000  0.4336940000000 1.0
C      1  0.5744890000000  0.5055540000000  0.4450510000000 1.0
C      1  0.5889440000000  0.4328610000000  0.4336020000000 1.0
C      1  0.5707260000000  0.5309080000000  0.4313020000000 1.0
C      1  0.4130530000000  0.5831560000000  0.4988120000000 1.0
C      1  0.4440950000000  0.5453800000000  0.3873570000000 1.0
C      1  0.6170760000000  0.5635870000000  0.5692060000000 1.0
C      1  0.4922300000000  0.5385630000000  0.3813330000000 1.0
C      1  0.5713460000000  0.4839520000000  0.4911970000000 1.0
C      1  0.4601740000000  0.6070420000000  0.5615040000000 1.0
C      1  0.4703250000000  0.5560160000000  0.3915450000000 1.0
C      1  0.3397570000000  0.5022160000000  0.5459350000000 1.0
C      1  0.4854350000000  0.5278000000000  0.3556620000000 1.0
C      1  0.5500740000000  0.5636580000000  0.5948920000000 1.0
C      1  0.5251900000000  0.4260280000000  0.5231450000000 1.0
C      1  0.4417290000000  0.4859970000000  0.5533740000000 1.0
C      1  0.5203830000000  0.3790120000000  0.4596280000000 1.0
C      1  0.5715120000000  0.5838430000000  0.4781370000000 1.0
C      1  0.4896170000000  0.5428130000000  0.4995560000000 1.0
C      1  0.5441210000000  0.4014700000000  0.4217520000000 1.0
C      1  0.3997120000000  0.4364740000000  0.4974990000000 1.0
C      1  0.5645140000000  0.5875170000000  0.5250430000000 1.0
C      1  0.5691150000000  0.4957660000000  0.6144310000000 1.0
C      1  0.5317550000000  0.5413120000000  0.4837340000000 1.0
C      1  0.4462340000000  0.4296130000000  0.5101610000000 1.0
C      1  0.5656900000000  0.5236090000000  0.4034960000000 1.0
C      1  0.3867170000000  0.5000040000000  0.5331880000000 1.0
C      1  0.4357760000000  0.4385110000000  0.5370750000000 1.0
C      1  0.3885350000000  0.5502590000000  0.4749500000000 1.0
C      1  0.5221120000000  0.6168390000000  0.5336640000000 1.0
C      1  0.4926820000000  0.4247510000000  0.5680340000000 1.0
C      1  0.5739020000000  0.5837340000000  0.5517910000000 1.0
C      1  0.3884700000000  0.4550040000000  0.5131800000000 1.0
C      1  0.6153970000000  0.4865900000000  0.4821140000000 1.0
C      1  0.4239530000000  0.4929310000000  0.4777860000000 1.0
C      1  0.4308650000000  0.5322620000000  0.4096690000000 1.0
C      1  0.5011920000000  0.5360230000000  0.5666550000000 1.0
C      1  0.4598820000000  0.5248510000000  0.3467000000000 1.0
C      1  0.5380700000000  0.4404610000000  0.4713660000000 1.0
C      1  0.5337890000000  0.4873680000000  0.4602310000000 1.0
C      1  0.4428290000000  0.5996450000000  0.4467750000000 1.0
C      1  0.5247470000000  0.4646380000000  0.4743780000000 1.0
C      1  0.4821360000000  0.6129540000000  0.4731360000000 1.0
C      1  0.5899930000000  0.5238060000000  0.5739050000000 1.0
C      1  0.4243130000000  0.4238260000000  0.4918840000000 1.0
C      1  0.5583770000000  0.4028810000000  0.5463200000000 1.0
C      1  0.5500900000000  0.4812990000000  0.5580630000000 1.0
C      1  0.5447690000000  0.5348570000000  0.6007030000000 1.0
C      1  0.5143600000000  0.5060900000000  0.4465080000000 1.0
C      1  0.5903810000000  0.5235520000000  0.5184700000000 1.0
C      1  0.5325260000000  0.5470580000000  0.5312680000000 1.0
C      1  0.4678730000000  0.3655210000000  0.5249110000000 1.0
C      1  0.5410300000000  0.4937810000000  0.6202200000000 1.0
C      1  0.5167780000000  0.4580180000000  0.4191340000000 1.0
C      1  0.5918460000000  0.4828200000000  0.6239380000000 1.0
C      1  0.3853560000000  0.5243260000000  0.5997940000000 1.0
C      1  0.4941350000000  0.4130560000000  0.4111830000000 1.0
C      1  0.5600060000000  0.4656910000000  0.5112090000000 1.0
C      1  0.4748230000000  0.5485230000000  0.4757230000000 1.0
C      1  0.5129410000000  0.5609520000000  0.4949060000000 1.0
C      1  0.4777810000000  0.5980420000000  0.5415500000000 1.0
C      1  0.5404470000000  0.5300150000000  0.5081350000000 1.0
C      1  0.5795730000000  0.4979330000000  0.3997660000000 1.0
C      1  0.4126360000000  0.5112280000000  0.3995320000000 1.0
C      1  0.4911320000000  0.6065300000000  0.4458120000000 1.0
C      1  0.4929550000000  0.5894550000000  0.6523910000000 1.0
C      1  0.4889460000000  0.4423620000000  0.5460230000000 1.0
C      1  0.4018080000000  0.6021860000000  0.5146020000000 1.0
C      1  0.5942980000000  0.5494020000000  0.5041520000000 1.0
C      1  0.4650330000000  0.5043540000000  0.4339210000000 1.0
C      1  0.4778850000000  0.4367530000000  0.4006700000000 1.0
C      1  0.5236360000000  0.4149800000000  0.4068280000000 1.0
C      1  0.4758410000000  0.4665450000000  0.4034940000000 1.0
C      1  0.6184260000000  0.4860440000000  0.6225290000000 1.0
C      1  0.4940540000000  0.6146820000000  0.5252890000000 1.0
C      1  0.5300560000000  0.4061590000000  0.5452340000000 1.0
C      1  0.5077560000000  0.4011960000000  0.5619440000000 1.0
C      1  0.3977800000000  0.5323790000000  0.6212510000000 1.0
C      1  0.6345280000000  0.5230490000000  0.5930140000000 1.0
C      1  0.6012620000000  0.5828590000000  0.5588930000000 1.0
C      1  0.4683850000000  0.3756800000000  0.5511550000000 1.0
C      1  0.4852090000000  0.4698200000000  0.5471400000000 1.0
C      1  0.5184920000000  0.6023590000000  0.4395510000000 1.0
C      1  0.4963680000000  0.6070450000000  0.4967090000000 1.0
C      1  0.3982270000000  0.4734210000000  0.5321840000000 1.0
C      1  0.4684780000000  0.5338280000000  0.5715100000000 1.0
C      1  0.4301400000000  0.4752000000000  0.4301160000000 1.0
C      1  0.5231200000000  0.4812440000000  0.6008180000000 1.0
C      1  0.6129940000000  0.4214070000000  0.4460260000000 1.0
C      1  0.5473490000000  0.4493780000000  0.3809040000000 1.0
C      1  0.5640110000000  0.4180330000000  0.4368290000000 1.0
C      1  0.4552470000000  0.3912690000000  0.4323120000000 1.0
C      1  0.5290200000000  0.5212890000000  0.6226200000000 1.0
C      1  0.4884840000000  0.5688380000000  0.6370920000000 1.0
C      1  0.4338490000000  0.3950520000000  0.4477860000000 1.0
C      1  0.5888540000000  0.4886560000000  0.3759410000000 1.0
C      1  0.5109810000000  0.5051440000000  0.4153110000000 1.0
C      1  0.6152660000000  0.5368560000000  0.5780770000000 1.0
C      1  0.5523180000000  0.4386350000000  0.5168820000000 1.0
C      1  0.5342730000000  0.5044410000000  0.5182180000000 1.0
C      1  0.3741620000000  0.5155840000000  0.5774270000000 1.0
C      1  0.4761120000000  0.4427900000000  0.4513770000000 1.0
C      1  0.4363870000000  0.5683180000000  0.5048500000000 1.0
C      1  0.5952120000000  0.4986500000000  0.5001180000000 1.0
C      1  0.5804640000000  0.5548440000000  0.4421580000000 1.0
C      1  0.5023030000000  0.4791710000000  0.4067650000000 1.0
C      1  0.5385030000000  0.3790390000000  0.4813980000000 1.0
C      1  0.6262210000000  0.4396800000000  0.4622660000000 1.0
C      1  0.4751160000000  0.5731310000000  0.4137100000000 1.0
C      1  0.4660660000000  0.5494970000000  0.5981390000000 1.0
C      1  0.5711140000000  0.4168070000000  0.5244620000000 1.0
C      1  0.5843270000000  0.4858670000000  0.4257860000000 1.0
C      1  0.4673640000000  0.5959280000000  0.4298280000000 1.0
C      1  0.4095920000000  0.4878590000000  0.4152340000000 1.0
C      1  0.5387180000000  0.5982490000000  0.5187390000000 1.0
C      1  0.5342130000000  0.3781030000000  0.4346430000000 1.0
C      1  0.5182710000000  0.5328500000000  0.4597380000000 1.0
C      1  0.4374030000000  0.5303280000000  0.3628220000000 1.0
C      1  0.4941330000000  0.5478300000000  0.4546380000000 1.0
C      1  0.4848930000000  0.4998460000000  0.4540710000000 1.0
C      1  0.4588040000000  0.5515130000000  0.5459380000000 1.0
C      1  0.4819410000000  0.5695930000000  0.5404530000000 1.0
C      1  0.3149290000000  0.4983610000000  0.5390210000000 1.0
C      1  0.3782010000000  0.4878400000000  0.4586030000000 1.0
C      1  0.3966590000000  0.5208190000000  0.5158940000000 1.0
C      1  0.5009970000000  0.4460130000000  0.4403360000000 1.0
C      1  0.4388380000000  0.5057160000000  0.5005370000000 1.0
C      1  0.4230980000000  0.4651780000000  0.5447130000000 1.0
C      1  0.5009360000000  0.4694410000000  0.4879500000000 1.0
C      1  0.5190280000000  0.5881500000000  0.4984100000000 1.0
C      1  0.5267660000000  0.4929970000000  0.5728720000000 1.0
C      1  0.4178490000000  0.5861650000000  0.4509620000000 1.0
C      1  0.4867600000000  0.4985990000000  0.6252070000000 1.0
C      1  0.5048100000000  0.4889590000000  0.5517640000000 1.0
C      1  0.5003030000000  0.5235930000000  0.6250040000000 1.0
C      1  0.3888390000000  0.5248640000000  0.4881640000000 1.0
C      1  0.4947890000000  0.3926590000000  0.4602400000000 1.0
C      1  0.4515850000000  0.5618280000000  0.4817890000000 1.0
C      1  0.4028280000000  0.5749470000000  0.4730290000000 1.0
C      1  0.5553340000000  0.4198300000000  0.4642120000000 1.0
C      1  0.4967980000000  0.4313400000000  0.5203960000000 1.0
C      1  0.4502090000000  0.5730120000000  0.5968870000000 1.0
C      1  0.6356200000000  0.5026060000000  0.6103180000000 1.0
C      1  0.5424380000000  0.5900080000000  0.4400370000000 1.0
C      1  0.5417950000000  0.5320380000000  0.3912100000000 1.0
C      1  0.4497320000000  0.5084030000000  0.5702270000000 1.0
C      1  0.4342660000000  0.4729680000000  0.4591510000000 1.0
C      1  0.4972400000000  0.4760340000000  0.6119670000000 1.0
C      1  0.6141040000000  0.4662090000000  0.4612900000000 1.0
C      1  0.4156220000000  0.5130420000000  0.3707120000000 1.0
C      1  0.5781100000000  0.5259180000000  0.5466840000000 1.0
C      1  0.5785100000000  0.4010390000000  0.5023250000000 1.0
C      1  0.4473550000000  0.5261940000000  0.4316490000000 1.0
C      1  0.4733820000000  0.3734510000000  0.4999370000000 1.0
C      1  0.5646290000000  0.5768820000000  0.4515990000000 1.0
C      1  0.4792800000000  0.4805810000000  0.4741670000000 1.0
C      1  0.4253730000000  0.4061490000000  0.4703790000000 1.0
C      1  0.4563100000000  0.4806250000000  0.4185610000000 1.0
C      1  0.4934240000000  0.5598730000000  0.4303090000000 1.0
C      1  0.3967110000000  0.5018930000000  0.4729630000000 1.0
C      1  0.5036010000000  0.3554330000000  0.5785500000000 1.0
C      1  0.5080100000000  0.5045810000000  0.5277570000000 1.0
C      1  0.4869870000000  0.5169150000000  0.5126300000000 1.0
C      1  0.6058080000000  0.5523280000000  0.4552160000000 1.0
C      1  0.4937720000000  0.3765810000000  0.5644110000000 1.0
END
