TITL C-3623286-7563-772 -8.79394405627747e-07 125000 -764.393246671975 0 0 128 (C1) n - 1
REM
REM in /home/nfs/bkarasulu/CARBON/AIRSS/Generating-Clusters/LCBOP/Higher-Symm/SD-CG/FIRE-CG
REM
REM
REM
REM
REM
REM ./C.cell (b20cbc046b6831c77cfcea5457e17084)
REM AIRSS Version 0.9.1 bugfix July 2018 build 013d7b7c2542+ Fri, 06 Jul 2018 19:26:36 +0100
REM compiler GCC version 9.2.1 20190827 (Red Hat 9.2.1-1)
REM options -cpp -mtune=generic -march=x86-64 -g -O0 -fpre-include=/usr/include/finclude/math-vector-fortran.h
REM seed 1244114346 -1955971539 1204764133 -1910979685 -1514134938 1037881066 545371836 -1732250618 1851645344 -1461246842 429755344 307360686 -1614676860 -1405300617 -1166192556 -1030181466 243026619 -1336533271 534609628 -1369348553 -69579973 535133784 2135719452 627604828 -510066648 49611579 203318563 -493732784 -2072450141 1004039243 1830223573 -1120422826 -190476996
REM
CELL 1.54180   50.00000   50.00000   50.00000   90.00000   90.00000   90.00000
LATT -1
SFAC C  
C      1  0.5638030000000  0.4650330000000  0.5505280000000 1.0
C      1  0.5657710000000  0.5375350000000  0.4480760000000 1.0
C      1  0.4373060000000  0.5346890000000  0.5413630000000 1.0
C      1  0.4392600000000  0.4667170000000  0.4516790000000 1.0
C      1  0.5026280000000  0.5322650000000  0.4857860000000 1.0
C      1  0.5027520000000  0.4827230000000  0.5134600000000 1.0
C      1  0.4973580000000  0.4674960000000  0.4886640000000 1.0
C      1  0.4999670000000  0.5186770000000  0.5116700000000 1.0
C      1  0.5241680000000  0.5933760000000  0.5336320000000 1.0
C      1  0.5237500000000  0.4015080000000  0.4692490000000 1.0
C      1  0.4699720000000  0.4037020000000  0.5305820000000 1.0
C      1  0.4699840000000  0.5962140000000  0.4715870000000 1.0
C      1  0.4171040000000  0.4338400000000  0.5470940000000 1.0
C      1  0.4179920000000  0.5665670000000  0.4527030000000 1.0
C      1  0.5810730000000  0.5693800000000  0.5480240000000 1.0
C      1  0.5779380000000  0.4304230000000  0.4541160000000 1.0
C      1  0.4849460000000  0.5044000000000  0.4436280000000 1.0
C      1  0.4838960000000  0.4992550000000  0.5590500000000 1.0
C      1  0.5146060000000  0.4996320000000  0.4458200000000 1.0
C      1  0.5149930000000  0.5039740000000  0.5573860000000 1.0
C      1  0.5511280000000  0.4695440000000  0.5016330000000 1.0
C      1  0.5506100000000  0.5322220000000  0.4981330000000 1.0
C      1  0.4519770000000  0.5129810000000  0.4959470000000 1.0
C      1  0.4519780000000  0.4845080000000  0.5008830000000 1.0
C      1  0.4094220000000  0.4394470000000  0.4998760000000 1.0
C      1  0.4081360000000  0.5593490000000  0.4989350000000 1.0
C      1  0.5888220000000  0.5660230000000  0.5014140000000 1.0
C      1  0.5862970000000  0.4335300000000  0.5007940000000 1.0
C      1  0.5558500000000  0.5184840000000  0.5224750000000 1.0
C      1  0.5560820000000  0.4836640000000  0.4777490000000 1.0
C      1  0.4409310000000  0.4802460000000  0.5265450000000 1.0
C      1  0.4419070000000  0.5179270000000  0.4701310000000 1.0
C      1  0.4950000000000  0.6060900000000  0.4739090000000 1.0
C      1  0.4946250000000  0.3928210000000  0.5285530000000 1.0
C      1  0.4982660000000  0.3926830000000  0.4714520000000 1.0
C      1  0.4979560000000  0.6001230000000  0.5342390000000 1.0
C      1  0.4886370000000  0.4446950000000  0.4376110000000 1.0
C      1  0.4913920000000  0.5516490000000  0.5608090000000 1.0
C      1  0.5123160000000  0.5565880000000  0.4356350000000 1.0
C      1  0.5136230000000  0.4505850000000  0.5614170000000 1.0
C      1  0.4473630000000  0.4093660000000  0.5143240000000 1.0
C      1  0.4476470000000  0.5887930000000  0.4874810000000 1.0
C      1  0.5472510000000  0.5914390000000  0.5169340000000 1.0
C      1  0.5466740000000  0.4055030000000  0.4856170000000 1.0
C      1  0.5234410000000  0.4688410000000  0.4132960000000 1.0
C      1  0.5280080000000  0.5333420000000  0.5894390000000 1.0
C      1  0.4801040000000  0.5322960000000  0.4078360000000 1.0
C      1  0.4816440000000  0.4694510000000  0.5931990000000 1.0
C      1  0.5723040000000  0.5772020000000  0.5221150000000 1.0
C      1  0.5702640000000  0.4217260000000  0.4801190000000 1.0
C      1  0.4245630000000  0.4264020000000  0.5205210000000 1.0
C      1  0.4245650000000  0.5728500000000  0.4796960000000 1.0
C      1  0.5732330000000  0.4761060000000  0.5750030000000 1.0
C      1  0.5725600000000  0.5244140000000  0.4238470000000 1.0
C      1  0.4366350000000  0.5251610000000  0.5682710000000 1.0
C      1  0.4316750000000  0.4758170000000  0.4254910000000 1.0
C      1  0.5228400000000  0.3916860000000  0.5313540000000 1.0
C      1  0.5232300000000  0.6074380000000  0.4712570000000 1.0
C      1  0.4695410000000  0.5983810000000  0.5360130000000 1.0
C      1  0.4699970000000  0.3933090000000  0.4684050000000 1.0
C      1  0.5277020000000  0.5232140000000  0.4041460000000 1.0
C      1  0.5294800000000  0.4787700000000  0.5969660000000 1.0
C      1  0.4761530000000  0.4767650000000  0.4039380000000 1.0
C      1  0.4774700000000  0.5266800000000  0.5972320000000 1.0
C      1  0.4620680000000  0.5227710000000  0.4510820000000 1.0
C      1  0.4568340000000  0.4822820000000  0.5524820000000 1.0
C      1  0.5361770000000  0.4822430000000  0.4576680000000 1.0
C      1  0.5375940000000  0.5204510000000  0.5442030000000 1.0
C      1  0.4966400000000  0.4591350000000  0.4139580000000 1.0
C      1  0.5012310000000  0.5424070000000  0.5876620000000 1.0
C      1  0.5069900000000  0.5418400000000  0.4113140000000 1.0
C      1  0.5085540000000  0.4615720000000  0.5878500000000 1.0
C      1  0.5262150000000  0.4255790000000  0.5642350000000 1.0
C      1  0.5265080000000  0.5804380000000  0.4316630000000 1.0
C      1  0.4655110000000  0.5628370000000  0.5693410000000 1.0
C      1  0.4715400000000  0.4232450000000  0.4317810000000 1.0
C      1  0.5958970000000  0.4813320000000  0.5200180000000 1.0
C      1  0.5976870000000  0.5188500000000  0.4805650000000 1.0
C      1  0.3984950000000  0.5126230000000  0.5210570000000 1.0
C      1  0.4002810000000  0.4851280000000  0.4750640000000 1.0
C      1  0.5063500000000  0.5466650000000  0.4625720000000 1.0
C      1  0.5170070000000  0.4657630000000  0.5353870000000 1.0
C      1  0.4938570000000  0.4538990000000  0.4649280000000 1.0
C      1  0.4953090000000  0.5379360000000  0.5347550000000 1.0
C      1  0.5544270000000  0.5394710000000  0.4724190000000 1.0
C      1  0.5454630000000  0.4650070000000  0.5287800000000 1.0
C      1  0.4484390000000  0.4685640000000  0.4772620000000 1.0
C      1  0.4484450000000  0.5308880000000  0.5172380000000 1.0
C      1  0.5323610000000  0.6026940000000  0.4451320000000 1.0
C      1  0.5315670000000  0.4008600000000  0.5562880000000 1.0
C      1  0.4620510000000  0.4008150000000  0.4425680000000 1.0
C      1  0.4593720000000  0.5882140000000  0.5602710000000 1.0
C      1  0.5976360000000  0.4555120000000  0.5118260000000 1.0
C      1  0.6002260000000  0.5442130000000  0.4900020000000 1.0
C      1  0.3971790000000  0.5376560000000  0.5107760000000 1.0
C      1  0.3990880000000  0.4603710000000  0.4861530000000 1.0
C      1  0.4541140000000  0.5406060000000  0.5848370000000 1.0
C      1  0.4491890000000  0.4684430000000  0.4043300000000 1.0
C      1  0.5564890000000  0.4707460000000  0.5973730000000 1.0
C      1  0.5549360000000  0.5300850000000  0.4022870000000 1.0
C      1  0.5808700000000  0.4980370000000  0.4752980000000 1.0
C      1  0.5801230000000  0.5031020000000  0.5245080000000 1.0
C      1  0.4153280000000  0.5067600000000  0.4679610000000 1.0
C      1  0.4136230000000  0.4909350000000  0.5274180000000 1.0
C      1  0.4087240000000  0.5245760000000  0.4224220000000 1.0
C      1  0.4144910000000  0.4770260000000  0.5763350000000 1.0
C      1  0.5916760000000  0.4740380000000  0.4275910000000 1.0
C      1  0.5954080000000  0.5250850000000  0.5725800000000 1.0
C      1  0.4517440000000  0.5968710000000  0.5142670000000 1.0
C      1  0.4510130000000  0.3979300000000  0.4886860000000 1.0
C      1  0.5421410000000  0.3936200000000  0.5109150000000 1.0
C      1  0.5420490000000  0.6034920000000  0.4918280000000 1.0
C      1  0.5874030000000  0.5002450000000  0.4232290000000 1.0
C      1  0.5899090000000  0.4989900000000  0.5759610000000 1.0
C      1  0.4150080000000  0.4984010000000  0.4206700000000 1.0
C      1  0.4340710000000  0.4969630000000  0.5703160000000 1.0
C      1  0.4100670000000  0.5489480000000  0.4338950000000 1.0
C      1  0.4105870000000  0.4521440000000  0.5659220000000 1.0
C      1  0.5880700000000  0.4494720000000  0.4379760000000 1.0
C      1  0.5920070000000  0.5501080000000  0.5633490000000 1.0
C      1  0.4615670000000  0.5413220000000  0.4284700000000 1.0
C      1  0.4629850000000  0.4591730000000  0.5725290000000 1.0
C      1  0.5389940000000  0.4616700000000  0.4367370000000 1.0
C      1  0.5432920000000  0.5398080000000  0.5657540000000 1.0
C      1  0.4797380000000  0.5032670000000  0.4131420000000 1.0
C      1  0.4799660000000  0.4989220000000  0.5899860000000 1.0
C      1  0.5233460000000  0.4980420000000  0.4161780000000 1.0
C      1  0.5255130000000  0.5043960000000  0.5862100000000 1.0
END
