TITL C-3623282-6910-371 6.5791377992725e-06 125000 -92.3544598942406 0 0 16 (C2) n - 1
REM
REM in /home/nfs/bkarasulu/CARBON/AIRSS/Generating-Clusters/LCBOP/Higher-Symm/SD-CG/FIRE-CG
REM
REM
REM
REM
REM
REM ./C.cell (b20cbc046b6831c77cfcea5457e17084)
REM AIRSS Version 0.9.1 bugfix July 2018 build 013d7b7c2542+ Fri, 06 Jul 2018 19:26:36 +0100
REM compiler GCC version 9.2.1 20190827 (Red Hat 9.2.1-1)
REM options -cpp -mtune=generic -march=x86-64 -g -O0 -fpre-include=/usr/include/finclude/math-vector-fortran.h
REM seed -798906264 1381851313 1010447197 -1884076134 -1363004354 1948733121 -2037043636 118223532 -333094707 248767593 102152136 395359232 -1120645803 -1279381841 -1721499269 -1442756158 -316795719 1192901762 -902176098 -1859922284 -1363971548 -1819837996 2067338376 -157813218 -1831882965 370258845 1541912783 1093210568 2015971670 573428590 -912129258 -1904213638 594646872
REM
CELL 1.54180   50.00000   50.00000   50.00000   90.00000   90.00000   90.00000
LATT -1
SFAC C  
C      1  0.4360650000000  0.5147420000000  0.5108450000000 1.0
C      1  0.4360280000000  0.4881100000000  0.5137420000000 1.0
C      1  0.5248620000000  0.5207680000000  0.5173120000000 1.0
C      1  0.5157590000000  0.4783260000000  0.4748800000000 1.0
C      1  0.4553550000000  0.5322080000000  0.5047920000000 1.0
C      1  0.4554180000000  0.4697820000000  0.5123600000000 1.0
C      1  0.4956370000000  0.4445680000000  0.5197320000000 1.0
C      1  0.4910220000000  0.5557300000000  0.4828320000000 1.0
C      1  0.5416030000000  0.4786170000000  0.4677860000000 1.0
C      1  0.5514570000000  0.5193080000000  0.5143260000000 1.0
C      1  0.5006160000000  0.5135870000000  0.5047470000000 1.0
C      1  0.4982280000000  0.4864390000000  0.4954750000000 1.0
C      1  0.5684110000000  0.5070890000000  0.4974190000000 1.0
C      1  0.5641240000000  0.4899560000000  0.4771040000000 1.0
C      1  0.4823290000000  0.5342560000000  0.4974260000000 1.0
C      1  0.4830860000000  0.4665150000000  0.5092220000000 1.0
END
