TITL C-3623285-6872-1068 -9.62976519777312e-07 125000 -739.670519487115 0 0 122 (C3i) n - 1
REM
REM in /home/nfs/bkarasulu/CARBON/AIRSS/Generating-Clusters/LCBOP/Higher-Symm/SD-CG/FIRE-CG
REM
REM
REM
REM
REM
REM ./C.cell (b20cbc046b6831c77cfcea5457e17084)
REM AIRSS Version 0.9.1 bugfix July 2018 build 013d7b7c2542+ Fri, 06 Jul 2018 19:26:36 +0100
REM compiler GCC version 9.2.1 20190827 (Red Hat 9.2.1-1)
REM options -cpp -mtune=generic -march=x86-64 -g -O0 -fpre-include=/usr/include/finclude/math-vector-fortran.h
REM seed 2073365777 1846670689 373253060 -2072561349 1591937361 -1112942039 -1430204129 -99869645 1952049446 -2094156713 46332033 1092251932 -1168693127 1199601544 -1711513717 498609342 832212502 -1286754501 -1112455258 -227601719 -79495990 -536885117 -1461384092 678754385 -956780043 -239686044 108617172 -1373713995 -1877413329 -527627968 1158053658 -125887847 -1213104663
REM
CELL 1.54180   50.00000   50.00000   50.00000   90.00000   90.00000   90.00000
LATT -1
SFAC C  
C      1  0.5182550000000  0.4792950000000  0.3935170000000 1.0
C      1  0.4167240000000  0.5207240000000  0.4312460000000 1.0
C      1  0.3986260000000  0.4792900000000  0.5380350000000 1.0
C      1  0.4820670000000  0.5207050000000  0.6071060000000 1.0
C      1  0.5835970000000  0.4792760000000  0.5693770000000 1.0
C      1  0.6016950000000  0.5207100000000  0.4625880000000 1.0
C      1  0.5799350000000  0.5053980000000  0.5746120000000 1.0
C      1  0.6043930000000  0.4945870000000  0.4683740000000 1.0
C      1  0.5246190000000  0.5054170000000  0.3940760000000 1.0
C      1  0.4203860000000  0.4946020000000  0.4260120000000 1.0
C      1  0.3959280000000  0.5054130000000  0.5322490000000 1.0
C      1  0.4757020000000  0.4945830000000  0.6065480000000 1.0
C      1  0.5987250000000  0.4765930000000  0.4895080000000 1.0
C      1  0.5400900000000  0.5234070000000  0.4095520000000 1.0
C      1  0.4415210000000  0.4766080000000  0.4203500000000 1.0
C      1  0.4015960000000  0.5234070000000  0.5111160000000 1.0
C      1  0.4602310000000  0.4765930000000  0.5910720000000 1.0
C      1  0.5588000000000  0.5233920000000  0.5802730000000 1.0
C      1  0.5623790000000  0.5214750000000  0.5017540000000 1.0
C      1  0.5325150000000  0.4785240000000  0.4471480000000 1.0
C      1  0.4703000000000  0.5214850000000  0.4457120000000 1.0
C      1  0.4379420000000  0.4785250000000  0.4988700000000 1.0
C      1  0.4678060000000  0.5214760000000  0.5534750000000 1.0
C      1  0.5300210000000  0.4785150000000  0.5549120000000 1.0
C      1  0.4412610000000  0.5301560000000  0.5563100000000 1.0
C      1  0.5192020000000  0.4698350000000  0.5793170000000 1.0
C      1  0.5781070000000  0.5301500000000  0.5233270000000 1.0
C      1  0.5590600000000  0.4698440000000  0.4443140000000 1.0
C      1  0.4811200000000  0.5301650000000  0.4213070000000 1.0
C      1  0.4222140000000  0.4698500000000  0.4772970000000 1.0
C      1  0.5997570000000  0.5122580000000  0.5274140000000 1.0
C      1  0.5734280000000  0.4877350000000  0.4276090000000 1.0
C      1  0.4738340000000  0.5122770000000  0.4005090000000 1.0
C      1  0.4005640000000  0.4877420000000  0.4732090000000 1.0
C      1  0.4268930000000  0.5122650000000  0.5730150000000 1.0
C      1  0.5264880000000  0.4877230000000  0.6001140000000 1.0
C      1  0.5754020000000  0.4559590000000  0.5590550000000 1.0
C      1  0.5886620000000  0.5440290000000  0.4645260000000 1.0
C      1  0.5134120000000  0.4559760000000  0.4057710000000 1.0
C      1  0.4249190000000  0.5440410000000  0.4415680000000 1.0
C      1  0.4116590000000  0.4559710000000  0.5360980000000 1.0
C      1  0.4869090000000  0.5440240000000  0.5948530000000 1.0
C      1  0.4788280000000  0.3941690000000  0.4606430000000 1.0
C      1  0.4551570000000  0.6058390000000  0.4989600000000 1.0
C      1  0.4764710000000  0.3941620000000  0.5386020000000 1.0
C      1  0.5214930000000  0.6058310000000  0.5399810000000 1.0
C      1  0.5451640000000  0.3941610000000  0.5016640000000 1.0
C      1  0.5238510000000  0.6058380000000  0.4620220000000 1.0
C      1  0.4194550000000  0.5467430000000  0.5135820000000 1.0
C      1  0.4712930000000  0.4532560000000  0.5768370000000 1.0
C      1  0.5520070000000  0.5467310000000  0.5635780000000 1.0
C      1  0.5808660000000  0.4532570000000  0.4870410000000 1.0
C      1  0.5290290000000  0.5467440000000  0.4237870000000 1.0
C      1  0.4483140000000  0.4532690000000  0.4370450000000 1.0
C      1  0.4991850000000  0.5523130000000  0.4250080000000 1.0
C      1  0.4344490000000  0.4477010000000  0.4635010000000 1.0
C      1  0.4354340000000  0.5523070000000  0.5388180000000 1.0
C      1  0.5011360000000  0.4476870000000  0.5756160000000 1.0
C      1  0.5658720000000  0.5522990000000  0.5371230000000 1.0
C      1  0.5648870000000  0.4476930000000  0.4618050000000 1.0
C      1  0.5390220000000  0.4230550000000  0.5448440000000 1.0
C      1  0.5581700000000  0.5769360000000  0.4889290000000 1.0
C      1  0.5192950000000  0.4230650000000  0.4443760000000 1.0
C      1  0.4612990000000  0.5769450000000  0.4557790000000 1.0
C      1  0.4421510000000  0.4230640000000  0.5116950000000 1.0
C      1  0.4810270000000  0.5769350000000  0.5562470000000 1.0
C      1  0.5030700000000  0.4402360000000  0.4267860000000 1.0
C      1  0.4379500000000  0.5597770000000  0.4610340000000 1.0
C      1  0.4350300000000  0.4402310000000  0.5345440000000 1.0
C      1  0.4972510000000  0.5597640000000  0.5738370000000 1.0
C      1  0.5623710000000  0.4402230000000  0.5395890000000 1.0
C      1  0.5652910000000  0.5597690000000  0.4660790000000 1.0
C      1  0.5134290000000  0.4250950000000  0.5604550000000 1.0
C      1  0.5588930000000  0.5748940000000  0.5188990000000 1.0
C      1  0.5456110000000  0.4251020000000  0.4587360000000 1.0
C      1  0.4868930000000  0.5749050000000  0.4401690000000 1.0
C      1  0.4414290000000  0.4251060000000  0.4817250000000 1.0
C      1  0.4547100000000  0.5748980000000  0.5418870000000 1.0
C      1  0.5498250000000  0.4035880000000  0.4770690000000 1.0
C      1  0.5048800000000  0.5964150000000  0.4456870000000 1.0
C      1  0.4551970000000  0.4035950000000  0.4689050000000 1.0
C      1  0.4504960000000  0.5964120000000  0.5235550000000 1.0
C      1  0.4954410000000  0.4035850000000  0.5549370000000 1.0
C      1  0.5451240000000  0.5964050000000  0.5317190000000 1.0
C      1  0.5651920000000  0.5115760000000  0.4171420000000 1.0
C      1  0.4606470000000  0.4884390000000  0.4024080000000 1.0
C      1  0.3956180000000  0.5115800000000  0.4855800000000 1.0
C      1  0.4351290000000  0.4884240000000  0.5834810000000 1.0
C      1  0.5396740000000  0.5115610000000  0.5982160000000 1.0
C      1  0.6047030000000  0.4884200000000  0.5150440000000 1.0
C      1  0.5140030000000  0.5470220000000  0.5233060000000 1.0
C      1  0.5269880000000  0.4529730000000  0.4998170000000 1.0
C      1  0.5131540000000  0.5470260000000  0.4768350000000 1.0
C      1  0.4863180000000  0.4529780000000  0.4773170000000 1.0
C      1  0.4733330000000  0.5470270000000  0.5008060000000 1.0
C      1  0.4871670000000  0.4529740000000  0.5237890000000 1.0
C      1  0.5036100000000  0.4004660000000  0.4526760000000 1.0
C      1  0.4606480000000  0.5995430000000  0.4735140000000 1.0
C      1  0.4571800000000  0.4004630000000  0.5211240000000 1.0
C      1  0.4967110000000  0.5995340000000  0.5479480000000 1.0
C      1  0.5396730000000  0.4004570000000  0.5271100000000 1.0
C      1  0.5431410000000  0.5995370000000  0.4795000000000 1.0
C      1  0.4821560000000  0.4757710000000  0.5361010000000 1.0
C      1  0.5221570000000  0.5242230000000  0.5338010000000 1.0
C      1  0.5401570000000  0.4757700000000  0.4980050000000 1.0
C      1  0.5181650000000  0.5242290000000  0.4645220000000 1.0
C      1  0.4781640000000  0.4757770000000  0.4668220000000 1.0
C      1  0.4601640000000  0.5242300000000  0.5026180000000 1.0
C      1  0.5475250000000  0.5585850000000  0.4429610000000 1.0
C      1  0.4741650000000  0.4414250000000  0.4306130000000 1.0
C      1  0.4268120000000  0.5585880000000  0.4879800000000 1.0
C      1  0.4527970000000  0.4414150000000  0.5576630000000 1.0
C      1  0.5261560000000  0.5585750000000  0.5700100000000 1.0
C      1  0.5735090000000  0.4414120000000  0.5126440000000 1.0
C      1  0.4694820000000  0.4997340000000  0.4604690000000 1.0
C      1  0.4503160000000  0.5002740000000  0.5069580000000 1.0
C      1  0.4809950000000  0.4997250000000  0.5468020000000 1.0
C      1  0.5308390000000  0.5002660000000  0.5401550000000 1.0
C      1  0.5500050000000  0.4997260000000  0.4936650000000 1.0
C      1  0.5193270000000  0.5002750000000  0.4538220000000 1.0
C      1  0.5001640000000  0.5533590000000  0.5003160000000 1.0
C      1  0.5001570000000  0.4466410000000  0.5003070000000 1.0
END
