TITL C-3623289-7120-822 -2.68713177743158e-07 125000 -102.353574722245 0 0 19 (C3v) n - 1
REM
REM in /home/nfs/bkarasulu/CARBON/AIRSS/Generating-Clusters/LCBOP/Higher-Symm/SD-CG/FIRE-CG
REM
REM
REM
REM
REM
REM ./C.cell (b20cbc046b6831c77cfcea5457e17084)
REM AIRSS Version 0.9.1 bugfix July 2018 build 013d7b7c2542+ Fri, 06 Jul 2018 19:26:36 +0100
REM compiler GCC version 9.2.1 20190827 (Red Hat 9.2.1-1)
REM options -cpp -mtune=generic -march=x86-64 -g -O0 -fpre-include=/usr/include/finclude/math-vector-fortran.h
REM seed 590665340 -120115711 1979848827 185528207 1150954454 1327977227 -1292179208 597977314 1768576493 732776187 -1753017990 -1461158411 -1602975312 -516990166 544871966 259511268 700123162 -276462698 1643391039 -1910225506 816594826 -1238060923 1554004819 159827307 1563906754 1953294537 -442180241 -1151975855 1028801479 -485426819 1873695759 -1887646563 235006246
REM
CELL 1.54180   50.00000   50.00000   50.00000   90.00000   90.00000   90.00000
LATT -1
SFAC C  
C      1  0.5405700000000  0.4462220000000  0.4518640000000 1.0
C      1  0.4345640000000  0.4942750000000  0.4520420000000 1.0
C      1  0.5289440000000  0.5620290000000  0.4521000000000 1.0
C      1  0.5107730000000  0.5192490000000  0.4629720000000 1.0
C      1  0.5135080000000  0.4839090000000  0.4631500000000 1.0
C      1  0.4808990000000  0.4978040000000  0.4629530000000 1.0
C      1  0.5130220000000  0.5258420000000  0.5424860000000 1.0
C      1  0.5177910000000  0.4778760000000  0.5424500000000 1.0
C      1  0.4738690000000  0.4977340000000  0.5424620000000 1.0
C      1  0.4546310000000  0.4957720000000  0.4705610000000 1.0
C      1  0.5210930000000  0.5434840000000  0.4706020000000 1.0
C      1  0.5289160000000  0.4624410000000  0.4705430000000 1.0
C      1  0.5325570000000  0.4573450000000  0.4978950000000 1.0
C      1  0.4485900000000  0.4952490000000  0.4979570000000 1.0
C      1  0.5234980000000  0.5490240000000  0.4980030000000 1.0
C      1  0.4550040000000  0.4958860000000  0.5237470000000 1.0
C      1  0.5208230000000  0.5431360000000  0.5237880000000 1.0
C      1  0.5288390000000  0.4625020000000  0.5237090000000 1.0
C      1  0.5015610000000  0.5004800000000  0.5459260000000 1.0
END
