TITL C-3623282-6910-350 -5.59564600678434e-07 125000 -716.925031219532 0 0 119 (D3) n - 1
REM
REM in /home/nfs/bkarasulu/CARBON/AIRSS/Generating-Clusters/LCBOP/Higher-Symm/SD-CG/FIRE-CG
REM
REM
REM
REM
REM
REM ./C.cell (b20cbc046b6831c77cfcea5457e17084)
REM AIRSS Version 0.9.1 bugfix July 2018 build 013d7b7c2542+ Fri, 06 Jul 2018 19:26:36 +0100
REM compiler GCC version 9.2.1 20190827 (Red Hat 9.2.1-1)
REM options -cpp -mtune=generic -march=x86-64 -g -O0 -fpre-include=/usr/include/finclude/math-vector-fortran.h
REM seed 320791680 -597305414 -1898512345 -1520968810 1462638459 1057896454 -358548123 -1888796950 -748434997 861368815 1940280657 1397532321 214411779 -1859720319 -210053103 -35832642 -1680512059 -480459817 1726834635 1171730071 -2035813454 -1556707807 570144785 -341530181 -2068335209 -387376196 -993358193 1279779317 1688970166 1137714614 1445183939 1529904267 -548811331
REM
CELL 1.54180   50.00000   50.00000   50.00000   90.00000   90.00000   90.00000
LATT -1
SFAC C  
C      1  0.5211900000000  0.4787080000000  0.5842610000000 1.0
C      1  0.4711890000000  0.4924980000000  0.5842630000000 1.0
C      1  0.5081330000000  0.5289060000000  0.5842590000000 1.0
C      1  0.5211760000000  0.5213640000000  0.4149660000000 1.0
C      1  0.4711780000000  0.5075580000000  0.4149690000000 1.0
C      1  0.5081330000000  0.4711620000000  0.4149690000000 1.0
C      1  0.5436960000000  0.4596690000000  0.5772440000000 1.0
C      1  0.4434480000000  0.4825260000000  0.5772480000000 1.0
C      1  0.5133670000000  0.5579150000000  0.5772400000000 1.0
C      1  0.5436770000000  0.5404090000000  0.4219800000000 1.0
C      1  0.4434350000000  0.5175220000000  0.4219870000000 1.0
C      1  0.5133760000000  0.4421540000000  0.4219870000000 1.0
C      1  0.4743180000000  0.4715620000000  0.4494530000000 1.0
C      1  0.4884330000000  0.5366470000000  0.4494480000000 1.0
C      1  0.5377410000000  0.4918810000000  0.4494480000000 1.0
C      1  0.4743150000000  0.5284960000000  0.5497790000000 1.0
C      1  0.4884490000000  0.4634150000000  0.5497820000000 1.0
C      1  0.5377430000000  0.5081960000000  0.5497770000000 1.0
C      1  0.4261250000000  0.5321720000000  0.4654510000000 1.0
C      1  0.5650190000000  0.5480800000000  0.4654430000000 1.0
C      1  0.5093500000000  0.4198400000000  0.4654530000000 1.0
C      1  0.4261380000000  0.4678720000000  0.5337850000000 1.0
C      1  0.5650360000000  0.4520040000000  0.5337790000000 1.0
C      1  0.5093300000000  0.5802280000000  0.5337750000000 1.0
C      1  0.5261610000000  0.5345490000000  0.5407330000000 1.0
C      1  0.5170620000000  0.4602680000000  0.5407370000000 1.0
C      1  0.4572820000000  0.5052880000000  0.5407380000000 1.0
C      1  0.5261670000000  0.4655240000000  0.4584930000000 1.0
C      1  0.5170470000000  0.5398030000000  0.4584900000000 1.0
C      1  0.4572790000000  0.4947650000000  0.4584950000000 1.0
C      1  0.5425240000000  0.5225170000000  0.4967720000000 1.0
C      1  0.4984590000000  0.4521070000000  0.4967780000000 1.0
C      1  0.4595150000000  0.5254740000000  0.4967760000000 1.0
C      1  0.5425310000000  0.4775610000000  0.5024520000000 1.0
C      1  0.4984450000000  0.5479580000000  0.5024510000000 1.0
C      1  0.4595230000000  0.4745800000000  0.5024570000000 1.0
C      1  0.5342160000000  0.4393580000000  0.4724250000000 1.0
C      1  0.4305950000000  0.5008780000000  0.4724270000000 1.0
C      1  0.5356840000000  0.5598570000000  0.4724180000000 1.0
C      1  0.5342010000000  0.5607170000000  0.5268000000000 1.0
C      1  0.4305980000000  0.4991670000000  0.5268090000000 1.0
C      1  0.5357040000000  0.4402190000000  0.5268070000000 1.0
C      1  0.5702560000000  0.5925280000000  0.4813750000000 1.0
C      1  0.5452250000000  0.3930830000000  0.4813870000000 1.0
C      1  0.3850160000000  0.5144830000000  0.4813880000000 1.0
C      1  0.5702850000000  0.4075580000000  0.5178470000000 1.0
C      1  0.5451950000000  0.6069950000000  0.5178380000000 1.0
C      1  0.3850220000000  0.4855480000000  0.5178520000000 1.0
C      1  0.4018440000000  0.4899410000000  0.4700810000000 1.0
C      1  0.5405870000000  0.5902250000000  0.4700690000000 1.0
C      1  0.5580640000000  0.4199270000000  0.4700770000000 1.0
C      1  0.4018440000000  0.5100960000000  0.5291570000000 1.0
C      1  0.5406160000000  0.4098520000000  0.5291560000000 1.0
C      1  0.5580430000000  0.5801550000000  0.5291460000000 1.0
C      1  0.4012180000000  0.5117500000000  0.5596030000000 1.0
C      1  0.5597900000000  0.5798730000000  0.5595910000000 1.0
C      1  0.5395000000000  0.4084850000000  0.5596020000000 1.0
C      1  0.4012160000000  0.4882860000000  0.4396360000000 1.0
C      1  0.5598070000000  0.4202100000000  0.4396320000000 1.0
C      1  0.5394670000000  0.5915920000000  0.4396230000000 1.0
C      1  0.4698480000000  0.4247090000000  0.5292660000000 1.0
C      1  0.4500940000000  0.5639540000000  0.5292590000000 1.0
C      1  0.5805610000000  0.5114400000000  0.5292550000000 1.0
C      1  0.4698240000000  0.5753480000000  0.4699660000000 1.0
C      1  0.4501100000000  0.4360960000000  0.4699750000000 1.0
C      1  0.5805620000000  0.4886490000000  0.4699650000000 1.0
C      1  0.4690130000000  0.4419000000000  0.4494990000000 1.0
C      1  0.4653970000000  0.5560720000000  0.4494930000000 1.0
C      1  0.5660820000000  0.5021180000000  0.4494910000000 1.0
C      1  0.4690010000000  0.5581570000000  0.5497330000000 1.0
C      1  0.4654180000000  0.4439830000000  0.5497390000000 1.0
C      1  0.5660870000000  0.4979670000000  0.5497310000000 1.0
C      1  0.4772620000000  0.5163730000000  0.4716290000000 1.0
C      1  0.5257690000000  0.5116950000000  0.4716270000000 1.0
C      1  0.4974640000000  0.4720260000000  0.4716300000000 1.0
C      1  0.4772700000000  0.4836860000000  0.5276020000000 1.0
C      1  0.5257750000000  0.4883780000000  0.5276000000000 1.0
C      1  0.4974580000000  0.5280390000000  0.5275990000000 1.0
C      1  0.4946680000000  0.4294250000000  0.4424030000000 1.0
C      1  0.4417660000000  0.5400910000000  0.4424000000000 1.0
C      1  0.5640570000000  0.5305720000000  0.4423940000000 1.0
C      1  0.4946530000000  0.5706390000000  0.5568260000000 1.0
C      1  0.4417840000000  0.4599570000000  0.5568350000000 1.0
C      1  0.5640710000000  0.4695120000000  0.5568280000000 1.0
C      1  0.5267210000000  0.5067640000000  0.5782560000000 1.0
C      1  0.4927210000000  0.4736800000000  0.5782600000000 1.0
C      1  0.4810690000000  0.5196670000000  0.5782580000000 1.0
C      1  0.5267150000000  0.4933090000000  0.4209700000000 1.0
C      1  0.4927050000000  0.5263830000000  0.4209700000000 1.0
C      1  0.4810670000000  0.4803930000000  0.4209730000000 1.0
C      1  0.4197070000000  0.5001430000000  0.4223700000000 1.0
C      1  0.5404890000000  0.5696480000000  0.4223600000000 1.0
C      1  0.5402910000000  0.4302950000000  0.4223680000000 1.0
C      1  0.4197150000000  0.4998990000000  0.5768660000000 1.0
C      1  0.5405170000000  0.4304300000000  0.5768640000000 1.0
C      1  0.5402780000000  0.5697820000000  0.5768570000000 1.0
C      1  0.4191000000000  0.4552450000000  0.5074160000000 1.0
C      1  0.5019130000000  0.5926330000000  0.5074050000000 1.0
C      1  0.5794880000000  0.4522210000000  0.5074090000000 1.0
C      1  0.4190860000000  0.5447970000000  0.4918200000000 1.0
C      1  0.5019390000000  0.4074330000000  0.4918240000000 1.0
C      1  0.5794730000000  0.5478670000000  0.4918120000000 1.0
C      1  0.5259460000000  0.6036800000000  0.4949480000000 1.0
C      1  0.5770370000000  0.4258830000000  0.4949550000000 1.0
C      1  0.3975150000000  0.4705350000000  0.4949620000000 1.0
C      1  0.5259770000000  0.3963930000000  0.5042780000000 1.0
C      1  0.5770160000000  0.5742050000000  0.5042660000000 1.0
C      1  0.3975070000000  0.5295010000000  0.5042770000000 1.0
C      1  0.4862850000000  0.4268200000000  0.5063030000000 1.0
C      1  0.4437030000000  0.5486620000000  0.5062980000000 1.0
C      1  0.5705120000000  0.5246170000000  0.5062940000000 1.0
C      1  0.4862630000000  0.5732410000000  0.4929270000000 1.0
C      1  0.4437170000000  0.4513870000000  0.4929360000000 1.0
C      1  0.5705190000000  0.4754680000000  0.4929280000000 1.0
C      1  0.5294010000000  0.5506860000000  0.4996100000000 1.0
C      1  0.5294160000000  0.4493880000000  0.4996160000000 1.0
C      1  0.4416820000000  0.5000240000000  0.4996170000000 1.0
C      1  0.5001660000000  0.5000320000000  0.4840140000000 1.0
C      1  0.5001670000000  0.5000340000000  0.5152150000000 1.0
END
