TITL C-3623284-6838-1394 3543.30747084693 125000 -952.294473726918 0 0 158 (C1) n - 1
REM
REM in /home/nfs/bkarasulu/CARBON/AIRSS/Generating-Clusters/LCBOP/Higher-Symm/SD-CG/FIRE-CG
REM
REM
REM
REM
REM
REM ./C.cell (b20cbc046b6831c77cfcea5457e17084)
REM AIRSS Version 0.9.1 bugfix July 2018 build 013d7b7c2542+ Fri, 06 Jul 2018 19:26:36 +0100
REM compiler GCC version 9.2.1 20190827 (Red Hat 9.2.1-1)
REM options -cpp -mtune=generic -march=x86-64 -g -O0 -fpre-include=/usr/include/finclude/math-vector-fortran.h
REM seed -1453552261 1124917973 -1161439872 1337341873 -2109904140 -1814067862 1841258596 1778116072 349997173 -578539983 559782980 2037218235 -1133793320 796534404 1633561609 977467788 -368902624 -1464318589 -625857618 1607422922 -1654173801 432785614 -154140666 -832105697 -1047075488 -183584535 24216366 -529925638 2016678716 -1589715406 -735868977 1639139060 975482975
REM
CELL 1.54180   50.00000   50.00000   50.00000   90.00000   90.00000   90.00000
LATT -1
SFAC C  
C      1  0.6000420000000  0.5440070000000  0.5592980000000 1.0
C      1  0.4142540000000  0.5315660000000  0.5404100000000 1.0
C      1  0.5290370000000  0.3956610000000  0.4953250000000 1.0
C      1  0.5452270000000  0.5034510000000  0.4246520000000 1.0
C      1  0.4251260000000  0.4735760000000  0.4340610000000 1.0
C      1  0.5470280000000  0.5387920000000  0.5534470000000 1.0
C      1  0.5024640000000  0.4626970000000  0.5925140000000 1.0
C      1  0.4811590000000  0.4002410000000  0.5138030000000 1.0
C      1  0.4881050000000  0.4115150000000  0.4456290000000 1.0
C      1  0.5271330000000  0.4655030000000  0.3908690000000 1.0
C      1  0.5733580000000  0.5030550000000  0.5803880000000 1.0
C      1  0.4479460000000  0.5368350000000  0.4844750000000 1.0
C      1  0.4971660000000  0.5166160000000  0.4215370000000 1.0
C      1  0.4428360000000  0.5084090000000  0.4918120000000 1.0
C      1  0.5291640000000  0.5115760000000  0.5137350000000 1.0
C      1  0.6032590000000  0.4694720000000  0.4416340000000 1.0
C      1  0.4375850000000  0.4525380000000  0.4182520000000 1.0
C      1  0.4428130000000  0.4310760000000  0.4372680000000 1.0
C      1  0.5158210000000  0.4031720000000  0.4425290000000 1.0
C      1  0.4364070000000  0.4565660000000  0.5615180000000 1.0
C      1  0.5161180000000  0.4998080000000  0.6217230000000 1.0
C      1  0.5655530000000  0.4991170000000  0.4430340000000 1.0
C      1  0.4711590000000  0.4485680000000  0.5313410000000 1.0
C      1  0.5079760000000  0.5726110000000  0.5746870000000 1.0
C      1  0.4532050000000  0.4935720000000  0.4696150000000 1.0
C      1  0.4536680000000  0.4479610000000  0.5812560000000 1.0
C      1  0.4851890000000  0.5044880000000  0.5493140000000 1.0
C      1  0.5962970000000  0.4526720000000  0.4642420000000 1.0
C      1  0.5235340000000  0.4419720000000  0.4097620000000 1.0
C      1  0.5091190000000  0.4801510000000  0.4464290000000 1.0
C      1  0.3981830000000  0.4891140000000  0.5522430000000 1.0
C      1  0.5947410000000  0.5194990000000  0.5083250000000 1.0
C      1  0.4077780000000  0.5285510000000  0.4585040000000 1.0
C      1  0.5569780000000  0.3970660000000  0.5004420000000 1.0
C      1  0.5830760000000  0.4257680000000  0.5275790000000 1.0
C      1  0.4365340000000  0.4197430000000  0.5220380000000 1.0
C      1  0.4638340000000  0.5873410000000  0.4492870000000 1.0
C      1  0.5351740000000  0.4671860000000  0.5803170000000 1.0
C      1  0.4754470000000  0.5562800000000  0.3924800000000 1.0
C      1  0.5162460000000  0.5249970000000  0.6066260000000 1.0
C      1  0.4129320000000  0.4241230000000  0.5046430000000 1.0
C      1  0.5130150000000  0.5815050000000  0.4219130000000 1.0
C      1  0.4666490000000  0.6110750000000  0.5217300000000 1.0
C      1  0.4807460000000  0.5300390000000  0.4408620000000 1.0
C      1  0.4924360000000  0.4603610000000  0.4394160000000 1.0
C      1  0.3949970000000  0.5472580000000  0.5268700000000 1.0
C      1  0.5992330000000  0.5429100000000  0.4933530000000 1.0
C      1  0.4979090000000  0.5714890000000  0.4003280000000 1.0
C      1  0.3988850000000  0.5056220000000  0.4727060000000 1.0
C      1  0.4716560000000  0.6034910000000  0.4946890000000 1.0
C      1  0.5574660000000  0.4338780000000  0.5398610000000 1.0
C      1  0.4234690000000  0.5488370000000  0.4464380000000 1.0
C      1  0.5340830000000  0.5802820000000  0.5733920000000 1.0
C      1  0.5409730000000  0.4472760000000  0.5224360000000 1.0
C      1  0.5518950000000  0.5977340000000  0.3988790000000 1.0
C      1  0.5788280000000  0.4297590000000  0.4694130000000 1.0
C      1  0.4726010000000  0.5355860000000  0.4676210000000 1.0
C      1  0.4949130000000  0.4463460000000  0.4152900000000 1.0
C      1  0.5880580000000  0.5898460000000  0.4695760000000 1.0
C      1  0.5454790000000  0.4946290000000  0.5793990000000 1.0
C      1  0.5096670000000  0.4085130000000  0.5148400000000 1.0
C      1  0.5639410000000  0.4811620000000  0.4879330000000 1.0
C      1  0.5720110000000  0.4828380000000  0.5315300000000 1.0
C      1  0.5827370000000  0.5883390000000  0.4975180000000 1.0
C      1  0.4477260000000  0.5561160000000  0.5779600000000 1.0
C      1  0.5275830000000  0.5200770000000  0.5778870000000 1.0
C      1  0.5005240000000  0.4814640000000  0.3865280000000 1.0
C      1  0.4992170000000  0.5552770000000  0.5302190000000 1.0
C      1  0.4856350000000  0.5356330000000  0.5149900000000 1.0
C      1  0.5195830000000  0.6082390000000  0.4624270000000 1.0
C      1  0.4646680000000  0.4902990000000  0.5638170000000 1.0
C      1  0.4522270000000  0.5616740000000  0.4077180000000 1.0
C      1  0.4420920000000  0.5608950000000  0.4993450000000 1.0
C      1  0.4026730000000  0.5846990000000  0.4927350000000 1.0
C      1  0.4529840000000  0.4576770000000  0.3953610000000 1.0
C      1  0.4983310000000  0.5517810000000  0.5577740000000 1.0
C      1  0.4103990000000  0.5137070000000  0.5622490000000 1.0
C      1  0.4441600000000  0.4793920000000  0.5456200000000 1.0
C      1  0.6063270000000  0.5210980000000  0.4484180000000 1.0
C      1  0.5200720000000  0.5679180000000  0.5171970000000 1.0
C      1  0.5008570000000  0.4830600000000  0.5344500000000 1.0
C      1  0.5148940000000  0.4073510000000  0.5820100000000 1.0
C      1  0.4003800000000  0.4761380000000  0.4795760000000 1.0
C      1  0.5978950000000  0.5435850000000  0.4640460000000 1.0
C      1  0.5355200000000  0.4234950000000  0.4310210000000 1.0
C      1  0.5152550000000  0.4363430000000  0.5242340000000 1.0
C      1  0.4420320000000  0.5363630000000  0.5364470000000 1.0
C      1  0.4481390000000  0.3988370000000  0.4713590000000 1.0
C      1  0.6003390000000  0.4290810000000  0.5511710000000 1.0
C      1  0.4444550000000  0.5078060000000  0.6010260000000 1.0
C      1  0.5237070000000  0.3896740000000  0.4673360000000 1.0
C      1  0.6012370000000  0.5612200000000  0.5382100000000 1.0
C      1  0.4991910000000  0.5941090000000  0.4443720000000 1.0
C      1  0.5502590000000  0.5233950000000  0.5298970000000 1.0
C      1  0.4721940000000  0.5052720000000  0.6082940000000 1.0
C      1  0.5019500000000  0.5238850000000  0.5634040000000 1.0
C      1  0.5965700000000  0.5665170000000  0.5103790000000 1.0
C      1  0.5096170000000  0.4906020000000  0.5080150000000 1.0
C      1  0.4692550000000  0.5530800000000  0.5970590000000 1.0
C      1  0.5863020000000  0.4373510000000  0.5748430000000 1.0
C      1  0.4658260000000  0.5193190000000  0.5301440000000 1.0
C      1  0.5559260000000  0.5957760000000  0.5049410000000 1.0
C      1  0.5489760000000  0.5678310000000  0.5525600000000 1.0
C      1  0.4884680000000  0.4155770000000  0.5772870000000 1.0
C      1  0.4115830000000  0.4618180000000  0.4572000000000 1.0
C      1  0.5754320000000  0.5102620000000  0.5264690000000 1.0
C      1  0.4719030000000  0.4050170000000  0.4876440000000 1.0
C      1  0.4817780000000  0.4424600000000  0.5854370000000 1.0
C      1  0.5780680000000  0.4172720000000  0.4983200000000 1.0
C      1  0.4521440000000  0.4423870000000  0.5129680000000 1.0
C      1  0.5840600000000  0.5668810000000  0.4530340000000 1.0
C      1  0.5619280000000  0.5684430000000  0.4350290000000 1.0
C      1  0.5439140000000  0.5274520000000  0.4742860000000 1.0
C      1  0.4456300000000  0.5627020000000  0.5280310000000 1.0
C      1  0.4453980000000  0.5668610000000  0.4351830000000 1.0
C      1  0.4426920000000  0.4938720000000  0.4432930000000 1.0
C      1  0.4002550000000  0.4583520000000  0.5051140000000 1.0
C      1  0.5305300000000  0.5507870000000  0.4744150000000 1.0
C      1  0.4300340000000  0.5832820000000  0.4860180000000 1.0
C      1  0.4495700000000  0.5760890000000  0.5539130000000 1.0
C      1  0.5563810000000  0.5022900000000  0.4701920000000 1.0
C      1  0.5541710000000  0.4701150000000  0.5125660000000 1.0
C      1  0.4801500000000  0.5308200000000  0.3802350000000 1.0
C      1  0.4516920000000  0.4509810000000  0.4859210000000 1.0
C      1  0.4924710000000  0.5091980000000  0.3938300000000 1.0
C      1  0.4892710000000  0.4238190000000  0.4731770000000 1.0
C      1  0.4916140000000  0.5310250000000  0.4880350000000 1.0
C      1  0.4692810000000  0.4024470000000  0.5604150000000 1.0
C      1  0.5385700000000  0.6079620000000  0.4832720000000 1.0
C      1  0.5558710000000  0.4390950000000  0.5703790000000 1.0
C      1  0.5065730000000  0.4462200000000  0.4797190000000 1.0
C      1  0.4970690000000  0.4550120000000  0.5354390000000 1.0
C      1  0.5526430000000  0.4320350000000  0.4547250000000 1.0
C      1  0.4486670000000  0.4960120000000  0.5187280000000 1.0
C      1  0.4517350000000  0.5980500000000  0.4743050000000 1.0
C      1  0.4589070000000  0.4073510000000  0.4433950000000 1.0
C      1  0.3900910000000  0.5678480000000  0.5100510000000 1.0
C      1  0.4807800000000  0.4602310000000  0.3938810000000 1.0
C      1  0.4233610000000  0.4142470000000  0.4785570000000 1.0
C      1  0.4938220000000  0.4840040000000  0.6107190000000 1.0
C      1  0.4686180000000  0.4726790000000  0.4793510000000 1.0
C      1  0.4297580000000  0.5243150000000  0.5827410000000 1.0
C      1  0.5420860000000  0.5818640000000  0.4193110000000 1.0
C      1  0.4595860000000  0.6019960000000  0.5466030000000 1.0
C      1  0.5153760000000  0.5691490000000  0.4894380000000 1.0
C      1  0.5400280000000  0.4168090000000  0.5821790000000 1.0
C      1  0.4593150000000  0.4024770000000  0.5335400000000 1.0
C      1  0.5440410000000  0.5796830000000  0.5262400000000 1.0
C      1  0.5332890000000  0.4446850000000  0.4718290000000 1.0
C      1  0.3954870000000  0.4718700000000  0.5306820000000 1.0
C      1  0.5910260000000  0.5227880000000  0.5737870000000 1.0
C      1  0.5937080000000  0.4968280000000  0.4400680000000 1.0
C      1  0.4931250000000  0.5863770000000  0.4884930000000 1.0
C      1  0.4310400000000  0.4403510000000  0.4648720000000 1.0
C      1  0.4962230000000  0.4723520000000  0.4880530000000 1.0
C      1  0.4863370000000  0.5320130000000  0.6067150000000 1.0
C      1  0.5907840000000  0.4717570000000  0.4846260000000 1.0
C      1  0.5183690000000  0.5020160000000  0.4322100000000 1.0
END
