TITL C-3623289-7120-343 95385.4031496166 125000 -1116.12501212502 0 0 183 (C1) n - 1
REM
REM in /home/nfs/bkarasulu/CARBON/AIRSS/Generating-Clusters/LCBOP/Higher-Symm/SD-CG/FIRE-CG
REM
REM
REM
REM
REM
REM ./C.cell (b20cbc046b6831c77cfcea5457e17084)
REM AIRSS Version 0.9.1 bugfix July 2018 build 013d7b7c2542+ Fri, 06 Jul 2018 19:26:36 +0100
REM compiler GCC version 9.2.1 20190827 (Red Hat 9.2.1-1)
REM options -cpp -mtune=generic -march=x86-64 -g -O0 -fpre-include=/usr/include/finclude/math-vector-fortran.h
REM seed -1830191376 -1185757869 1413100661 -580111411 -1896198694 -2133861779 -1373838193 -2036293269 1717502966 -123764053 226803980 -2106444455 745581006 -1886720742 -1647689014 -1023284258 -735625250 -681071941 495217370 -1590039882 -1981774990 -350239516 111366428 450533145 -15848604 -2031334670 1520408084 1257465834 -471527931 -1400796880 -1201909101 1223133339 -402496644
REM
CELL 1.54180   50.00000   50.00000   50.00000   90.00000   90.00000   90.00000
LATT -1
SFAC C  
C      1  0.4274620000000  0.5631460000000  0.4253430000000 1.0
C      1  0.4969980000000  0.4870340000000  0.4331520000000 1.0
C      1  0.4037080000000  0.4290880000000  0.4950260000000 1.0
C      1  0.5521170000000  0.5602470000000  0.6055700000000 1.0
C      1  0.5100680000000  0.3772650000000  0.4674100000000 1.0
C      1  0.4737310000000  0.5363720000000  0.3942590000000 1.0
C      1  0.5164890000000  0.4648630000000  0.5713010000000 1.0
C      1  0.4629340000000  0.4288950000000  0.5015470000000 1.0
C      1  0.5670620000000  0.5694050000000  0.4328320000000 1.0
C      1  0.3971250000000  0.4540160000000  0.5066930000000 1.0
C      1  0.5891150000000  0.5501440000000  0.5074540000000 1.0
C      1  0.4114490000000  0.5373780000000  0.4327440000000 1.0
C      1  0.5631930000000  0.4038810000000  0.4357700000000 1.0
C      1  0.6284350000000  0.5562320000000  0.5376060000000 1.0
C      1  0.4481740000000  0.4023920000000  0.4999790000000 1.0
C      1  0.5296420000000  0.4976660000000  0.5165010000000 1.0
C      1  0.5824350000000  0.5013440000000  0.5708230000000 1.0
C      1  0.5366910000000  0.5990930000000  0.5437270000000 1.0
C      1  0.4989070000000  0.5699990000000  0.5558080000000 1.0
C      1  0.5361360000000  0.4093260000000  0.4308340000000 1.0
C      1  0.5685550000000  0.4491040000000  0.5111450000000 1.0
C      1  0.5196430000000  0.4800550000000  0.4485350000000 1.0
C      1  0.4774860000000  0.4624730000000  0.4695320000000 1.0
C      1  0.4827910000000  0.5500760000000  0.4407800000000 1.0
C      1  0.4666360000000  0.4870210000000  0.3899790000000 1.0
C      1  0.6112000000000  0.4478570000000  0.5320470000000 1.0
C      1  0.4485180000000  0.4420270000000  0.5912940000000 1.0
C      1  0.5595010000000  0.4419710000000  0.5538670000000 1.0
C      1  0.4570810000000  0.3795980000000  0.4574320000000 1.0
C      1  0.5937850000000  0.4184050000000  0.4909720000000 1.0
C      1  0.4418900000000  0.4008110000000  0.4695550000000 1.0
C      1  0.4133790000000  0.5577660000000  0.5722630000000 1.0
C      1  0.6167020000000  0.4676600000000  0.5520880000000 1.0
C      1  0.5166770000000  0.5526450000000  0.4104100000000 1.0
C      1  0.4386620000000  0.4705710000000  0.4927080000000 1.0
C      1  0.4770130000000  0.4751720000000  0.5537970000000 1.0
C      1  0.4412310000000  0.5381740000000  0.5193250000000 1.0
C      1  0.4795420000000  0.5881170000000  0.5056540000000 1.0
C      1  0.4136580000000  0.4488500000000  0.5525170000000 1.0
C      1  0.3860240000000  0.5107780000000  0.5062440000000 1.0
C      1  0.5151430000000  0.3929420000000  0.4427520000000 1.0
C      1  0.5172240000000  0.4550110000000  0.5444860000000 1.0
C      1  0.4375710000000  0.5565810000000  0.5871200000000 1.0
C      1  0.4680260000000  0.4457170000000  0.4172110000000 1.0
C      1  0.5244380000000  0.4565480000000  0.4882850000000 1.0
C      1  0.4445910000000  0.5302680000000  0.6014600000000 1.0
C      1  0.4008350000000  0.4872790000000  0.4679700000000 1.0
C      1  0.4388570000000  0.4290260000000  0.4588000000000 1.0
C      1  0.5003340000000  0.6201590000000  0.4628650000000 1.0
C      1  0.4905780000000  0.5379020000000  0.6196010000000 1.0
C      1  0.4777090000000  0.4370340000000  0.5234850000000 1.0
C      1  0.4287560000000  0.5097670000000  0.5517620000000 1.0
C      1  0.5474120000000  0.3993910000000  0.5340500000000 1.0
C      1  0.5030810000000  0.5559820000000  0.6009090000000 1.0
C      1  0.5866450000000  0.4447740000000  0.4460720000000 1.0
C      1  0.5132390000000  0.5276290000000  0.5502000000000 1.0
C      1  0.6339870000000  0.4612660000000  0.5724840000000 1.0
C      1  0.3965880000000  0.4647820000000  0.5336450000000 1.0
C      1  0.5001010000000  0.5546740000000  0.4620980000000 1.0
C      1  0.5687580000000  0.5588030000000  0.4067560000000 1.0
C      1  0.3877690000000  0.4930350000000  0.5281120000000 1.0
C      1  0.5440290000000  0.6187210000000  0.5264520000000 1.0
C      1  0.5512150000000  0.5318760000000  0.3657740000000 1.0
C      1  0.5282570000000  0.5549190000000  0.5165000000000 1.0
C      1  0.4836640000000  0.6058200000000  0.4437730000000 1.0
C      1  0.4622930000000  0.5393430000000  0.6243230000000 1.0
C      1  0.5702770000000  0.5281730000000  0.5021610000000 1.0
C      1  0.4930630000000  0.5149470000000  0.4886270000000 1.0
C      1  0.4747490000000  0.4993360000000  0.5396700000000 1.0
C      1  0.4872950000000  0.5721580000000  0.5821470000000 1.0
C      1  0.4995160000000  0.3827800000000  0.5131970000000 1.0
C      1  0.5004110000000  0.5965630000000  0.4218260000000 1.0
C      1  0.4262370000000  0.4577370000000  0.5787680000000 1.0
C      1  0.4078860000000  0.4678900000000  0.4460690000000 1.0
C      1  0.4784930000000  0.5604840000000  0.5043810000000 1.0
C      1  0.4929020000000  0.4780150000000  0.5771780000000 1.0
C      1  0.4237490000000  0.5074870000000  0.6039290000000 1.0
C      1  0.4030690000000  0.5394040000000  0.4625160000000 1.0
C      1  0.4530640000000  0.4695810000000  0.4075000000000 1.0
C      1  0.4515600000000  0.4923910000000  0.5034120000000 1.0
C      1  0.4871820000000  0.5096860000000  0.3883720000000 1.0
C      1  0.5291840000000  0.5189700000000  0.3580430000000 1.0
C      1  0.6013410000000  0.4333030000000  0.4675740000000 1.0
C      1  0.5223280000000  0.5750540000000  0.5393870000000 1.0
C      1  0.4504840000000  0.5157840000000  0.4297300000000 1.0
C      1  0.4957150000000  0.4348430000000  0.4233980000000 1.0
C      1  0.4175360000000  0.5749970000000  0.5007470000000 1.0
C      1  0.4569600000000  0.5954440000000  0.4499810000000 1.0
C      1  0.5828490000000  0.5781350000000  0.5019030000000 1.0
C      1  0.4953270000000  0.4217390000000  0.4697640000000 1.0
C      1  0.5367320000000  0.5212850000000  0.4575030000000 1.0
C      1  0.5419570000000  0.5783310000000  0.4433280000000 1.0
C      1  0.5394820000000  0.4616000000000  0.4393150000000 1.0
C      1  0.4555070000000  0.5128530000000  0.5564110000000 1.0
C      1  0.4649620000000  0.4534480000000  0.5420250000000 1.0
C      1  0.5805480000000  0.4245440000000  0.4270960000000 1.0
C      1  0.4379790000000  0.6042050000000  0.5375640000000 1.0
C      1  0.5536310000000  0.4898020000000  0.5292760000000 1.0
C      1  0.6166550000000  0.5716160000000  0.4521560000000 1.0
C      1  0.4752170000000  0.4840180000000  0.4518610000000 1.0
C      1  0.4933880000000  0.4163810000000  0.5790080000000 1.0
C      1  0.3936660000000  0.5146480000000  0.4770890000000 1.0
C      1  0.4636280000000  0.4213360000000  0.5767830000000 1.0
C      1  0.5553360000000  0.4620970000000  0.5978570000000 1.0
C      1  0.4441750000000  0.5709900000000  0.4024140000000 1.0
C      1  0.4570340000000  0.5049140000000  0.4542710000000 1.0
C      1  0.4229120000000  0.5112650000000  0.4234500000000 1.0
C      1  0.4580870000000  0.5766650000000  0.5803320000000 1.0
C      1  0.4458030000000  0.5227500000000  0.4729260000000 1.0
C      1  0.6012330000000  0.4889620000000  0.4802940000000 1.0
C      1  0.5232010000000  0.5255560000000  0.5230250000000 1.0
C      1  0.6050800000000  0.4944750000000  0.5517490000000 1.0
C      1  0.4166650000000  0.5659500000000  0.4728770000000 1.0
C      1  0.4782490000000  0.4996170000000  0.5109420000000 1.0
C      1  0.5228830000000  0.3827670000000  0.4946510000000 1.0
C      1  0.4058240000000  0.5571470000000  0.5464550000000 1.0
C      1  0.4943040000000  0.6102900000000  0.5063580000000 1.0
C      1  0.4109660000000  0.4727340000000  0.4905240000000 1.0
C      1  0.5264750000000  0.5656490000000  0.4645820000000 1.0
C      1  0.6136770000000  0.4964870000000  0.5029520000000 1.0
C      1  0.5621670000000  0.5165780000000  0.4732850000000 1.0
C      1  0.6026470000000  0.5970720000000  0.5045420000000 1.0
C      1  0.5419620000000  0.6128580000000  0.4984160000000 1.0
C      1  0.5911670000000  0.5722230000000  0.4466330000000 1.0
C      1  0.4988760000000  0.5105040000000  0.6162860000000 1.0
C      1  0.6106820000000  0.5398880000000  0.5246850000000 1.0
C      1  0.5267930000000  0.4381370000000  0.4252460000000 1.0
C      1  0.4399530000000  0.5181880000000  0.4996310000000 1.0
C      1  0.4731870000000  0.3817040000000  0.5009550000000 1.0
C      1  0.4684860000000  0.5345540000000  0.4223860000000 1.0
C      1  0.5612710000000  0.4632180000000  0.5344220000000 1.0
C      1  0.5665340000000  0.5158180000000  0.5302580000000 1.0
C      1  0.5480600000000  0.4429740000000  0.4932380000000 1.0
C      1  0.4902090000000  0.5432500000000  0.4856860000000 1.0
C      1  0.5719980000000  0.3982100000000  0.4876150000000 1.0
C      1  0.5766570000000  0.4911700000000  0.4655360000000 1.0
C      1  0.4195700000000  0.4825590000000  0.5927830000000 1.0
C      1  0.6120430000000  0.5107440000000  0.5277880000000 1.0
C      1  0.4210210000000  0.4126160000000  0.5128520000000 1.0
C      1  0.4485870000000  0.4302540000000  0.4312880000000 1.0
C      1  0.5358160000000  0.5310370000000  0.5693460000000 1.0
C      1  0.4857770000000  0.4993910000000  0.5937160000000 1.0
C      1  0.4804640000000  0.3723930000000  0.4727240000000 1.0
C      1  0.5936200000000  0.4359460000000  0.5133480000000 1.0
C      1  0.5147240000000  0.6176230000000  0.4877180000000 1.0
C      1  0.5047540000000  0.5103380000000  0.3647430000000 1.0
C      1  0.4229770000000  0.4807090000000  0.4229550000000 1.0
C      1  0.4535870000000  0.4482260000000  0.4799400000000 1.0
C      1  0.5634400000000  0.5216300000000  0.5596140000000 1.0
C      1  0.5260780000000  0.4838370000000  0.4931330000000 1.0
C      1  0.5052570000000  0.4377640000000  0.5276110000000 1.0
C      1  0.4714140000000  0.5653140000000  0.3917400000000 1.0
C      1  0.4185160000000  0.5548420000000  0.5214550000000 1.0
C      1  0.4335670000000  0.5778750000000  0.4507530000000 1.0
C      1  0.5692510000000  0.3902650000000  0.4600670000000 1.0
C      1  0.4492130000000  0.5963950000000  0.5610020000000 1.0
C      1  0.5725360000000  0.5737950000000  0.6144400000000 1.0
C      1  0.5223570000000  0.5276390000000  0.4249590000000 1.0
C      1  0.4678050000000  0.5469990000000  0.5269200000000 1.0
C      1  0.5046510000000  0.5064930000000  0.4143430000000 1.0
C      1  0.5562750000000  0.5872220000000  0.4944470000000 1.0
C      1  0.5721480000000  0.4821230000000  0.5897790000000 1.0
C      1  0.4885760000000  0.5441600000000  0.5469730000000 1.0
C      1  0.5314730000000  0.4486070000000  0.5894280000000 1.0
C      1  0.5485110000000  0.3923990000000  0.5055520000000 1.0
C      1  0.5372290000000  0.5662510000000  0.4912100000000 1.0
C      1  0.4457830000000  0.4101450000000  0.5569750000000 1.0
C      1  0.4966410000000  0.5743270000000  0.4042000000000 1.0
C      1  0.5304490000000  0.5485230000000  0.5922020000000 1.0
C      1  0.5235260000000  0.4211120000000  0.5788990000000 1.0
C      1  0.4934140000000  0.4126730000000  0.4430670000000 1.0
C      1  0.4642850000000  0.5156830000000  0.5832440000000 1.0
C      1  0.5282770000000  0.5986210000000  0.4287550000000 1.0
C      1  0.4543410000000  0.4461090000000  0.6179460000000 1.0
C      1  0.4263640000000  0.5993680000000  0.5132780000000 1.0
C      1  0.5006040000000  0.4478360000000  0.4769720000000 1.0
C      1  0.5649470000000  0.5459670000000  0.3837490000000 1.0
C      1  0.5157860000000  0.4975120000000  0.6331040000000 1.0
C      1  0.5176350000000  0.5008070000000  0.4712240000000 1.0
C      1  0.5441160000000  0.4170890000000  0.5567220000000 1.0
C      1  0.4241980000000  0.4221130000000  0.5413800000000 1.0
C      1  0.4106720000000  0.4396840000000  0.4610620000000 1.0
C      1  0.5677050000000  0.4671920000000  0.4489510000000 1.0
END
