TITL C-3623283-6828-1600 -1.57440666698489e-07 125000 -27.3508253417067 0 0 9 (Cs) n - 1
REM
REM in /home/nfs/bkarasulu/CARBON/AIRSS/Generating-Clusters/LCBOP/Higher-Symm/SD-CG/FIRE-CG
REM
REM
REM
REM
REM
REM ./C.cell (b20cbc046b6831c77cfcea5457e17084)
REM AIRSS Version 0.9.1 bugfix July 2018 build 013d7b7c2542+ Fri, 06 Jul 2018 19:26:36 +0100
REM compiler GCC version 9.2.1 20190827 (Red Hat 9.2.1-1)
REM options -cpp -mtune=generic -march=x86-64 -g -O0 -fpre-include=/usr/include/finclude/math-vector-fortran.h
REM seed 1758126759 119090553 -2042466494 -1869607759 -2095869604 -84140885 513228323 -1118643628 18423909 -1573306814 1625127280 -1237848117 -337482219 -1897923790 1764500493 -885954977 616506699 -238877150 -754615828 -1024209469 -1017595448 1148964620 -29350343 2096674841 -299244591 -691364915 -915429986 -1349599899 -1446346211 911715177 1862133646 -1868522219 1158070656
REM
CELL 1.54180   50.00000   50.00000   50.00000   90.00000   90.00000   90.00000
LATT -1
SFAC C  
C      1  0.4963680000000  0.5330860000000  0.5002440000000 1.0
C      1  0.4678370000000  0.4938970000000  0.4992650000000 1.0
C      1  0.5051590000000  0.4658890000000  0.4992640000000 1.0
C      1  0.5348140000000  0.5042350000000  0.5002430000000 1.0
C      1  0.5004970000000  0.4985490000000  0.4412660000000 1.0
C      1  0.5006080000000  0.4986930000000  0.5597870000000 1.0
C      1  0.5004640000000  0.4985040000000  0.4666400000000 1.0
C      1  0.5011430000000  0.4994060000000  0.5337730000000 1.0
C      1  0.5020040000000  0.5005550000000  0.5014340000000 1.0
END
