TITL C-3623289-7120-1187 387110.34435602 125000 -336.308096599786 0 0 77 (C1) n - 1
REM
REM in /home/nfs/bkarasulu/CARBON/AIRSS/Generating-Clusters/LCBOP/Higher-Symm/SD-CG/FIRE-CG
REM
REM
REM
REM
REM
REM ./C.cell (b20cbc046b6831c77cfcea5457e17084)
REM AIRSS Version 0.9.1 bugfix July 2018 build 013d7b7c2542+ Fri, 06 Jul 2018 19:26:36 +0100
REM compiler GCC version 9.2.1 20190827 (Red Hat 9.2.1-1)
REM options -cpp -mtune=generic -march=x86-64 -g -O0 -fpre-include=/usr/include/finclude/math-vector-fortran.h
REM seed -1296118695 -963688909 -284002285 -1497172444 -1245670024 -520259597 765820626 726111006 -137451649 1047758681 -338359830 1104691078 -144388956 -1658383977 498623746 -1961541954 1069702696 1124543292 86476460 -1400249319 1862206807 203742499 -1497592010 2044452343 945412569 -1696057988 1821956353 -234558679 1462772187 275853554 117084021 1398297301 240019704
REM
CELL 1.54180   50.00000   50.00000   50.00000   90.00000   90.00000   90.00000
LATT -1
SFAC C  
C      1  0.4524810000000  0.4874670000000  0.4441070000000 1.0
C      1  0.4519110000000  0.5555150000000  0.4878450000000 1.0
C      1  0.4525300000000  0.5115000000000  0.5556360000000 1.0
C      1  0.4527300000000  0.4439900000000  0.5121540000000 1.0
C      1  0.5475630000000  0.5122130000000  0.4457890000000 1.0
C      1  0.5478850000000  0.4452360000000  0.4870870000000 1.0
C      1  0.5482430000000  0.4863890000000  0.5546740000000 1.0
C      1  0.5477100000000  0.5533250000000  0.5127980000000 1.0
C      1  0.5429700000000  0.5353020000000  0.5596260000000 1.0
C      1  0.5426000000000  0.4393190000000  0.5359640000000 1.0
C      1  0.5428980000000  0.4633480000000  0.4402190000000 1.0
C      1  0.5430330000000  0.5589670000000  0.4639780000000 1.0
C      1  0.4537660000000  0.4622300000000  0.5603770000000 1.0
C      1  0.4540130000000  0.5596200000000  0.5371920000000 1.0
C      1  0.4536790000000  0.5367450000000  0.4394330000000 1.0
C      1  0.4547710000000  0.4397360000000  0.4629190000000 1.0
C      1  0.4897720000000  0.5097430000000  0.4551690000000 1.0
C      1  0.4896350000000  0.5447200000000  0.5098780000000 1.0
C      1  0.4900290000000  0.4887910000000  0.5458530000000 1.0
C      1  0.4908510000000  0.4553580000000  0.4897300000000 1.0
C      1  0.5097230000000  0.4908110000000  0.4570660000000 1.0
C      1  0.5103100000000  0.4577940000000  0.5097410000000 1.0
C      1  0.5103130000000  0.5077850000000  0.5434120000000 1.0
C      1  0.5101600000000  0.5427940000000  0.4912220000000 1.0
C      1  0.4770490000000  0.4883050000000  0.5719970000000 1.0
C      1  0.4774320000000  0.4288430000000  0.4888080000000 1.0
C      1  0.4768450000000  0.5108900000000  0.4284610000000 1.0
C      1  0.4769170000000  0.5710750000000  0.5110730000000 1.0
C      1  0.5245420000000  0.5122800000000  0.5694850000000 1.0
C      1  0.5245010000000  0.5687460000000  0.4872120000000 1.0
C      1  0.5240020000000  0.4869300000000  0.4308460000000 1.0
C      1  0.5242380000000  0.4309820000000  0.5131940000000 1.0
C      1  0.4379270000000  0.5455800000000  0.5221980000000 1.0
C      1  0.4380550000000  0.4773070000000  0.5462120000000 1.0
C      1  0.4386530000000  0.4538030000000  0.4776590000000 1.0
C      1  0.4372090000000  0.5217490000000  0.4533510000000 1.0
C      1  0.5617780000000  0.4525230000000  0.5221650000000 1.0
C      1  0.5620050000000  0.5212190000000  0.5465390000000 1.0
C      1  0.5619460000000  0.5456330000000  0.4778950000000 1.0
C      1  0.5622300000000  0.4771390000000  0.4529670000000 1.0
C      1  0.4902490000000  0.4799580000000  0.4188530000000 1.0
C      1  0.4905060000000  0.5807360000000  0.4800870000000 1.0
C      1  0.4906140000000  0.5193910000000  0.5812350000000 1.0
C      1  0.4904910000000  0.4190240000000  0.5198670000000 1.0
C      1  0.5117450000000  0.5177520000000  0.4185570000000 1.0
C      1  0.5122160000000  0.4183780000000  0.4822240000000 1.0
C      1  0.5121460000000  0.4815960000000  0.5824350000000 1.0
C      1  0.5119330000000  0.5810920000000  0.5179510000000 1.0
C      1  0.5267990000000  0.5591650000000  0.5409960000000 1.0
C      1  0.5268440000000  0.4582630000000  0.5606020000000 1.0
C      1  0.5268700000000  0.4396060000000  0.4587740000000 1.0
C      1  0.5267320000000  0.5406590000000  0.4402110000000 1.0
C      1  0.4718420000000  0.4386040000000  0.5419450000000 1.0
C      1  0.4717910000000  0.5410150000000  0.5608270000000 1.0
C      1  0.4711440000000  0.5607770000000  0.4582030000000 1.0
C      1  0.4721760000000  0.4579370000000  0.4390340000000 1.0
C      1  0.4451790000000  0.5190050000000  0.4819550000000 1.0
C      1  0.4457980000000  0.5170980000000  0.5190170000000 1.0
C      1  0.4461350000000  0.4801970000000  0.5176850000000 1.0
C      1  0.4463860000000  0.4823680000000  0.4806780000000 1.0
C      1  0.5588250000000  0.4800040000000  0.4814550000000 1.0
C      1  0.5573710000000  0.4808310000000  0.5192370000000 1.0
C      1  0.5589530000000  0.5184070000000  0.5181170000000 1.0
C      1  0.5586620000000  0.5171650000000  0.4808550000000 1.0
C      1  0.4775190000000  0.4797900000000  0.5236550000000 1.0
C      1  0.4777160000000  0.4776400000000  0.4803740000000 1.0
C      1  0.4760020000000  0.5203440000000  0.4754180000000 1.0
C      1  0.4766090000000  0.5226800000000  0.5181890000000 1.0
C      1  0.5238480000000  0.5096850000000  0.5188790000000 1.0
C      1  0.5240760000000  0.5186550000000  0.4903630000000 1.0
C      1  0.5255770000000  0.4888280000000  0.4796780000000 1.0
C      1  0.5272540000000  0.4807940000000  0.5113560000000 1.0
C      1  0.4996180000000  0.5582990000000  0.4408390000000 1.0
C      1  0.4996970000000  0.4400130000000  0.4413920000000 1.0
C      1  0.4992540000000  0.4409220000000  0.5601120000000 1.0
C      1  0.4996990000000  0.5585870000000  0.5583590000000 1.0
C      1  0.4847800000000  0.4979950000000  0.5020750000000 1.0
END
