TITL C-3623287-7182-1149 0.0123690202808459 125000 -591.734058739525 0 0 98 (C1) n - 1
REM
REM in /home/nfs/bkarasulu/CARBON/AIRSS/Generating-Clusters/LCBOP/Higher-Symm/SD-CG/FIRE-CG
REM
REM
REM
REM
REM
REM ./C.cell (b20cbc046b6831c77cfcea5457e17084)
REM AIRSS Version 0.9.1 bugfix July 2018 build 013d7b7c2542+ Fri, 06 Jul 2018 19:26:36 +0100
REM compiler GCC version 9.2.1 20190827 (Red Hat 9.2.1-1)
REM options -cpp -mtune=generic -march=x86-64 -g -O0 -fpre-include=/usr/include/finclude/math-vector-fortran.h
REM seed -955144564 -1900742421 277243411 1324273172 91325669 2017531545 -1630391606 599524027 932843012 33991942 1697583164 -1541379886 1630340091 -1127180613 1741717047 -1848469245 -1596934695 66781721 -1966449032 -317543595 2121568595 1535348778 1730630502 -1552829393 -961139483 -931035277 -1193390929 -1108789427 -1810263688 122561681 -73185622 -2036271752 1552646244
REM
CELL 1.54180   50.00000   50.00000   50.00000   90.00000   90.00000   90.00000
LATT -1
SFAC C  
C      1  0.4559120000000  0.4341450000000  0.5195580000000 1.0
C      1  0.5706110000000  0.5003140000000  0.4341740000000 1.0
C      1  0.4178610000000  0.5267770000000  0.5469580000000 1.0
C      1  0.5218020000000  0.4221680000000  0.5098490000000 1.0
C      1  0.6101310000000  0.5417450000000  0.4919950000000 1.0
C      1  0.4335540000000  0.5245750000000  0.4439500000000 1.0
C      1  0.4570310000000  0.4845650000000  0.5098230000000 1.0
C      1  0.4171350000000  0.5197730000000  0.4684420000000 1.0
C      1  0.4733790000000  0.4927560000000  0.4150910000000 1.0
C      1  0.4818540000000  0.5937110000000  0.4485270000000 1.0
C      1  0.5116770000000  0.5613390000000  0.4782400000000 1.0
C      1  0.4549380000000  0.4840070000000  0.4558250000000 1.0
C      1  0.4929670000000  0.4723590000000  0.5544510000000 1.0
C      1  0.4422580000000  0.5091120000000  0.5899800000000 1.0
C      1  0.5513550000000  0.4778100000000  0.4303410000000 1.0
C      1  0.5267860000000  0.5368410000000  0.5331440000000 1.0
C      1  0.4219490000000  0.4505180000000  0.5678650000000 1.0
C      1  0.4976470000000  0.4457550000000  0.4164340000000 1.0
C      1  0.4966900000000  0.5366300000000  0.5679950000000 1.0
C      1  0.4107370000000  0.4609050000000  0.5457920000000 1.0
C      1  0.5458120000000  0.5221420000000  0.5511640000000 1.0
C      1  0.4187560000000  0.5151880000000  0.4973830000000 1.0
C      1  0.5113670000000  0.4118540000000  0.5591590000000 1.0
C      1  0.5680900000000  0.5214900000000  0.4818160000000 1.0
C      1  0.4682830000000  0.4985460000000  0.5879390000000 1.0
C      1  0.4986090000000  0.4749200000000  0.4160400000000 1.0
C      1  0.5098220000000  0.5541710000000  0.4506150000000 1.0
C      1  0.4248360000000  0.5191580000000  0.5718210000000 1.0
C      1  0.4328200000000  0.4754150000000  0.4722370000000 1.0
C      1  0.4679460000000  0.4595640000000  0.5174310000000 1.0
C      1  0.4768980000000  0.5924020000000  0.4755070000000 1.0
C      1  0.5072300000000  0.5556080000000  0.5479860000000 1.0
C      1  0.5707700000000  0.5244020000000  0.4190290000000 1.0
C      1  0.5219700000000  0.5228930000000  0.5077530000000 1.0
C      1  0.4810920000000  0.4332260000000  0.3975830000000 1.0
C      1  0.4319290000000  0.5634220000000  0.5163610000000 1.0
C      1  0.4271570000000  0.5743720000000  0.4900670000000 1.0
C      1  0.5056040000000  0.4721900000000  0.6001600000000 1.0
C      1  0.5403990000000  0.4829970000000  0.4874980000000 1.0
C      1  0.5762870000000  0.5018980000000  0.4619100000000 1.0
C      1  0.5684910000000  0.4752350000000  0.4765550000000 1.0
C      1  0.5164890000000  0.4120990000000  0.4825810000000 1.0
C      1  0.4426250000000  0.4370480000000  0.5788520000000 1.0
C      1  0.5114520000000  0.5206540000000  0.5867340000000 1.0
C      1  0.4833540000000  0.4841150000000  0.4610170000000 1.0
C      1  0.4721870000000  0.5503560000000  0.5033090000000 1.0
C      1  0.4953880000000  0.4993490000000  0.5998390000000 1.0
C      1  0.4995230000000  0.5116150000000  0.4938140000000 1.0
C      1  0.5231480000000  0.5163050000000  0.4222080000000 1.0
C      1  0.4882330000000  0.4126270000000  0.4774440000000 1.0
C      1  0.4510590000000  0.5025390000000  0.4335800000000 1.0
C      1  0.4787890000000  0.5216310000000  0.5509560000000 1.0
C      1  0.5894560000000  0.5251540000000  0.5007360000000 1.0
C      1  0.6085220000000  0.5520080000000  0.4420710000000 1.0
C      1  0.4997920000000  0.4559280000000  0.5772960000000 1.0
C      1  0.5247650000000  0.4872650000000  0.4209420000000 1.0
C      1  0.5056330000000  0.6286210000000  0.5447200000000 1.0
C      1  0.4967380000000  0.6041330000000  0.5442610000000 1.0
C      1  0.4874980000000  0.5704630000000  0.4905860000000 1.0
C      1  0.5683680000000  0.5080770000000  0.5403810000000 1.0
C      1  0.5218660000000  0.4082050000000  0.5344650000000 1.0
C      1  0.4586990000000  0.4164150000000  0.5398380000000 1.0
C      1  0.5152090000000  0.4503630000000  0.5128000000000 1.0
C      1  0.5436030000000  0.5117630000000  0.4932830000000 1.0
C      1  0.4941260000000  0.4607630000000  0.5290050000000 1.0
C      1  0.4115330000000  0.4709920000000  0.5208890000000 1.0
C      1  0.4537620000000  0.5760630000000  0.5338350000000 1.0
C      1  0.4759020000000  0.4948670000000  0.5596030000000 1.0
C      1  0.5183690000000  0.4651110000000  0.4887400000000 1.0
C      1  0.4645020000000  0.4235900000000  0.5668820000000 1.0
C      1  0.4925600000000  0.4283710000000  0.5728590000000 1.0
C      1  0.5545950000000  0.4316940000000  0.4554680000000 1.0
C      1  0.4872540000000  0.5778670000000  0.5422700000000 1.0
C      1  0.4212170000000  0.5354410000000  0.5198440000000 1.0
C      1  0.5994460000000  0.4543820000000  0.5118100000000 1.0
C      1  0.5772360000000  0.5099040000000  0.6164480000000 1.0
C      1  0.5917560000000  0.5424860000000  0.4234330000000 1.0
C      1  0.4721100000000  0.5058000000000  0.4993850000000 1.0
C      1  0.5096850000000  0.5264840000000  0.4449630000000 1.0
C      1  0.5122680000000  0.4287950000000  0.4345380000000 1.0
C      1  0.5602370000000  0.4588540000000  0.4518340000000 1.0
C      1  0.5446120000000  0.5306260000000  0.4102840000000 1.0
C      1  0.4951660000000  0.4612570000000  0.4715720000000 1.0
C      1  0.5589560000000  0.5146050000000  0.5984800000000 1.0
C      1  0.4970380000000  0.5748550000000  0.4356310000000 1.0
C      1  0.5854930000000  0.5021960000000  0.5182720000000 1.0
C      1  0.4600920000000  0.5296930000000  0.4878220000000 1.0
C      1  0.5289480000000  0.4203910000000  0.4569010000000 1.0
C      1  0.6161920000000  0.5518450000000  0.4677740000000 1.0
C      1  0.4793200000000  0.4374570000000  0.4710680000000 1.0
C      1  0.4353860000000  0.5532290000000  0.4431300000000 1.0
C      1  0.4722370000000  0.5372200000000  0.5290780000000 1.0
C      1  0.5856380000000  0.4763190000000  0.5033770000000 1.0
C      1  0.4282400000000  0.4856010000000  0.5012520000000 1.0
C      1  0.5391460000000  0.5188120000000  0.5793420000000 1.0
C      1  0.4650130000000  0.4219850000000  0.3804290000000 1.0
C      1  0.4995190000000  0.5081490000000  0.4642990000000 1.0
C      1  0.4296090000000  0.5706670000000  0.4633240000000 1.0
END
