TITL C-3623284-6838-88 137.297584114442 125000 -1082.02676320635 0 0 183 (C1) n - 1
REM
REM in /home/nfs/bkarasulu/CARBON/AIRSS/Generating-Clusters/LCBOP/Higher-Symm/SD-CG/FIRE-CG
REM
REM
REM
REM
REM
REM ./C.cell (b20cbc046b6831c77cfcea5457e17084)
REM AIRSS Version 0.9.1 bugfix July 2018 build 013d7b7c2542+ Fri, 06 Jul 2018 19:26:36 +0100
REM compiler GCC version 9.2.1 20190827 (Red Hat 9.2.1-1)
REM options -cpp -mtune=generic -march=x86-64 -g -O0 -fpre-include=/usr/include/finclude/math-vector-fortran.h
REM seed -1041287675 204569039 475998011 -786447818 -2079918903 728925405 272673544 614220270 -1737323375 1688613373 -1467751382 1368473796 93163849 -1992623258 -142326709 792112515 -2030289859 1694987111 1763727225 -561754095 -583913588 -1966334475 1018342920 1638818772 675031614 1614707709 603635785 1057210304 1993133732 641082179 1127088433 -668924570 -1597880611
REM
CELL 1.54180   50.00000   50.00000   50.00000   90.00000   90.00000   90.00000
LATT -1
SFAC C  
C      1  0.4232240000000  0.5846290000000  0.5165980000000 1.0
C      1  0.4220160000000  0.4189870000000  0.4850190000000 1.0
C      1  0.5773130000000  0.5821690000000  0.5185750000000 1.0
C      1  0.5766170000000  0.4168960000000  0.4846310000000 1.0
C      1  0.4240640000000  0.5846910000000  0.4859540000000 1.0
C      1  0.4215820000000  0.4187230000000  0.5158560000000 1.0
C      1  0.5780240000000  0.5842240000000  0.4878080000000 1.0
C      1  0.5763730000000  0.4170820000000  0.5152170000000 1.0
C      1  0.4089530000000  0.5285970000000  0.4127470000000 1.0
C      1  0.4286900000000  0.4543800000000  0.5893860000000 1.0
C      1  0.5934440000000  0.5251670000000  0.4124850000000 1.0
C      1  0.5925150000000  0.4740640000000  0.5843150000000 1.0
C      1  0.4028600000000  0.5208110000000  0.5853680000000 1.0
C      1  0.4287550000000  0.4592110000000  0.4122390000000 1.0
C      1  0.5720060000000  0.5419480000000  0.5882730000000 1.0
C      1  0.5691130000000  0.4576840000000  0.4097120000000 1.0
C      1  0.4431310000000  0.4571160000000  0.4672620000000 1.0
C      1  0.4430080000000  0.5462530000000  0.5339670000000 1.0
C      1  0.5565010000000  0.4544610000000  0.4668300000000 1.0
C      1  0.5566590000000  0.5424630000000  0.5332180000000 1.0
C      1  0.4422070000000  0.4568350000000  0.5306150000000 1.0
C      1  0.4452340000000  0.5465610000000  0.4681930000000 1.0
C      1  0.5560160000000  0.4552770000000  0.5324170000000 1.0
C      1  0.5609800000000  0.5474420000000  0.4648650000000 1.0
C      1  0.5362460000000  0.4597960000000  0.6178260000000 1.0
C      1  0.5249510000000  0.5326440000000  0.3965510000000 1.0
C      1  0.4835930000000  0.4811940000000  0.6155910000000 1.0
C      1  0.4723770000000  0.5405890000000  0.3854470000000 1.0
C      1  0.5215680000000  0.4585130000000  0.3745220000000 1.0
C      1  0.5189200000000  0.5276270000000  0.6158850000000 1.0
C      1  0.4754090000000  0.4597810000000  0.3766930000000 1.0
C      1  0.4721070000000  0.5316360000000  0.6158030000000 1.0
C      1  0.4762100000000  0.6194730000000  0.5170430000000 1.0
C      1  0.4736780000000  0.3847030000000  0.4877750000000 1.0
C      1  0.5260770000000  0.6146660000000  0.5171290000000 1.0
C      1  0.5237970000000  0.3834630000000  0.4869340000000 1.0
C      1  0.4762990000000  0.6199210000000  0.4891260000000 1.0
C      1  0.4737780000000  0.3851350000000  0.5154930000000 1.0
C      1  0.5261210000000  0.6153570000000  0.4897310000000 1.0
C      1  0.5238220000000  0.3836500000000  0.5145780000000 1.0
C      1  0.5143000000000  0.4376310000000  0.3963040000000 1.0
C      1  0.5125800000000  0.5563830000000  0.6055500000000 1.0
C      1  0.4833650000000  0.4384110000000  0.3973230000000 1.0
C      1  0.4818760000000  0.5578890000000  0.6052300000000 1.0
C      1  0.5194640000000  0.4418790000000  0.6031980000000 1.0
C      1  0.5148740000000  0.5607300000000  0.4006380000000 1.0
C      1  0.4907670000000  0.4489700000000  0.6023210000000 1.0
C      1  0.4853050000000  0.5628810000000  0.3990080000000 1.0
C      1  0.5240470000000  0.4876480000000  0.5743340000000 1.0
C      1  0.5251090000000  0.5176230000000  0.4209470000000 1.0
C      1  0.4642170000000  0.4860180000000  0.5728340000000 1.0
C      1  0.4741480000000  0.5164300000000  0.4286310000000 1.0
C      1  0.5320290000000  0.4890450000000  0.4232210000000 1.0
C      1  0.5332960000000  0.5140550000000  0.5730010000000 1.0
C      1  0.4668110000000  0.4890480000000  0.4262370000000 1.0
C      1  0.4704720000000  0.5137260000000  0.5732820000000 1.0
C      1  0.3898940000000  0.5426490000000  0.5912470000000 1.0
C      1  0.4132670000000  0.4397080000000  0.4045000000000 1.0
C      1  0.5867450000000  0.5610140000000  0.5982270000000 1.0
C      1  0.5838060000000  0.4376060000000  0.4018930000000 1.0
C      1  0.3983480000000  0.5519860000000  0.4082770000000 1.0
C      1  0.4152790000000  0.4343930000000  0.5994250000000 1.0
C      1  0.6067880000000  0.5471750000000  0.4083530000000 1.0
C      1  0.6046540000000  0.4518330000000  0.5904750000000 1.0
C      1  0.5460320000000  0.4743250000000  0.5135150000000 1.0
C      1  0.5519720000000  0.5252220000000  0.4806300000000 1.0
C      1  0.4532510000000  0.4767670000000  0.5127980000000 1.0
C      1  0.4548530000000  0.5270190000000  0.4866290000000 1.0
C      1  0.5452020000000  0.4735060000000  0.4855160000000 1.0
C      1  0.5434600000000  0.5322820000000  0.5080070000000 1.0
C      1  0.4547100000000  0.4767320000000  0.4849840000000 1.0
C      1  0.4531820000000  0.5274200000000  0.5150160000000 1.0
C      1  0.5168180000000  0.4714170000000  0.4438920000000 1.0
C      1  0.5158430000000  0.5339580000000  0.5612800000000 1.0
C      1  0.4834570000000  0.4718590000000  0.4448700000000 1.0
C      1  0.4846690000000  0.5313890000000  0.5539140000000 1.0
C      1  0.5135430000000  0.4714830000000  0.5523580000000 1.0
C      1  0.5183150000000  0.5322520000000  0.4460130000000 1.0
C      1  0.4815450000000  0.4712100000000  0.5526400000000 1.0
C      1  0.4873900000000  0.5326210000000  0.4500770000000 1.0
C      1  0.5131950000000  0.4372750000000  0.4755580000000 1.0
C      1  0.5137820000000  0.5636290000000  0.5257310000000 1.0
C      1  0.4858840000000  0.4377230000000  0.4758470000000 1.0
C      1  0.4867260000000  0.5674510000000  0.5253570000000 1.0
C      1  0.5127810000000  0.4361480000000  0.5223260000000 1.0
C      1  0.5158850000000  0.5640080000000  0.4789660000000 1.0
C      1  0.4853690000000  0.4367710000000  0.5223770000000 1.0
C      1  0.4885770000000  0.5680410000000  0.4789450000000 1.0
C      1  0.5308690000000  0.5134720000000  0.4662130000000 1.0
C      1  0.5259650000000  0.4889460000000  0.5263520000000 1.0
C      1  0.4821730000000  0.5162760000000  0.4774300000000 1.0
C      1  0.4742340000000  0.4879770000000  0.5283260000000 1.0
C      1  0.5221710000000  0.5131170000000  0.5143210000000 1.0
C      1  0.5257970000000  0.4871450000000  0.4697540000000 1.0
C      1  0.4785410000000  0.5164300000000  0.5268740000000 1.0
C      1  0.4772410000000  0.4879530000000  0.4715590000000 1.0
C      1  0.4179530000000  0.5571990000000  0.5263600000000 1.0
C      1  0.4180830000000  0.4465730000000  0.4749570000000 1.0
C      1  0.5819870000000  0.5541400000000  0.5272780000000 1.0
C      1  0.5818070000000  0.4442770000000  0.4744250000000 1.0
C      1  0.4200300000000  0.5573600000000  0.4754770000000 1.0
C      1  0.4165420000000  0.4465650000000  0.5248600000000 1.0
C      1  0.5850740000000  0.5580560000000  0.4757300000000 1.0
C      1  0.5812260000000  0.4444670000000  0.5252250000000 1.0
C      1  0.3892180000000  0.4886020000000  0.5266640000000 1.0
C      1  0.3919900000000  0.5158350000000  0.4721850000000 1.0
C      1  0.6095350000000  0.4859490000000  0.5275430000000 1.0
C      1  0.6098730000000  0.5142030000000  0.4737120000000 1.0
C      1  0.3913660000000  0.4889490000000  0.4718420000000 1.0
C      1  0.3897710000000  0.5155030000000  0.5268280000000 1.0
C      1  0.6085130000000  0.4872500000000  0.4730520000000 1.0
C      1  0.6099360000000  0.5128280000000  0.5281090000000 1.0
C      1  0.4861640000000  0.6077040000000  0.5429660000000 1.0
C      1  0.4843780000000  0.3944440000000  0.4616070000000 1.0
C      1  0.5148360000000  0.6055660000000  0.5430120000000 1.0
C      1  0.5129750000000  0.3937620000000  0.4611980000000 1.0
C      1  0.4866470000000  0.6091180000000  0.4629450000000 1.0
C      1  0.4850380000000  0.3956410000000  0.5410990000000 1.0
C      1  0.5152540000000  0.6073090000000  0.4630110000000 1.0
C      1  0.5136990000000  0.3948400000000  0.5406840000000 1.0
C      1  0.5360280000000  0.5844750000000  0.5598870000000 1.0
C      1  0.5349970000000  0.4137340000000  0.4431760000000 1.0
C      1  0.4633170000000  0.5864740000000  0.5592110000000 1.0
C      1  0.4628410000000  0.4151420000000  0.4439640000000 1.0
C      1  0.5360390000000  0.5881410000000  0.4458960000000 1.0
C      1  0.5348580000000  0.4148180000000  0.5560300000000 1.0
C      1  0.4651990000000  0.5882440000000  0.4456900000000 1.0
C      1  0.4641680000000  0.4182420000000  0.5578540000000 1.0
C      1  0.4690050000000  0.5789280000000  0.5890390000000 1.0
C      1  0.4694890000000  0.4191710000000  0.4142230000000 1.0
C      1  0.5273010000000  0.5772680000000  0.5899290000000 1.0
C      1  0.5279820000000  0.4180930000000  0.4133030000000 1.0
C      1  0.4717190000000  0.5827240000000  0.4159300000000 1.0
C      1  0.4742130000000  0.4283170000000  0.5873790000000 1.0
C      1  0.5289720000000  0.5826390000000  0.4156350000000 1.0
C      1  0.5299900000000  0.4206210000000  0.5859590000000 1.0
C      1  0.4220780000000  0.5061510000000  0.4178710000000 1.0
C      1  0.4373290000000  0.4793010000000  0.5802670000000 1.0
C      1  0.5781240000000  0.5040280000000  0.4170220000000 1.0
C      1  0.5781140000000  0.4955410000000  0.5784720000000 1.0
C      1  0.4182210000000  0.4999340000000  0.5798140000000 1.0
C      1  0.4394710000000  0.4840820000000  0.4190160000000 1.0
C      1  0.5610810000000  0.5178500000000  0.5792560000000 1.0
C      1  0.5595730000000  0.4829310000000  0.4168220000000 1.0
C      1  0.5317810000000  0.5560840000000  0.5479190000000 1.0
C      1  0.5309260000000  0.4433750000000  0.4526740000000 1.0
C      1  0.4686580000000  0.5582650000000  0.5467270000000 1.0
C      1  0.4681630000000  0.4447070000000  0.4535100000000 1.0
C      1  0.5330870000000  0.5589030000000  0.4554180000000 1.0
C      1  0.5298070000000  0.4439070000000  0.5450070000000 1.0
C      1  0.4710880000000  0.5591900000000  0.4570080000000 1.0
C      1  0.4675240000000  0.4451100000000  0.5439180000000 1.0
C      1  0.5631730000000  0.5932780000000  0.5429310000000 1.0
C      1  0.5618650000000  0.4051340000000  0.4610340000000 1.0
C      1  0.4371190000000  0.5961310000000  0.5408140000000 1.0
C      1  0.4360160000000  0.4068660000000  0.4614500000000 1.0
C      1  0.5636530000000  0.5967260000000  0.4650560000000 1.0
C      1  0.5615820000000  0.4056620000000  0.5386720000000 1.0
C      1  0.4383550000000  0.5969440000000  0.4627190000000 1.0
C      1  0.4355700000000  0.4077350000000  0.5398140000000 1.0
C      1  0.5298560000000  0.5129600000000  0.3756430000000 1.0
C      1  0.5434600000000  0.4844400000000  0.6263230000000 1.0
C      1  0.4678870000000  0.5145880000000  0.3780440000000 1.0
C      1  0.4573180000000  0.4875390000000  0.6277990000000 1.0
C      1  0.5400470000000  0.5114650000000  0.6260860000000 1.0
C      1  0.5320560000000  0.4855110000000  0.3733950000000 1.0
C      1  0.4510230000000  0.5149470000000  0.6270550000000 1.0
C      1  0.4663030000000  0.4872270000000  0.3771980000000 1.0
C      1  0.3991420000000  0.5391510000000  0.5145160000000 1.0
C      1  0.3987240000000  0.4650660000000  0.4849940000000 1.0
C      1  0.6017000000000  0.5369500000000  0.5159050000000 1.0
C      1  0.6004110000000  0.4630470000000  0.4854730000000 1.0
C      1  0.4003720000000  0.5392340000000  0.4856080000000 1.0
C      1  0.3976840000000  0.4648960000000  0.5138510000000 1.0
C      1  0.6028790000000  0.5383790000000  0.4870030000000 1.0
C      1  0.6005130000000  0.4626300000000  0.5144190000000 1.0
C      1  0.4754550000000  0.5752970000000  0.5018170000000 1.0
C      1  0.5256290000000  0.4301240000000  0.4989400000000 1.0
C      1  0.4729310000000  0.4307010000000  0.4988690000000 1.0
C      1  0.5271150000000  0.5570670000000  0.5024890000000 1.0
C      1  0.4947270000000  0.5107020000000  0.6139330000000 1.0
C      1  0.4975080000000  0.4568470000000  0.3575940000000 1.0
C      1  0.4971040000000  0.5185920000000  0.5036900000000 1.0
END
