TITL C-3623282-6910-2024 -0.0370554885490019 125000 -416.368727302098 0 0 70 (C1) n - 1
REM
REM in /home/nfs/bkarasulu/CARBON/AIRSS/Generating-Clusters/LCBOP/Higher-Symm/SD-CG/FIRE-CG
REM
REM
REM
REM
REM
REM ./C.cell (b20cbc046b6831c77cfcea5457e17084)
REM AIRSS Version 0.9.1 bugfix July 2018 build 013d7b7c2542+ Fri, 06 Jul 2018 19:26:36 +0100
REM compiler GCC version 9.2.1 20190827 (Red Hat 9.2.1-1)
REM options -cpp -mtune=generic -march=x86-64 -g -O0 -fpre-include=/usr/include/finclude/math-vector-fortran.h
REM seed 1270160431 1197022736 1900197555 -1878660148 1247520740 -867831145 -1979831954 -848991667 -818117886 -1085691036 138670451 1901058829 1804603781 -1679284895 -1812541359 573717207 2120268417 -1400674266 -25317629 908472088 -28207917 812163549 -2089072702 684189416 -1932017107 1060002207 1668668002 282142971 529001753 841764693 -1416558444 -1508337014 -568789470
REM
CELL 1.54180   50.00000   50.00000   50.00000   90.00000   90.00000   90.00000
LATT -1
SFAC C  
C      1  0.5220530000000  0.4912040000000  0.4367930000000 1.0
C      1  0.4779070000000  0.5090420000000  0.5630550000000 1.0
C      1  0.4291710000000  0.5268940000000  0.5125100000000 1.0
C      1  0.5708810000000  0.4732620000000  0.4877530000000 1.0
C      1  0.5178020000000  0.5541370000000  0.5314510000000 1.0
C      1  0.4822180000000  0.4459850000000  0.4684880000000 1.0
C      1  0.4756900000000  0.4580430000000  0.5611250000000 1.0
C      1  0.5241930000000  0.5421940000000  0.4388310000000 1.0
C      1  0.4503660000000  0.4621690000000  0.5468540000000 1.0
C      1  0.5490910000000  0.5384820000000  0.4532270000000 1.0
C      1  0.5640650000000  0.4790930000000  0.4601040000000 1.0
C      1  0.4361270000000  0.5215120000000  0.5398010000000 1.0
C      1  0.4992350000000  0.4614960000000  0.5446050000000 1.0
C      1  0.5004980000000  0.5387180000000  0.4551710000000 1.0
C      1  0.5382090000000  0.4184570000000  0.4777590000000 1.0
C      1  0.4618620000000  0.5818380000000  0.5222300000000 1.0
C      1  0.4925140000000  0.4319000000000  0.4917640000000 1.0
C      1  0.5074900000000  0.5682620000000  0.5082200000000 1.0
C      1  0.5901770000000  0.5125750000000  0.5486140000000 1.0
C      1  0.4098140000000  0.4875090000000  0.4514240000000 1.0
C      1  0.4859990000000  0.5289150000000  0.4777840000000 1.0
C      1  0.5138620000000  0.4713150000000  0.5220850000000 1.0
C      1  0.4788760000000  0.5687670000000  0.5038810000000 1.0
C      1  0.5211270000000  0.4314310000000  0.4961100000000 1.0
C      1  0.4669540000000  0.4942620000000  0.5096240000000 1.0
C      1  0.5329580000000  0.5059430000000  0.4902010000000 1.0
C      1  0.5908020000000  0.5126250000000  0.4345370000000 1.0
C      1  0.4096900000000  0.4840520000000  0.5655170000000 1.0
C      1  0.5469600000000  0.5497270000000  0.4792580000000 1.0
C      1  0.4529830000000  0.4504820000000  0.5206060000000 1.0
C      1  0.5596040000000  0.4635760000000  0.5120980000000 1.0
C      1  0.4403140000000  0.5365860000000  0.4880780000000 1.0
C      1  0.5226830000000  0.5317560000000  0.4127030000000 1.0
C      1  0.4774260000000  0.4685100000000  0.5872450000000 1.0
C      1  0.6110770000000  0.5278740000000  0.5457420000000 1.0
C      1  0.3889490000000  0.4721430000000  0.4541890000000 1.0
C      1  0.5328240000000  0.4528290000000  0.5114180000000 1.0
C      1  0.4670990000000  0.5473860000000  0.4886000000000 1.0
C      1  0.4303310000000  0.5299470000000  0.4619100000000 1.0
C      1  0.5694890000000  0.4701700000000  0.5383090000000 1.0
C      1  0.4727590000000  0.4981320000000  0.5373580000000 1.0
C      1  0.5271260000000  0.5021810000000  0.4624700000000 1.0
C      1  0.5261690000000  0.5263950000000  0.5687540000000 1.0
C      1  0.4738570000000  0.4738950000000  0.4313100000000 1.0
C      1  0.5447160000000  0.5072840000000  0.5636680000000 1.0
C      1  0.4552790000000  0.4929680000000  0.4364560000000 1.0
C      1  0.4931070000000  0.4559410000000  0.4439990000000 1.0
C      1  0.5069390000000  0.5442820000000  0.5559850000000 1.0
C      1  0.5205570000000  0.4630760000000  0.4392120000000 1.0
C      1  0.4794820000000  0.5371700000000  0.5607350000000 1.0
C      1  0.5211950000000  0.5047460000000  0.4121310000000 1.0
C      1  0.4789220000000  0.4955240000000  0.5877370000000 1.0
C      1  0.5277000000000  0.5704870000000  0.4870130000000 1.0
C      1  0.4723060000000  0.4297410000000  0.5130130000000 1.0
C      1  0.4532070000000  0.4709270000000  0.5005780000000 1.0
C      1  0.5467710000000  0.5292330000000  0.4992490000000 1.0
C      1  0.4324190000000  0.4874000000000  0.5510290000000 1.0
C      1  0.5684900000000  0.5083600000000  0.4494160000000 1.0
C      1  0.5816430000000  0.4503030000000  0.5529300000000 1.0
C      1  0.4179430000000  0.5497520000000  0.4473970000000 1.0
C      1  0.4523990000000  0.5437760000000  0.5518170000000 1.0
C      1  0.5476700000000  0.4565630000000  0.4481690000000 1.0
C      1  0.4579120000000  0.4599340000000  0.4752270000000 1.0
C      1  0.5420650000000  0.5401360000000  0.5246470000000 1.0
C      1  0.5121970000000  0.4950300000000  0.5055870000000 1.0
C      1  0.4877130000000  0.5051650000000  0.4942260000000 1.0
C      1  0.4487980000000  0.5703910000000  0.5429330000000 1.0
C      1  0.5513450000000  0.4299770000000  0.4571420000000 1.0
C      1  0.4326860000000  0.5038190000000  0.4500030000000 1.0
C      1  0.5672610000000  0.4963410000000  0.5501300000000 1.0
END
