TITL C-3623288-6813-664 0.195726901441206 125000 -74.729071374973 0 0 14 (C2v) n - 1
REM
REM in /home/nfs/bkarasulu/CARBON/AIRSS/Generating-Clusters/LCBOP/Higher-Symm/SD-CG/FIRE-CG
REM
REM
REM
REM
REM
REM ./C.cell (b20cbc046b6831c77cfcea5457e17084)
REM AIRSS Version 0.9.1 bugfix July 2018 build 013d7b7c2542+ Fri, 06 Jul 2018 19:26:36 +0100
REM compiler GCC version 9.2.1 20190827 (Red Hat 9.2.1-1)
REM options -cpp -mtune=generic -march=x86-64 -g -O0 -fpre-include=/usr/include/finclude/math-vector-fortran.h
REM seed 494621529 471554207 1214915011 -1025349822 -591772803 1809525878 829099733 -519898698 -749827115 1018749117 2068082575 1851912020 -2007578728 1177735439 1781550544 21521750 688960778 -80633665 328898161 585024508 -1508021317 336483439 1345747928 1147933042 -507093381 1958590219 81040221 1260254480 1872053992 2008928307 -943699656 724305314 1764320239
REM
CELL 1.54180   50.00000   50.00000   50.00000   90.00000   90.00000   90.00000
LATT -1
SFAC C  
C      1  0.4961410000000  0.4940390000000  0.4602510000000 1.0
C      1  0.4961410000000  0.4940390000000  0.5397490000000 1.0
C      1  0.5220980000000  0.5341290000000  0.3800040000000 1.0
C      1  0.5220970000000  0.5341280000000  0.6199970000000 1.0
C      1  0.4961400000000  0.4940390000000  0.5132500000000 1.0
C      1  0.4961400000000  0.4940390000000  0.4867500000000 1.0
C      1  0.4835420000000  0.4745820000000  0.3917520000000 1.0
C      1  0.4835420000000  0.4745810000000  0.6082480000000 1.0
C      1  0.4962970000000  0.4942820000000  0.4058020000000 1.0
C      1  0.4962970000000  0.4942810000000  0.5941980000000 1.0
C      1  0.4961550000000  0.4940610000000  0.5662370000000 1.0
C      1  0.4961550000000  0.4940610000000  0.4337630000000 1.0
C      1  0.5096270000000  0.5148690000000  0.6076340000000 1.0
C      1  0.5096280000000  0.5148700000000  0.3923660000000 1.0
END
