TITL C-3623283-6828-830 12835.6257538994 125000 -1150.669354162 0 0 191 (C1) n - 1
REM
REM in /home/nfs/bkarasulu/CARBON/AIRSS/Generating-Clusters/LCBOP/Higher-Symm/SD-CG/FIRE-CG
REM
REM
REM
REM
REM
REM ./C.cell (b20cbc046b6831c77cfcea5457e17084)
REM AIRSS Version 0.9.1 bugfix July 2018 build 013d7b7c2542+ Fri, 06 Jul 2018 19:26:36 +0100
REM compiler GCC version 9.2.1 20190827 (Red Hat 9.2.1-1)
REM options -cpp -mtune=generic -march=x86-64 -g -O0 -fpre-include=/usr/include/finclude/math-vector-fortran.h
REM seed -1067746594 -649373545 896362721 1144129003 -972485982 -165903536 -1544586964 -71784136 -564385202 2028568653 1117000239 1174976255 -733082956 -269923860 -1313095101 -1542727562 -1044774588 -659421206 -433456692 1636302869 -779582679 -261359322 1927166537 -1737513599 -1897816969 499018368 -389109785 1219810376 1666865893 829075144 -99962335 -1992120068 -2081767442
REM
CELL 1.54180   50.00000   50.00000   50.00000   90.00000   90.00000   90.00000
LATT -1
SFAC C  
C      1  0.4301770000000  0.4353940000000  0.4358240000000 1.0
C      1  0.4286130000000  0.4526800000000  0.5385410000000 1.0
C      1  0.5104670000000  0.4356600000000  0.4500950000000 1.0
C      1  0.5049430000000  0.4374710000000  0.5277040000000 1.0
C      1  0.4944460000000  0.5582670000000  0.4422180000000 1.0
C      1  0.4993300000000  0.5617030000000  0.5610570000000 1.0
C      1  0.4880910000000  0.6218520000000  0.4562050000000 1.0
C      1  0.4921360000000  0.6067970000000  0.5410460000000 1.0
C      1  0.4937060000000  0.4565610000000  0.3789330000000 1.0
C      1  0.4914220000000  0.4517530000000  0.6085530000000 1.0
C      1  0.4828190000000  0.4845140000000  0.3756470000000 1.0
C      1  0.4835080000000  0.4800760000000  0.6162220000000 1.0
C      1  0.3608450000000  0.5662670000000  0.5838330000000 1.0
C      1  0.3756700000000  0.5339920000000  0.4252250000000 1.0
C      1  0.5080820000000  0.5794630000000  0.4284690000000 1.0
C      1  0.5087670000000  0.5875990000000  0.5558360000000 1.0
C      1  0.5051350000000  0.5113390000000  0.3827690000000 1.0
C      1  0.5093430000000  0.5059010000000  0.6167780000000 1.0
C      1  0.5840120000000  0.4632990000000  0.5589020000000 1.0
C      1  0.5735550000000  0.4600460000000  0.4604240000000 1.0
C      1  0.5041410000000  0.5331520000000  0.4338800000000 1.0
C      1  0.5144060000000  0.5398580000000  0.5701820000000 1.0
C      1  0.5907150000000  0.4387670000000  0.4534600000000 1.0
C      1  0.5963620000000  0.4375560000000  0.5608170000000 1.0
C      1  0.5024410000000  0.4025490000000  0.4135320000000 1.0
C      1  0.5063870000000  0.4071880000000  0.5667180000000 1.0
C      1  0.5323700000000  0.5282420000000  0.5508380000000 1.0
C      1  0.5193120000000  0.5198060000000  0.4528520000000 1.0
C      1  0.4348010000000  0.4784490000000  0.4146440000000 1.0
C      1  0.4395230000000  0.4910150000000  0.5731440000000 1.0
C      1  0.5852030000000  0.5499570000000  0.4763370000000 1.0
C      1  0.5917640000000  0.5534800000000  0.5329060000000 1.0
C      1  0.5181800000000  0.4224630000000  0.4262340000000 1.0
C      1  0.5168020000000  0.4301030000000  0.5532410000000 1.0
C      1  0.4951790000000  0.4971070000000  0.5749580000000 1.0
C      1  0.4837800000000  0.4956590000000  0.4190490000000 1.0
C      1  0.5606850000000  0.4317390000000  0.6191380000000 1.0
C      1  0.5575750000000  0.4339880000000  0.3984780000000 1.0
C      1  0.5352730000000  0.5304410000000  0.5223790000000 1.0
C      1  0.5220260000000  0.5320010000000  0.4773800000000 1.0
C      1  0.5946790000000  0.5030910000000  0.4797120000000 1.0
C      1  0.6021180000000  0.5053920000000  0.5324020000000 1.0
C      1  0.4728330000000  0.5540870000000  0.5528650000000 1.0
C      1  0.4675060000000  0.5596670000000  0.4489850000000 1.0
C      1  0.4663350000000  0.4129840000000  0.5458540000000 1.0
C      1  0.4550710000000  0.3996800000000  0.4143980000000 1.0
C      1  0.5817150000000  0.3944730000000  0.5330170000000 1.0
C      1  0.6019210000000  0.3996940000000  0.4835750000000 1.0
C      1  0.5331320000000  0.5196970000000  0.3870420000000 1.0
C      1  0.5370620000000  0.5170520000000  0.6185580000000 1.0
C      1  0.4644960000000  0.6006260000000  0.5379630000000 1.0
C      1  0.4657400000000  0.6095590000000  0.4482590000000 1.0
C      1  0.4698510000000  0.4905610000000  0.4429760000000 1.0
C      1  0.4895630000000  0.5031420000000  0.5472970000000 1.0
C      1  0.5108740000000  0.3755320000000  0.4123190000000 1.0
C      1  0.5133290000000  0.3820740000000  0.5547010000000 1.0
C      1  0.5624530000000  0.5309300000000  0.4327530000000 1.0
C      1  0.5724010000000  0.5377700000000  0.5798220000000 1.0
C      1  0.4798870000000  0.5506880000000  0.3971150000000 1.0
C      1  0.4809610000000  0.5416710000000  0.6064890000000 1.0
C      1  0.5804280000000  0.4881620000000  0.4590190000000 1.0
C      1  0.5922990000000  0.4916560000000  0.5565100000000 1.0
C      1  0.4990990000000  0.5218010000000  0.5920780000000 1.0
C      1  0.4911560000000  0.5227450000000  0.4081890000000 1.0
C      1  0.4365360000000  0.4633140000000  0.5641330000000 1.0
C      1  0.4304560000000  0.4495920000000  0.4102610000000 1.0
C      1  0.5574320000000  0.5818760000000  0.5537550000000 1.0
C      1  0.5496910000000  0.5782850000000  0.4569150000000 1.0
C      1  0.4531980000000  0.5389300000000  0.6087640000000 1.0
C      1  0.4517670000000  0.5549410000000  0.3962640000000 1.0
C      1  0.5321270000000  0.4383970000000  0.4068390000000 1.0
C      1  0.5403720000000  0.4434900000000  0.6078070000000 1.0
C      1  0.4284740000000  0.5604680000000  0.4086920000000 1.0
C      1  0.4286790000000  0.5478190000000  0.6033660000000 1.0
C      1  0.5469190000000  0.5060770000000  0.5602990000000 1.0
C      1  0.5339430000000  0.4955700000000  0.4487400000000 1.0
C      1  0.5148940000000  0.4716180000000  0.4461280000000 1.0
C      1  0.5335020000000  0.4799060000000  0.5558670000000 1.0
C      1  0.5753250000000  0.5594570000000  0.5575060000000 1.0
C      1  0.5664060000000  0.5544030000000  0.4526310000000 1.0
C      1  0.4548810000000  0.5770030000000  0.5525020000000 1.0
C      1  0.4534400000000  0.5845970000000  0.4478380000000 1.0
C      1  0.4497670000000  0.4506690000000  0.5860020000000 1.0
C      1  0.4477380000000  0.4465750000000  0.3877680000000 1.0
C      1  0.4257280000000  0.5802990000000  0.4534130000000 1.0
C      1  0.4301550000000  0.5760880000000  0.5653810000000 1.0
C      1  0.5176040000000  0.4556350000000  0.5978810000000 1.0
C      1  0.5151500000000  0.4588530000000  0.3976030000000 1.0
C      1  0.5143440000000  0.6144650000000  0.4647250000000 1.0
C      1  0.5181220000000  0.6174990000000  0.5188360000000 1.0
C      1  0.5496050000000  0.4549570000000  0.4763930000000 1.0
C      1  0.5556260000000  0.4607970000000  0.5552600000000 1.0
C      1  0.5118650000000  0.4875550000000  0.5341300000000 1.0
C      1  0.4905450000000  0.4816560000000  0.4602610000000 1.0
C      1  0.4685480000000  0.5248770000000  0.5486200000000 1.0
C      1  0.4523610000000  0.5358550000000  0.4544000000000 1.0
C      1  0.4479220000000  0.4466500000000  0.5174870000000 1.0
C      1  0.4365090000000  0.4539470000000  0.4585340000000 1.0
C      1  0.4610820000000  0.3914590000000  0.5275980000000 1.0
C      1  0.4376180000000  0.4084310000000  0.4330720000000 1.0
C      1  0.4145330000000  0.5637280000000  0.5851100000000 1.0
C      1  0.4137960000000  0.5632420000000  0.4331660000000 1.0
C      1  0.4737950000000  0.4356810000000  0.3858670000000 1.0
C      1  0.4727350000000  0.4357960000000  0.5918230000000 1.0
C      1  0.5152900000000  0.4761240000000  0.5787690000000 1.0
C      1  0.5061100000000  0.4763850000000  0.4177230000000 1.0
C      1  0.5156480000000  0.3639420000000  0.3879680000000 1.0
C      1  0.5065970000000  0.3581590000000  0.5661060000000 1.0
C      1  0.4441060000000  0.4794490000000  0.4423530000000 1.0
C      1  0.4441230000000  0.5139660000000  0.5585560000000 1.0
C      1  0.6112850000000  0.5324330000000  0.5361860000000 1.0
C      1  0.6041170000000  0.5288100000000  0.4718140000000 1.0
C      1  0.5282360000000  0.3832450000000  0.5297550000000 1.0
C      1  0.5142050000000  0.3613510000000  0.4355130000000 1.0
C      1  0.5736720000000  0.5102370000000  0.5688320000000 1.0
C      1  0.5612700000000  0.5036250000000  0.4445810000000 1.0
C      1  0.6019090000000  0.4156140000000  0.4615770000000 1.0
C      1  0.5919040000000  0.4114300000000  0.5540070000000 1.0
C      1  0.3868390000000  0.5661110000000  0.5857180000000 1.0
C      1  0.3967320000000  0.5416930000000  0.4408720000000 1.0
C      1  0.4930610000000  0.5629870000000  0.6191480000000 1.0
C      1  0.4985060000000  0.5739820000000  0.4012410000000 1.0
C      1  0.5341010000000  0.5947660000000  0.5450910000000 1.0
C      1  0.5265000000000  0.5933480000000  0.4462460000000 1.0
C      1  0.4931890000000  0.4258630000000  0.4719720000000 1.0
C      1  0.4743870000000  0.4364240000000  0.5290620000000 1.0
C      1  0.5558240000000  0.5333000000000  0.6050480000000 1.0
C      1  0.5508070000000  0.5304780000000  0.4055990000000 1.0
C      1  0.4552300000000  0.4835110000000  0.3853260000000 1.0
C      1  0.4575720000000  0.4834880000000  0.6034170000000 1.0
C      1  0.4778400000000  0.4112580000000  0.4017650000000 1.0
C      1  0.4786980000000  0.4142360000000  0.5727670000000 1.0
C      1  0.3716730000000  0.4783640000000  0.5074360000000 1.0
C      1  0.3812900000000  0.5255100000000  0.4847230000000 1.0
C      1  0.5875470000000  0.4050180000000  0.5071220000000 1.0
C      1  0.4229240000000  0.5777540000000  0.4819790000000 1.0
C      1  0.4581040000000  0.5549920000000  0.5038710000000 1.0
C      1  0.6227780000000  0.6033290000000  0.5016490000000 1.0
C      1  0.6601310000000  0.5668770000000  0.5008880000000 1.0
C      1  0.3818860000000  0.5954140000000  0.5165730000000 1.0
C      1  0.5480820000000  0.6740350000000  0.4866180000000 1.0
C      1  0.5170920000000  0.3977930000000  0.5065910000000 1.0
C      1  0.5731010000000  0.4290610000000  0.5052960000000 1.0
C      1  0.3703120000000  0.5723470000000  0.5093890000000 1.0
C      1  0.6447910000000  0.5885000000000  0.5018640000000 1.0
C      1  0.4053380000000  0.6084460000000  0.5139360000000 1.0
C      1  0.4285050000000  0.5995840000000  0.5006010000000 1.0
C      1  0.4934490000000  0.3998660000000  0.4888000000000 1.0
C      1  0.5444970000000  0.4758680000000  0.4957200000000 1.0
C      1  0.4025660000000  0.5282240000000  0.4655450000000 1.0
C      1  0.4701040000000  0.3891080000000  0.5017620000000 1.0
C      1  0.4877030000000  0.5184700000000  0.5053550000000 1.0
C      1  0.4761790000000  0.4468580000000  0.4825610000000 1.0
C      1  0.6704160000000  0.5152810000000  0.4983930000000 1.0
C      1  0.3718740000000  0.5003560000000  0.4925120000000 1.0
C      1  0.5223680000000  0.6263520000000  0.4913270000000 1.0
C      1  0.5783630000000  0.5507010000000  0.5058760000000 1.0
C      1  0.5242270000000  0.4259000000000  0.5080260000000 1.0
C      1  0.5828860000000  0.5031980000000  0.5084900000000 1.0
C      1  0.6688620000000  0.4892680000000  0.4975200000000 1.0
C      1  0.4326860000000  0.5526170000000  0.4922850000000 1.0
C      1  0.5138010000000  0.5290600000000  0.5036740000000 1.0
C      1  0.4729020000000  0.5786050000000  0.5003530000000 1.0
C      1  0.6683290000000  0.5416910000000  0.4995440000000 1.0
C      1  0.5566270000000  0.3809500000000  0.5335440000000 1.0
C      1  0.3956900000000  0.3901020000000  0.5329110000000 1.0
C      1  0.4077180000000  0.3450160000000  0.5084430000000 1.0
C      1  0.4414080000000  0.5052630000000  0.4932430000000 1.0
C      1  0.5967430000000  0.6080680000000  0.4994650000000 1.0
C      1  0.4019450000000  0.4433350000000  0.5343390000000 1.0
C      1  0.4315420000000  0.5278720000000  0.4750450000000 1.0
C      1  0.3964690000000  0.4161360000000  0.5378550000000 1.0
C      1  0.5357670000000  0.6511950000000  0.4890050000000 1.0
C      1  0.5003770000000  0.5774890000000  0.4975470000000 1.0
C      1  0.4557490000000  0.6000890000000  0.5105440000000 1.0
C      1  0.4814930000000  0.4751820000000  0.4854150000000 1.0
C      1  0.5475240000000  0.4317830000000  0.4932570000000 1.0
C      1  0.3823500000000  0.4600800000000  0.5234860000000 1.0
C      1  0.5619300000000  0.5266560000000  0.5111800000000 1.0
C      1  0.5838470000000  0.4537650000000  0.5129020000000 1.0
C      1  0.5208670000000  0.4820340000000  0.5084370000000 1.0
C      1  0.5504560000000  0.5858680000000  0.4849520000000 1.0
C      1  0.3996420000000  0.3661230000000  0.5223100000000 1.0
C      1  0.4472030000000  0.4461520000000  0.4869180000000 1.0
C      1  0.3710060000000  0.5485460000000  0.4973270000000 1.0
C      1  0.5270470000000  0.5781420000000  0.4983160000000 1.0
C      1  0.4179120000000  0.3262810000000  0.4934480000000 1.0
C      1  0.4228590000000  0.4951930000000  0.5106200000000 1.0
C      1  0.4692400000000  0.4984280000000  0.4972900000000 1.0
C      1  0.5691940000000  0.4775650000000  0.5098280000000 1.0
C      1  0.5715000000000  0.6013790000000  0.4946800000000 1.0
END
