TITL C-3623289-7120-1266 6211.77138826798 125000 -856.412636992219 0 0 144 (C1) n - 1
REM
REM in /home/nfs/bkarasulu/CARBON/AIRSS/Generating-Clusters/LCBOP/Higher-Symm/SD-CG/FIRE-CG
REM
REM
REM
REM
REM
REM ./C.cell (b20cbc046b6831c77cfcea5457e17084)
REM AIRSS Version 0.9.1 bugfix July 2018 build 013d7b7c2542+ Fri, 06 Jul 2018 19:26:36 +0100
REM compiler GCC version 9.2.1 20190827 (Red Hat 9.2.1-1)
REM options -cpp -mtune=generic -march=x86-64 -g -O0 -fpre-include=/usr/include/finclude/math-vector-fortran.h
REM seed -571806575 1673291313 -725712499 759195954 -528394873 -448409674 322535920 383501866 -1037918915 1399252222 1123319450 1403186387 -1278393212 1847425203 -1807065303 -681696715 -255649251 651945847 -579538765 1607652548 1113985238 461875782 -2105687596 -316328638 -947177805 1886806643 1263358661 -1674064970 -11741961 -457595323 56169791 -1689118239 610841579
REM
CELL 1.54180   50.00000   50.00000   50.00000   90.00000   90.00000   90.00000
LATT -1
SFAC C  
C      1  0.5230620000000  0.5132820000000  0.4333020000000 1.0
C      1  0.4410380000000  0.5070330000000  0.4619620000000 1.0
C      1  0.4455880000000  0.5045150000000  0.5521070000000 1.0
C      1  0.5278710000000  0.5005020000000  0.5695930000000 1.0
C      1  0.5684330000000  0.5102840000000  0.4995340000000 1.0
C      1  0.4698660000000  0.4435060000000  0.6023890000000 1.0
C      1  0.5847400000000  0.4431150000000  0.5626300000000 1.0
C      1  0.5745200000000  0.4492800000000  0.4291110000000 1.0
C      1  0.4795320000000  0.4467340000000  0.3694420000000 1.0
C      1  0.3746160000000  0.4348410000000  0.5432110000000 1.0
C      1  0.4630360000000  0.5550650000000  0.4984130000000 1.0
C      1  0.4816230000000  0.5728650000000  0.5094870000000 1.0
C      1  0.5142080000000  0.5196380000000  0.5302820000000 1.0
C      1  0.5218330000000  0.5219040000000  0.4858620000000 1.0
C      1  0.5056100000000  0.5393280000000  0.4702510000000 1.0
C      1  0.4851080000000  0.4647420000000  0.6124000000000 1.0
C      1  0.5967970000000  0.4663890000000  0.5523960000000 1.0
C      1  0.5729520000000  0.4750960000000  0.4170490000000 1.0
C      1  0.4544750000000  0.4590900000000  0.3692540000000 1.0
C      1  0.3864590000000  0.4599180000000  0.5411900000000 1.0
C      1  0.5327650000000  0.4513250000000  0.4617000000000 1.0
C      1  0.4659740000000  0.4413790000000  0.4400660000000 1.0
C      1  0.4385670000000  0.4510560000000  0.5086010000000 1.0
C      1  0.4900230000000  0.4536720000000  0.5478730000000 1.0
C      1  0.5447010000000  0.4504220000000  0.5237300000000 1.0
C      1  0.4643990000000  0.5853080000000  0.4345440000000 1.0
C      1  0.4078480000000  0.5850480000000  0.5128050000000 1.0
C      1  0.4876600000000  0.5883580000000  0.5738170000000 1.0
C      1  0.5652480000000  0.5947310000000  0.5441470000000 1.0
C      1  0.5565530000000  0.5834260000000  0.4301500000000 1.0
C      1  0.5401290000000  0.4037010000000  0.4751540000000 1.0
C      1  0.4903120000000  0.3998600000000  0.4458540000000 1.0
C      1  0.4487510000000  0.4122570000000  0.4829410000000 1.0
C      1  0.4677590000000  0.4107720000000  0.5377390000000 1.0
C      1  0.5252600000000  0.4077890000000  0.5364120000000 1.0
C      1  0.5126300000000  0.4905440000000  0.4486920000000 1.0
C      1  0.4585290000000  0.4836340000000  0.4616360000000 1.0
C      1  0.4313560000000  0.4767060000000  0.5500730000000 1.0
C      1  0.5216760000000  0.4720240000000  0.5796100000000 1.0
C      1  0.5746650000000  0.4835750000000  0.5127650000000 1.0
C      1  0.5431770000000  0.6059910000000  0.4264340000000 1.0
C      1  0.4879150000000  0.5832740000000  0.4481610000000 1.0
C      1  0.4228410000000  0.5859160000000  0.4902790000000 1.0
C      1  0.4861060000000  0.6013280000000  0.5505800000000 1.0
C      1  0.5552360000000  0.6173490000000  0.5523530000000 1.0
C      1  0.4071420000000  0.5589670000000  0.5576520000000 1.0
C      1  0.5203400000000  0.5608260000000  0.5975550000000 1.0
C      1  0.5955480000000  0.5659340000000  0.5173300000000 1.0
C      1  0.6007360000000  0.5659400000000  0.4196020000000 1.0
C      1  0.4199220000000  0.5575360000000  0.4317520000000 1.0
C      1  0.4626170000000  0.5395230000000  0.4261730000000 1.0
C      1  0.4169500000000  0.5383620000000  0.5162210000000 1.0
C      1  0.4825210000000  0.5388960000000  0.5786970000000 1.0
C      1  0.5640050000000  0.5453060000000  0.5458020000000 1.0
C      1  0.5709940000000  0.5394170000000  0.4472430000000 1.0
C      1  0.4654030000000  0.5014700000000  0.4994280000000 1.0
C      1  0.4852990000000  0.4791070000000  0.5367550000000 1.0
C      1  0.5494420000000  0.4781080000000  0.5275160000000 1.0
C      1  0.5336290000000  0.4794750000000  0.4652460000000 1.0
C      1  0.4862610000000  0.4935390000000  0.4577570000000 1.0
C      1  0.5086440000000  0.5127360000000  0.4076380000000 1.0
C      1  0.4141940000000  0.5177290000000  0.4649170000000 1.0
C      1  0.4359190000000  0.5215870000000  0.5769080000000 1.0
C      1  0.5447940000000  0.5205030000000  0.5859230000000 1.0
C      1  0.5930480000000  0.5253190000000  0.4900360000000 1.0
C      1  0.5509310000000  0.4837210000000  0.3999970000000 1.0
C      1  0.4333370000000  0.4476190000000  0.3550470000000 1.0
C      1  0.4056460000000  0.4693650000000  0.5604730000000 1.0
C      1  0.5132620000000  0.4669280000000  0.6066890000000 1.0
C      1  0.5977710000000  0.4711340000000  0.5238400000000 1.0
C      1  0.4701580000000  0.3957520000000  0.4904520000000 1.0
C      1  0.4810100000000  0.3976670000000  0.5171530000000 1.0
C      1  0.5100410000000  0.3966510000000  0.5156770000000 1.0
C      1  0.5171460000000  0.3930980000000  0.4874850000000 1.0
C      1  0.4922690000000  0.3908020000000  0.4723090000000 1.0
C      1  0.5042880000000  0.5659740000000  0.4610950000000 1.0
C      1  0.4428040000000  0.5688700000000  0.4839870000000 1.0
C      1  0.4861070000000  0.5940670000000  0.5249360000000 1.0
C      1  0.5110190000000  0.5459980000000  0.5360670000000 1.0
C      1  0.5302250000000  0.6289410000000  0.4235860000000 1.0
C      1  0.6193300000000  0.4640030000000  0.5087040000000 1.0
C      1  0.5273250000000  0.4961920000000  0.3921840000000 1.0
C      1  0.4135340000000  0.4367550000000  0.3420450000000 1.0
C      1  0.4001630000000  0.4697680000000  0.5872460000000 1.0
C      1  0.5318220000000  0.4634840000000  0.6265240000000 1.0
C      1  0.4646920000000  0.4371440000000  0.5506110000000 1.0
C      1  0.5359570000000  0.4333940000000  0.5472160000000 1.0
C      1  0.5524440000000  0.4311270000000  0.4724700000000 1.0
C      1  0.4901940000000  0.4270940000000  0.4383960000000 1.0
C      1  0.4440210000000  0.4402540000000  0.4832860000000 1.0
C      1  0.4713700000000  0.4874060000000  0.6220710000000 1.0
C      1  0.5995190000000  0.4891650000000  0.5688940000000 1.0
C      1  0.5934300000000  0.4927480000000  0.4261030000000 1.0
C      1  0.4505470000000  0.4828510000000  0.3833660000000 1.0
C      1  0.3809260000000  0.4776020000000  0.5197540000000 1.0
C      1  0.4477260000000  0.5640030000000  0.4259220000000 1.0
C      1  0.4082610000000  0.5624860000000  0.5294390000000 1.0
C      1  0.4956390000000  0.5637080000000  0.5838580000000 1.0
C      1  0.5745320000000  0.5698420000000  0.5362410000000 1.0
C      1  0.5755090000000  0.5631480000000  0.4321590000000 1.0
C      1  0.5566080000000  0.4386620000000  0.5009480000000 1.0
C      1  0.5141510000000  0.4409670000000  0.4428880000000 1.0
C      1  0.4531230000000  0.4558170000000  0.4608790000000 1.0
C      1  0.4439670000000  0.4547640000000  0.5360470000000 1.0
C      1  0.5152970000000  0.4509300000000  0.5606700000000 1.0
C      1  0.4941230000000  0.5145850000000  0.5680990000000 1.0
C      1  0.5581520000000  0.5242960000000  0.5266390000000 1.0
C      1  0.5482590000000  0.5225480000000  0.4475740000000 1.0
C      1  0.4594300000000  0.5281110000000  0.4520580000000 1.0
C      1  0.4398590000000  0.5251740000000  0.5281030000000 1.0
C      1  0.6282160000000  0.5268170000000  0.4275680000000 1.0
C      1  0.4243470000000  0.5120430000000  0.4150450000000 1.0
C      1  0.3923060000000  0.5154400000000  0.5476400000000 1.0
C      1  0.5042990000000  0.5222640000000  0.6190350000000 1.0
C      1  0.6088390000000  0.5257570000000  0.5387900000000 1.0
C      1  0.4495580000000  0.5044730000000  0.4009470000000 1.0
C      1  0.3880340000000  0.5048560000000  0.5195700000000 1.0
C      1  0.4756640000000  0.5146760000000  0.6163900000000 1.0
C      1  0.5951920000000  0.5164640000000  0.5632560000000 1.0
C      1  0.6084330000000  0.5117310000000  0.4411850000000 1.0
C      1  0.4592560000000  0.4343220000000  0.5796560000000 1.0
C      1  0.5610780000000  0.4303140000000  0.5631700000000 1.0
C      1  0.5736320000000  0.4336260000000  0.4513440000000 1.0
C      1  0.5027000000000  0.4348080000000  0.3699690000000 1.0
C      1  0.3644200000000  0.4109490000000  0.5452880000000 1.0
C      1  0.4755570000000  0.4992620000000  0.5538260000000 1.0
C      1  0.5377440000000  0.5042050000000  0.5400260000000 1.0
C      1  0.5467130000000  0.5074770000000  0.4759840000000 1.0
C      1  0.4845530000000  0.5224930000000  0.4622530000000 1.0
C      1  0.4595640000000  0.5278820000000  0.5077810000000 1.0
C      1  0.5694980000000  0.5300930000000  0.5707810000000 1.0
C      1  0.5938400000000  0.5269860000000  0.4611120000000 1.0
C      1  0.4740860000000  0.5201870000000  0.4075990000000 1.0
C      1  0.4023660000000  0.5205010000000  0.4984620000000 1.0
C      1  0.4598120000000  0.5283200000000  0.5946120000000 1.0
C      1  0.4116420000000  0.5296400000000  0.4366100000000 1.0
C      1  0.4090860000000  0.5315410000000  0.5668180000000 1.0
C      1  0.5273790000000  0.5342990000000  0.6053480000000 1.0
C      1  0.6049450000000  0.5391740000000  0.5130250000000 1.0
C      1  0.6234240000000  0.5515290000000  0.4175800000000 1.0
C      1  0.4953630000000  0.4607240000000  0.4941150000000 1.0
C      1  0.5166990000000  0.6511270000000  0.4214750000000 1.0
C      1  0.4889810000000  0.4862120000000  0.5081230000000 1.0
C      1  0.5087330000000  0.5079940000000  0.5059990000000 1.0
END
