TITL C-3623283-6828-575 -4.13272122055829e-06 125000 -374.86113942764 0 0 60 (Td) n - 1
REM
REM in /home/nfs/bkarasulu/CARBON/AIRSS/Generating-Clusters/LCBOP/Higher-Symm/SD-CG/FIRE-CG
REM
REM
REM
REM
REM
REM ./C.cell (b20cbc046b6831c77cfcea5457e17084)
REM AIRSS Version 0.9.1 bugfix July 2018 build 013d7b7c2542+ Fri, 06 Jul 2018 19:26:36 +0100
REM compiler GCC version 9.2.1 20190827 (Red Hat 9.2.1-1)
REM options -cpp -mtune=generic -march=x86-64 -g -O0 -fpre-include=/usr/include/finclude/math-vector-fortran.h
REM seed -2118160777 802217767 296396341 -882753477 862727382 319254411 -684741020 -943180185 -239621914 140766387 880100458 -1901799920 -202672949 62308512 606272589 1730794707 1053548784 -1642796752 300023298 1444854086 -947718234 -764932388 -1186150517 2040089154 -1374370840 2106088270 -2046945778 -389326933 460407398 1779912946 -1303224961 2067177042 562640370
REM
CELL 1.54180   50.00000   50.00000   50.00000   90.00000   90.00000   90.00000
LATT -1
SFAC C  
C      1  0.5537140000000  0.5131270000000  0.5328580000000 1.0
C      1  0.5131270000000  0.5328580000000  0.5537140000000 1.0
C      1  0.5328580000000  0.5537140000000  0.5131270000000 1.0
C      1  0.4462860000000  0.4868730000000  0.5328580000000 1.0
C      1  0.5537140000000  0.4868730000000  0.4671420000000 1.0
C      1  0.4462860000000  0.5131270000000  0.4671420000000 1.0
C      1  0.4868730000000  0.4671420000000  0.5537140000000 1.0
C      1  0.5131270000000  0.4671420000000  0.4462860000000 1.0
C      1  0.4868730000000  0.5328580000000  0.4462860000000 1.0
C      1  0.4671420000000  0.4462860000000  0.5131270000000 1.0
C      1  0.5328580000000  0.4462860000000  0.4868730000000 1.0
C      1  0.4671420000000  0.5537140000000  0.4868730000000 1.0
C      1  0.5131270000000  0.5537140000000  0.5328580000000 1.0
C      1  0.5328580000000  0.5131270000000  0.5537140000000 1.0
C      1  0.5537140000000  0.5328580000000  0.5131270000000 1.0
C      1  0.4868730000000  0.4462860000000  0.5328580000000 1.0
C      1  0.4868730000000  0.5537140000000  0.4671420000000 1.0
C      1  0.5131270000000  0.4462860000000  0.4671420000000 1.0
C      1  0.4671420000000  0.4868730000000  0.5537140000000 1.0
C      1  0.4671420000000  0.5131270000000  0.4462860000000 1.0
C      1  0.5328580000000  0.4868730000000  0.4462860000000 1.0
C      1  0.4462860000000  0.4671420000000  0.5131270000000 1.0
C      1  0.4462860000000  0.5328580000000  0.4868730000000 1.0
C      1  0.5537140000000  0.4671420000000  0.4868730000000 1.0
C      1  0.4337510000000  0.4872660000000  0.4669800000000 1.0
C      1  0.4872660000000  0.4669800000000  0.4337510000000 1.0
C      1  0.4669800000000  0.4337510000000  0.4872660000000 1.0
C      1  0.5662490000000  0.5127340000000  0.4669800000000 1.0
C      1  0.4337510000000  0.5127340000000  0.5330200000000 1.0
C      1  0.5662490000000  0.4872660000000  0.5330200000000 1.0
C      1  0.5127340000000  0.5330200000000  0.4337510000000 1.0
C      1  0.4872660000000  0.5330200000000  0.5662490000000 1.0
C      1  0.5127340000000  0.4669800000000  0.5662490000000 1.0
C      1  0.5330200000000  0.5662490000000  0.4872660000000 1.0
C      1  0.4669800000000  0.5662490000000  0.5127340000000 1.0
C      1  0.5330200000000  0.4337510000000  0.5127340000000 1.0
C      1  0.4872660000000  0.4337510000000  0.4669800000000 1.0
C      1  0.4669800000000  0.4872660000000  0.4337510000000 1.0
C      1  0.4337510000000  0.4669800000000  0.4872660000000 1.0
C      1  0.5127340000000  0.5662490000000  0.4669800000000 1.0
C      1  0.5127340000000  0.4337510000000  0.5330200000000 1.0
C      1  0.4872660000000  0.5662490000000  0.5330200000000 1.0
C      1  0.5330200000000  0.5127340000000  0.4337510000000 1.0
C      1  0.5330200000000  0.4872660000000  0.5662490000000 1.0
C      1  0.4669800000000  0.5127340000000  0.5662490000000 1.0
C      1  0.5662490000000  0.5330200000000  0.4872660000000 1.0
C      1  0.5662490000000  0.4669800000000  0.5127340000000 1.0
C      1  0.4337510000000  0.5330200000000  0.5127340000000 1.0
C      1  0.5268350000000  0.5559650000000  0.4440350000000 1.0
C      1  0.5268350000000  0.4440350000000  0.5559650000000 1.0
C      1  0.4440350000000  0.5268350000000  0.5559650000000 1.0
C      1  0.5559650000000  0.4440350000000  0.5268350000000 1.0
C      1  0.4440350000000  0.5559650000000  0.5268350000000 1.0
C      1  0.5559650000000  0.5559650000000  0.4731650000000 1.0
C      1  0.4440350000000  0.4440350000000  0.4731650000000 1.0
C      1  0.5559650000000  0.4731650000000  0.5559650000000 1.0
C      1  0.4440350000000  0.4731650000000  0.4440350000000 1.0
C      1  0.5559650000000  0.5268350000000  0.4440350000000 1.0
C      1  0.4731650000000  0.4440350000000  0.4440350000000 1.0
C      1  0.4731650000000  0.5559650000000  0.5559650000000 1.0
END
