TITL C-3623283-6828-593 4962.07052229201 125000 -979.912324001127 0 0 159 (C1) n - 1
REM
REM in /home/nfs/bkarasulu/CARBON/AIRSS/Generating-Clusters/LCBOP/Higher-Symm/SD-CG/FIRE-CG
REM
REM
REM
REM
REM
REM ./C.cell (b20cbc046b6831c77cfcea5457e17084)
REM AIRSS Version 0.9.1 bugfix July 2018 build 013d7b7c2542+ Fri, 06 Jul 2018 19:26:36 +0100
REM compiler GCC version 9.2.1 20190827 (Red Hat 9.2.1-1)
REM options -cpp -mtune=generic -march=x86-64 -g -O0 -fpre-include=/usr/include/finclude/math-vector-fortran.h
REM seed 1258276196 1815242108 -1628725791 -64962351 86157987 1338691804 -279320057 -468885896 -1838474831 -1479699484 -1959630546 -522278869 79271756 -1110062730 475497921 1363194158 -988631982 907809382 -1144208029 -336683422 1740867534 -1294257183 -370843613 -1735929517 1124104469 -1710069541 183990514 -1373088246 1864309778 -2071137266 -2027295981 1437898756 1835027625
REM
CELL 1.54180   50.00000   50.00000   50.00000   90.00000   90.00000   90.00000
LATT -1
SFAC C  
C      1  0.5369680000000  0.5960180000000  0.4890670000000 1.0
C      1  0.5360480000000  0.4937720000000  0.6212980000000 1.0
C      1  0.5289460000000  0.4721880000000  0.5401100000000 1.0
C      1  0.4980830000000  0.3872820000000  0.4471160000000 1.0
C      1  0.5359870000000  0.4722420000000  0.5997220000000 1.0
C      1  0.5889200000000  0.4600800000000  0.4467460000000 1.0
C      1  0.4727270000000  0.4606240000000  0.6247780000000 1.0
C      1  0.3828430000000  0.4694530000000  0.5050360000000 1.0
C      1  0.3941580000000  0.4629230000000  0.5302580000000 1.0
C      1  0.4723090000000  0.6127470000000  0.4357500000000 1.0
C      1  0.5573400000000  0.3909670000000  0.5039790000000 1.0
C      1  0.5637330000000  0.4162920000000  0.4321750000000 1.0
C      1  0.4756920000000  0.4994770000000  0.5692330000000 1.0
C      1  0.5461960000000  0.4447080000000  0.4820390000000 1.0
C      1  0.5569960000000  0.5133160000000  0.5180630000000 1.0
C      1  0.4845320000000  0.4092680000000  0.5771070000000 1.0
C      1  0.5800610000000  0.3979620000000  0.4903680000000 1.0
C      1  0.4488920000000  0.5537840000000  0.4697450000000 1.0
C      1  0.4722170000000  0.4378360000000  0.5042590000000 1.0
C      1  0.5591810000000  0.5555940000000  0.5866990000000 1.0
C      1  0.4006830000000  0.5101450000000  0.5517280000000 1.0
C      1  0.3980650000000  0.6049350000000  0.5289350000000 1.0
C      1  0.4536810000000  0.4629430000000  0.3797650000000 1.0
C      1  0.4709330000000  0.4281230000000  0.4245510000000 1.0
C      1  0.5135320000000  0.5509450000000  0.5727010000000 1.0
C      1  0.5595440000000  0.4676200000000  0.5495650000000 1.0
C      1  0.5132220000000  0.4114150000000  0.5782790000000 1.0
C      1  0.3909050000000  0.4893980000000  0.4349170000000 1.0
C      1  0.4894990000000  0.6000600000000  0.4519190000000 1.0
C      1  0.5332390000000  0.5060580000000  0.3879500000000 1.0
C      1  0.3992750000000  0.5888010000000  0.5056360000000 1.0
C      1  0.5283410000000  0.4409680000000  0.3887240000000 1.0
C      1  0.4928800000000  0.4175710000000  0.4096850000000 1.0
C      1  0.4819810000000  0.4562660000000  0.3792200000000 1.0
C      1  0.4427670000000  0.5903300000000  0.5425080000000 1.0
C      1  0.5652960000000  0.4508940000000  0.5032510000000 1.0
C      1  0.4911350000000  0.5614060000000  0.5200120000000 1.0
C      1  0.4780800000000  0.4510790000000  0.4396170000000 1.0
C      1  0.5601130000000  0.5995100000000  0.5066490000000 1.0
C      1  0.5599720000000  0.5807920000000  0.4434500000000 1.0
C      1  0.5903600000000  0.4148570000000  0.4716710000000 1.0
C      1  0.5165930000000  0.5396360000000  0.5993270000000 1.0
C      1  0.4921720000000  0.5291560000000  0.3936990000000 1.0
C      1  0.5641170000000  0.4719970000000  0.4037060000000 1.0
C      1  0.4926930000000  0.4781920000000  0.6170180000000 1.0
C      1  0.5644410000000  0.4429310000000  0.5318510000000 1.0
C      1  0.4332190000000  0.5777310000000  0.4701370000000 1.0
C      1  0.5856460000000  0.5470920000000  0.5812350000000 1.0
C      1  0.4605260000000  0.4555880000000  0.4866360000000 1.0
C      1  0.4779330000000  0.5541440000000  0.4661070000000 1.0
C      1  0.5358700000000  0.5277470000000  0.4273940000000 1.0
C      1  0.4611480000000  0.5149990000000  0.5519520000000 1.0
C      1  0.5830180000000  0.4306720000000  0.4486740000000 1.0
C      1  0.5019580000000  0.4909240000000  0.5715320000000 1.0
C      1  0.5079660000000  0.4726990000000  0.5925260000000 1.0
C      1  0.4456290000000  0.6101040000000  0.4335300000000 1.0
C      1  0.5409170000000  0.4631540000000  0.4615860000000 1.0
C      1  0.5910250000000  0.5115160000000  0.5481820000000 1.0
C      1  0.5579690000000  0.4755730000000  0.5809410000000 1.0
C      1  0.4178470000000  0.5304740000000  0.5421100000000 1.0
C      1  0.5203340000000  0.6522770000000  0.5361740000000 1.0
C      1  0.5260260000000  0.5057860000000  0.4435000000000 1.0
C      1  0.5450220000000  0.5386400000000  0.6056520000000 1.0
C      1  0.3819410000000  0.5669500000000  0.5005770000000 1.0
C      1  0.5826740000000  0.5543530000000  0.5151150000000 1.0
C      1  0.5644720000000  0.5315580000000  0.4281840000000 1.0
C      1  0.6072850000000  0.5635980000000  0.5821090000000 1.0
C      1  0.5434760000000  0.4528140000000  0.4099740000000 1.0
C      1  0.4989320000000  0.5270260000000  0.6176790000000 1.0
C      1  0.5074450000000  0.4672360000000  0.5210770000000 1.0
C      1  0.4686040000000  0.4178530000000  0.5983090000000 1.0
C      1  0.4192640000000  0.6058100000000  0.5460240000000 1.0
C      1  0.3755300000000  0.5167400000000  0.4936760000000 1.0
C      1  0.5556690000000  0.4206320000000  0.5477720000000 1.0
C      1  0.5138970000000  0.4878650000000  0.3980780000000 1.0
C      1  0.4602130000000  0.5815370000000  0.5629440000000 1.0
C      1  0.5396700000000  0.4921770000000  0.4671450000000 1.0
C      1  0.5186960000000  0.5348610000000  0.4890320000000 1.0
C      1  0.5139940000000  0.5176760000000  0.5118020000000 1.0
C      1  0.3972900000000  0.4878320000000  0.4621460000000 1.0
C      1  0.5925410000000  0.5071300000000  0.4598920000000 1.0
C      1  0.4803540000000  0.3856200000000  0.4672680000000 1.0
C      1  0.5118960000000  0.6008480000000  0.5503930000000 1.0
C      1  0.5579040000000  0.4929620000000  0.3850860000000 1.0
C      1  0.4746660000000  0.4013250000000  0.5515050000000 1.0
C      1  0.5320540000000  0.4041280000000  0.5021190000000 1.0
C      1  0.5815010000000  0.4791210000000  0.4246760000000 1.0
C      1  0.4843360000000  0.5046530000000  0.4804990000000 1.0
C      1  0.5553500000000  0.5129250000000  0.6118140000000 1.0
C      1  0.4453090000000  0.4174660000000  0.4237640000000 1.0
C      1  0.4624440000000  0.5476640000000  0.5138680000000 1.0
C      1  0.4271820000000  0.4211000000000  0.5422250000000 1.0
C      1  0.3948620000000  0.4044810000000  0.4304530000000 1.0
C      1  0.4908700000000  0.5795240000000  0.4708880000000 1.0
C      1  0.4449630000000  0.5768500000000  0.5178230000000 1.0
C      1  0.5114290000000  0.4136450000000  0.5193490000000 1.0
C      1  0.5561830000000  0.4972650000000  0.4932840000000 1.0
C      1  0.5110900000000  0.4011650000000  0.4257900000000 1.0
C      1  0.4293970000000  0.5944430000000  0.4481250000000 1.0
C      1  0.4638310000000  0.4367960000000  0.6164810000000 1.0
C      1  0.4264370000000  0.5846000000000  0.4968300000000 1.0
C      1  0.5224140000000  0.5304280000000  0.4008610000000 1.0
C      1  0.4864550000000  0.5935920000000  0.5625410000000 1.0
C      1  0.5224160000000  0.4975840000000  0.5528110000000 1.0
C      1  0.4408700000000  0.5359410000000  0.4933750000000 1.0
C      1  0.5851660000000  0.4839670000000  0.5430880000000 1.0
C      1  0.4415240000000  0.5348350000000  0.5581130000000 1.0
C      1  0.5397370000000  0.4045040000000  0.4264710000000 1.0
C      1  0.4968150000000  0.3948690000000  0.5345730000000 1.0
C      1  0.4986400000000  0.4405300000000  0.5151990000000 1.0
C      1  0.4702100000000  0.5168560000000  0.5257260000000 1.0
C      1  0.5076510000000  0.5012200000000  0.6271930000000 1.0
C      1  0.4510850000000  0.5566410000000  0.5750200000000 1.0
C      1  0.5332030000000  0.5811260000000  0.5455880000000 1.0
C      1  0.5305710000000  0.4532390000000  0.4367320000000 1.0
C      1  0.4199560000000  0.4102400000000  0.4263710000000 1.0
C      1  0.5393330000000  0.5657920000000  0.5688280000000 1.0
C      1  0.5874330000000  0.5190810000000  0.5751300000000 1.0
C      1  0.5374730000000  0.4133650000000  0.5665000000000 1.0
C      1  0.5716710000000  0.5008310000000  0.5906940000000 1.0
C      1  0.5321870000000  0.5151420000000  0.5327220000000 1.0
C      1  0.4079330000000  0.4390270000000  0.5365230000000 1.0
C      1  0.4516480000000  0.4086720000000  0.5355950000000 1.0
C      1  0.5865980000000  0.5306690000000  0.4740380000000 1.0
C      1  0.5929820000000  0.4790670000000  0.4697730000000 1.0
C      1  0.5768670000000  0.4757840000000  0.4933300000000 1.0
C      1  0.4393030000000  0.5085820000000  0.4820000000000 1.0
C      1  0.5163840000000  0.6276210000000  0.5436300000000 1.0
C      1  0.4244160000000  0.4917190000000  0.4680370000000 1.0
C      1  0.4989030000000  0.5519570000000  0.5477480000000 1.0
C      1  0.5050050000000  0.5818820000000  0.4956870000000 1.0
C      1  0.5709750000000  0.5589220000000  0.4320910000000 1.0
C      1  0.5082310000000  0.4891030000000  0.4265720000000 1.0
C      1  0.5003710000000  0.4350390000000  0.3880120000000 1.0
C      1  0.5411830000000  0.5514430000000  0.4952250000000 1.0
C      1  0.3946230000000  0.4843140000000  0.5486400000000 1.0
C      1  0.4943830000000  0.5312750000000  0.4721340000000 1.0
C      1  0.5799860000000  0.5287460000000  0.5284450000000 1.0
C      1  0.4159310000000  0.5358150000000  0.5131940000000 1.0
C      1  0.5448890000000  0.5934960000000  0.4617600000000 1.0
C      1  0.4238590000000  0.4991150000000  0.3957630000000 1.0
C      1  0.4563780000000  0.5506020000000  0.6020060000000 1.0
C      1  0.4929840000000  0.4828380000000  0.3808320000000 1.0
C      1  0.4730240000000  0.5377220000000  0.6186080000000 1.0
C      1  0.4618520000000  0.4593290000000  0.4604260000000 1.0
C      1  0.5326910000000  0.4206990000000  0.4796900000000 1.0
C      1  0.3809320000000  0.4900130000000  0.4854790000000 1.0
C      1  0.4646670000000  0.3934650000000  0.4876730000000 1.0
C      1  0.3894940000000  0.5397270000000  0.5021140000000 1.0
C      1  0.5698040000000  0.5475420000000  0.4890700000000 1.0
C      1  0.4026490000000  0.4954450000000  0.4115950000000 1.0
C      1  0.4910230000000  0.4988650000000  0.5099520000000 1.0
C      1  0.4486380000000  0.4916990000000  0.3852130000000 1.0
C      1  0.4745960000000  0.5059370000000  0.3842990000000 1.0
C      1  0.5795350000000  0.5829690000000  0.5176820000000 1.0
C      1  0.5816350000000  0.5078040000000  0.4329810000000 1.0
C      1  0.5031830000000  0.4629270000000  0.4360040000000 1.0
C      1  0.4595740000000  0.4124830000000  0.5079540000000 1.0
C      1  0.5370120000000  0.5659920000000  0.5211710000000 1.0
END
