TITL C-3623286-7563-161 105016.593865229 125000 -1072.74835943965 0 0 177 (C1) n - 1
REM
REM in /home/nfs/bkarasulu/CARBON/AIRSS/Generating-Clusters/LCBOP/Higher-Symm/SD-CG/FIRE-CG
REM
REM
REM
REM
REM
REM ./C.cell (b20cbc046b6831c77cfcea5457e17084)
REM AIRSS Version 0.9.1 bugfix July 2018 build 013d7b7c2542+ Fri, 06 Jul 2018 19:26:36 +0100
REM compiler GCC version 9.2.1 20190827 (Red Hat 9.2.1-1)
REM options -cpp -mtune=generic -march=x86-64 -g -O0 -fpre-include=/usr/include/finclude/math-vector-fortran.h
REM seed 378901496 -513990142 387364526 -439345830 -151768731 1409530192 -1623805815 678205263 -948231793 514884277 -1027185124 587613292 1112999819 -1125210809 1579241071 250724709 562709776 -2054005476 -219290459 1806198866 -111006310 731055218 -1082619390 -1739149275 -761461322 1812458048 1097967710 1893978837 1533334408 1257485146 1434654477 143817984 1324962068
REM
CELL 1.54180   50.00000   50.00000   50.00000   90.00000   90.00000   90.00000
LATT -1
SFAC C  
C      1  0.5241040000000  0.6106350000000  0.4459410000000 1.0
C      1  0.4805660000000  0.3901710000000  0.4427870000000 1.0
C      1  0.4733490000000  0.6089470000000  0.5491340000000 1.0
C      1  0.5202070000000  0.3905700000000  0.5584760000000 1.0
C      1  0.5244490000000  0.4242620000000  0.5285440000000 1.0
C      1  0.4776830000000  0.5695030000000  0.5252960000000 1.0
C      1  0.4766010000000  0.4238360000000  0.4726680000000 1.0
C      1  0.5257010000000  0.5710090000000  0.4693040000000 1.0
C      1  0.5957370000000  0.5384220000000  0.4407280000000 1.0
C      1  0.4160510000000  0.4586000000000  0.4409370000000 1.0
C      1  0.3999580000000  0.5349130000000  0.5634270000000 1.0
C      1  0.5840170000000  0.4599700000000  0.5590770000000 1.0
C      1  0.6315300000000  0.4325510000000  0.4637210000000 1.0
C      1  0.3796480000000  0.5513760000000  0.4855450000000 1.0
C      1  0.3870230000000  0.4715040000000  0.5299180000000 1.0
C      1  0.6184300000000  0.5471420000000  0.5183840000000 1.0
C      1  0.4743470000000  0.4482910000000  0.5203610000000 1.0
C      1  0.5260170000000  0.5468320000000  0.5065140000000 1.0
C      1  0.5286970000000  0.4475270000000  0.4814620000000 1.0
C      1  0.4743550000000  0.5446100000000  0.4898820000000 1.0
C      1  0.5763760000000  0.4151170000000  0.4532180000000 1.0
C      1  0.4282440000000  0.5832150000000  0.4656140000000 1.0
C      1  0.4223730000000  0.4178670000000  0.5461190000000 1.0
C      1  0.5708990000000  0.5849470000000  0.5362690000000 1.0
C      1  0.5266130000000  0.4776850000000  0.3936360000000 1.0
C      1  0.4766870000000  0.5380940000000  0.3884030000000 1.0
C      1  0.4732110000000  0.4760690000000  0.6097170000000 1.0
C      1  0.5214590000000  0.5395430000000  0.6095890000000 1.0
C      1  0.5031620000000  0.5984920000000  0.4294320000000 1.0
C      1  0.5018070000000  0.4078520000000  0.4304030000000 1.0
C      1  0.4943770000000  0.5979460000000  0.5663660000000 1.0
C      1  0.4986370000000  0.4077100000000  0.5709430000000 1.0
C      1  0.4975900000000  0.4829590000000  0.4750610000000 1.0
C      1  0.5172220000000  0.5225560000000  0.4807840000000 1.0
C      1  0.5031290000000  0.4851770000000  0.5231080000000 1.0
C      1  0.4853990000000  0.5257290000000  0.5106300000000 1.0
C      1  0.4648930000000  0.5137340000000  0.3867420000000 1.0
C      1  0.5380870000000  0.5029520000000  0.3932720000000 1.0
C      1  0.5332210000000  0.5152540000000  0.6114860000000 1.0
C      1  0.4615440000000  0.5012200000000  0.6089530000000 1.0
C      1  0.3909370000000  0.4529000000000  0.6291190000000 1.0
C      1  0.6008700000000  0.5381610000000  0.6160640000000 1.0
C      1  0.6036280000000  0.4648990000000  0.3731280000000 1.0
C      1  0.3931600000000  0.5351580000000  0.3879340000000 1.0
C      1  0.4791140000000  0.5920380000000  0.4728600000000 1.0
C      1  0.5215120000000  0.4015930000000  0.4780020000000 1.0
C      1  0.5203380000000  0.5937500000000  0.5230150000000 1.0
C      1  0.4794220000000  0.4021750000000  0.5231360000000 1.0
C      1  0.4725050000000  0.5990150000000  0.5219560000000 1.0
C      1  0.5258290000000  0.3943370000000  0.5296450000000 1.0
C      1  0.5273010000000  0.6003100000000  0.4728520000000 1.0
C      1  0.4752720000000  0.3938330000000  0.4716970000000 1.0
C      1  0.5973070000000  0.5457420000000  0.5913880000000 1.0
C      1  0.3954790000000  0.4506730000000  0.6035550000000 1.0
C      1  0.3971420000000  0.5445550000000  0.4119120000000 1.0
C      1  0.6035450000000  0.4534580000000  0.3965430000000 1.0
C      1  0.4058580000000  0.4946420000000  0.5252720000000 1.0
C      1  0.5785290000000  0.5002870000000  0.5311410000000 1.0
C      1  0.5895690000000  0.4981070000000  0.4728910000000 1.0
C      1  0.4220420000000  0.4991460000000  0.4684200000000 1.0
C      1  0.4630400000000  0.5662830000000  0.5895660000000 1.0
C      1  0.5277490000000  0.4421920000000  0.5962030000000 1.0
C      1  0.5351770000000  0.5682900000000  0.4063300000000 1.0
C      1  0.4726860000000  0.4412630000000  0.4034580000000 1.0
C      1  0.5688710000000  0.5729890000000  0.5103530000000 1.0
C      1  0.4254750000000  0.4300620000000  0.5207000000000 1.0
C      1  0.4315850000000  0.5702340000000  0.4907080000000 1.0
C      1  0.5748880000000  0.4256330000000  0.4796390000000 1.0
C      1  0.4021020000000  0.4497340000000  0.5765450000000 1.0
C      1  0.5924920000000  0.5528730000000  0.5649140000000 1.0
C      1  0.6011860000000  0.4431700000000  0.4222870000000 1.0
C      1  0.4034110000000  0.5532270000000  0.4375960000000 1.0
C      1  0.5452290000000  0.4924270000000  0.5992420000000 1.0
C      1  0.4438270000000  0.5190100000000  0.5936160000000 1.0
C      1  0.4532360000000  0.4906490000000  0.3990800000000 1.0
C      1  0.5558430000000  0.5217000000000  0.4078150000000 1.0
C      1  0.5846390000000  0.5247410000000  0.4889510000000 1.0
C      1  0.4341740000000  0.4799710000000  0.4856880000000 1.0
C      1  0.4095830000000  0.5215480000000  0.5095260000000 1.0
C      1  0.5690720000000  0.4793270000000  0.5140000000000 1.0
C      1  0.5094780000000  0.5616650000000  0.5996580000000 1.0
C      1  0.4827560000000  0.4510200000000  0.6025530000000 1.0
C      1  0.4886450000000  0.5606300000000  0.3975300000000 1.0
C      1  0.5176520000000  0.4525860000000  0.4013350000000 1.0
C      1  0.4084120000000  0.4246650000000  0.4752700000000 1.0
C      1  0.5881970000000  0.5813680000000  0.4601490000000 1.0
C      1  0.5907320000000  0.4227260000000  0.5263120000000 1.0
C      1  0.4291790000000  0.5662640000000  0.5408120000000 1.0
C      1  0.5717680000000  0.5241830000000  0.5169280000000 1.0
C      1  0.4334160000000  0.4802640000000  0.5155630000000 1.0
C      1  0.4253970000000  0.5227930000000  0.4840450000000 1.0
C      1  0.5745110000000  0.4746770000000  0.4861230000000 1.0
C      1  0.5460060000000  0.4675500000000  0.5254100000000 1.0
C      1  0.4468990000000  0.5270310000000  0.5261320000000 1.0
C      1  0.4551140000000  0.4665190000000  0.4728290000000 1.0
C      1  0.5594830000000  0.5333260000000  0.4735510000000 1.0
C      1  0.4909620000000  0.5658560000000  0.4769790000000 1.0
C      1  0.5055510000000  0.4279640000000  0.4859970000000 1.0
C      1  0.5082100000000  0.5669250000000  0.5186280000000 1.0
C      1  0.4959970000000  0.4280670000000  0.5151650000000 1.0
C      1  0.5148250000000  0.6088800000000  0.4981560000000 1.0
C      1  0.4851570000000  0.3843810000000  0.4998240000000 1.0
C      1  0.4843850000000  0.6082920000000  0.4967750000000 1.0
C      1  0.5157860000000  0.3843310000000  0.5017120000000 1.0
C      1  0.4655800000000  0.5025580000000  0.4425100000000 1.0
C      1  0.5461780000000  0.4970090000000  0.4460480000000 1.0
C      1  0.5339520000000  0.5044560000000  0.5551740000000 1.0
C      1  0.4531480000000  0.4928710000000  0.5566640000000 1.0
C      1  0.5016150000000  0.4315610000000  0.5897590000000 1.0
C      1  0.4893760000000  0.5766900000000  0.5858920000000 1.0
C      1  0.4987640000000  0.4320710000000  0.4120570000000 1.0
C      1  0.5083820000000  0.5772350000000  0.4100650000000 1.0
C      1  0.3844330000000  0.5521220000000  0.4589010000000 1.0
C      1  0.6235300000000  0.4400840000000  0.4392750000000 1.0
C      1  0.6121810000000  0.5490190000000  0.5446410000000 1.0
C      1  0.3859660000000  0.4621200000000  0.5567910000000 1.0
C      1  0.4977590000000  0.5299970000000  0.5384810000000 1.0
C      1  0.4849150000000  0.4683840000000  0.5367510000000 1.0
C      1  0.5007140000000  0.5302750000000  0.4552860000000 1.0
C      1  0.5180050000000  0.4669920000000  0.4643550000000 1.0
C      1  0.4416110000000  0.5478870000000  0.5864840000000 1.0
C      1  0.5393530000000  0.4651800000000  0.6045110000000 1.0
C      1  0.5565610000000  0.5513110000000  0.4135860000000 1.0
C      1  0.4602620000000  0.4635170000000  0.3942390000000 1.0
C      1  0.5358770000000  0.4717420000000  0.4434630000000 1.0
C      1  0.4746240000000  0.5292060000000  0.4436800000000 1.0
C      1  0.4677940000000  0.4696390000000  0.5598610000000 1.0
C      1  0.5229110000000  0.5303970000000  0.5531600000000 1.0
C      1  0.3845550000000  0.4517890000000  0.5095130000000 1.0
C      1  0.6041540000000  0.5478940000000  0.4936070000000 1.0
C      1  0.6219480000000  0.4243810000000  0.4874680000000 1.0
C      1  0.3954260000000  0.5474580000000  0.5090540000000 1.0
C      1  0.5536650000000  0.5474180000000  0.5138010000000 1.0
C      1  0.4450640000000  0.4509380000000  0.5195190000000 1.0
C      1  0.4452340000000  0.5443910000000  0.4858460000000 1.0
C      1  0.5585910000000  0.4490890000000  0.4819350000000 1.0
C      1  0.5893730000000  0.5730960000000  0.4885240000000 1.0
C      1  0.4037970000000  0.4322420000000  0.5020160000000 1.0
C      1  0.4146040000000  0.5688920000000  0.5152710000000 1.0
C      1  0.5961500000000  0.4218150000000  0.4986260000000 1.0
C      1  0.5667500000000  0.5057680000000  0.4293820000000 1.0
C      1  0.4439950000000  0.4953270000000  0.4256140000000 1.0
C      1  0.4326290000000  0.5028720000000  0.5724670000000 1.0
C      1  0.5548760000000  0.4971630000000  0.5729320000000 1.0
C      1  0.5730380000000  0.5615010000000  0.4409670000000 1.0
C      1  0.4261390000000  0.4360440000000  0.4563150000000 1.0
C      1  0.4204940000000  0.5549680000000  0.5662450000000 1.0
C      1  0.5740060000000  0.4370580000000  0.5441100000000 1.0
C      1  0.5674800000000  0.5648570000000  0.5570000000000 1.0
C      1  0.4258860000000  0.4365650000000  0.5675110000000 1.0
C      1  0.4294900000000  0.5637940000000  0.4439450000000 1.0
C      1  0.5758500000000  0.4355510000000  0.4330680000000 1.0
C      1  0.5795310000000  0.3886400000000  0.4475600000000 1.0
C      1  0.4222930000000  0.6095580000000  0.4622630000000 1.0
C      1  0.4159850000000  0.3916770000000  0.5498600000000 1.0
C      1  0.5771800000000  0.6110020000000  0.5409890000000 1.0
C      1  0.4791230000000  0.5997730000000  0.4453600000000 1.0
C      1  0.5240660000000  0.4026010000000  0.4489400000000 1.0
C      1  0.5187420000000  0.6011320000000  0.5507380000000 1.0
C      1  0.4765280000000  0.4025270000000  0.5521160000000 1.0
C      1  0.4537540000000  0.4392910000000  0.4657330000000 1.0
C      1  0.5496000000000  0.5569330000000  0.4608400000000 1.0
C      1  0.5466680000000  0.4407390000000  0.5344220000000 1.0
C      1  0.4541800000000  0.5534730000000  0.5326290000000 1.0
C      1  0.4214570000000  0.4871820000000  0.4413930000000 1.0
C      1  0.5908080000000  0.5097700000000  0.4445880000000 1.0
C      1  0.5780460000000  0.4885670000000  0.5583140000000 1.0
C      1  0.4087250000000  0.5085400000000  0.5583580000000 1.0
C      1  0.5529500000000  0.4520220000000  0.4320400000000 1.0
C      1  0.4543040000000  0.5495340000000  0.4389020000000 1.0
C      1  0.4516270000000  0.4482590000000  0.5698520000000 1.0
C      1  0.5418910000000  0.5514650000000  0.5596090000000 1.0
C      1  0.4509740000000  0.5006580000000  0.5297220000000 1.0
C      1  0.5277320000000  0.4858020000000  0.5352350000000 1.0
C      1  0.5416370000000  0.5122760000000  0.4689530000000 1.0
C      1  0.4737500000000  0.4833740000000  0.4614020000000 1.0
C      1  0.5006300000000  0.5032550000000  0.4972520000000 1.0
END
