TITL C-3623287-7182-1923 -983.062322445414 125000 -1072.58605707089 0 0 174 (C1) n - 1
REM
REM in /home/nfs/bkarasulu/CARBON/AIRSS/Generating-Clusters/LCBOP/Higher-Symm/SD-CG/FIRE-CG
REM
REM
REM
REM
REM
REM ./C.cell (b20cbc046b6831c77cfcea5457e17084)
REM AIRSS Version 0.9.1 bugfix July 2018 build 013d7b7c2542+ Fri, 06 Jul 2018 19:26:36 +0100
REM compiler GCC version 9.2.1 20190827 (Red Hat 9.2.1-1)
REM options -cpp -mtune=generic -march=x86-64 -g -O0 -fpre-include=/usr/include/finclude/math-vector-fortran.h
REM seed 1221599773 146275364 1126654328 104869286 56732353 -1900080366 -804926351 -1474329014 1291211798 1721910164 -1551264105 151992858 -595626844 650108617 -669637935 1669738786 -1503232106 74124707 -1125415244 275690914 1304878713 1728891426 483872099 -1373751310 735193582 1243966820 1905940532 -455454398 742607148 1350837398 -1962007416 1404795274 -2129163258
REM
CELL 1.54180   50.00000   50.00000   50.00000   90.00000   90.00000   90.00000
LATT -1
SFAC C  
C      1  0.5480350000000  0.5108440000000  0.5876690000000 1.0
C      1  0.4312630000000  0.5140800000000  0.4063500000000 1.0
C      1  0.4389130000000  0.5069060000000  0.5842480000000 1.0
C      1  0.5637000000000  0.5062430000000  0.4061540000000 1.0
C      1  0.4091760000000  0.5300780000000  0.5286940000000 1.0
C      1  0.5931030000000  0.5180420000000  0.4710590000000 1.0
C      1  0.5907160000000  0.5183360000000  0.5308430000000 1.0
C      1  0.4075840000000  0.5311770000000  0.4706820000000 1.0
C      1  0.4172600000000  0.5035020000000  0.4829770000000 1.0
C      1  0.5806350000000  0.4870710000000  0.5175290000000 1.0
C      1  0.5814390000000  0.4873310000000  0.4841030000000 1.0
C      1  0.4166590000000  0.5021910000000  0.5149540000000 1.0
C      1  0.5949570000000  0.4376310000000  0.4894620000000 1.0
C      1  0.4155440000000  0.4148660000000  0.5213750000000 1.0
C      1  0.4115790000000  0.4087550000000  0.4936760000000 1.0
C      1  0.5968260000000  0.4380530000000  0.5181030000000 1.0
C      1  0.4222000000000  0.5398560000000  0.5542050000000 1.0
C      1  0.5866270000000  0.5306290000000  0.4443720000000 1.0
C      1  0.5799360000000  0.5305850000000  0.5561500000000 1.0
C      1  0.4152020000000  0.5431590000000  0.4439170000000 1.0
C      1  0.4897340000000  0.5781320000000  0.5975890000000 1.0
C      1  0.5185310000000  0.5929720000000  0.4018710000000 1.0
C      1  0.5174510000000  0.5764800000000  0.5976430000000 1.0
C      1  0.4908420000000  0.5950500000000  0.4018560000000 1.0
C      1  0.4306550000000  0.5690520000000  0.5537830000000 1.0
C      1  0.5832050000000  0.5611070000000  0.4459620000000 1.0
C      1  0.5754940000000  0.5606590000000  0.5545910000000 1.0
C      1  0.4226590000000  0.5728000000000  0.4456060000000 1.0
C      1  0.5165150000000  0.4419370000000  0.6187810000000 1.0
C      1  0.4743980000000  0.4427460000000  0.3964480000000 1.0
C      1  0.4788020000000  0.4287640000000  0.6215240000000 1.0
C      1  0.5138900000000  0.4407140000000  0.3937010000000 1.0
C      1  0.5051490000000  0.4743440000000  0.5397490000000 1.0
C      1  0.4808070000000  0.4852420000000  0.4495250000000 1.0
C      1  0.4805230000000  0.4619890000000  0.5370340000000 1.0
C      1  0.5089240000000  0.4840790000000  0.4497380000000 1.0
C      1  0.5739570000000  0.5888390000000  0.5145990000000 1.0
C      1  0.4296160000000  0.6002890000000  0.4859050000000 1.0
C      1  0.4345590000000  0.5987830000000  0.5147550000000 1.0
C      1  0.5794610000000  0.5893570000000  0.4859740000000 1.0
C      1  0.5514140000000  0.5983830000000  0.5338020000000 1.0
C      1  0.4467660000000  0.6099810000000  0.4644770000000 1.0
C      1  0.4580230000000  0.6050390000000  0.5342240000000 1.0
C      1  0.5639870000000  0.6012720000000  0.4646020000000 1.0
C      1  0.4201430000000  0.4438560000000  0.4076950000000 1.0
C      1  0.5693750000000  0.4614420000000  0.6060890000000 1.0
C      1  0.5707860000000  0.4389490000000  0.4018250000000 1.0
C      1  0.4184060000000  0.4222770000000  0.5977660000000 1.0
C      1  0.5639750000000  0.4616400000000  0.4434040000000 1.0
C      1  0.4264000000000  0.4571380000000  0.5572980000000 1.0
C      1  0.4253920000000  0.4601980000000  0.4521530000000 1.0
C      1  0.5602690000000  0.4632280000000  0.5592240000000 1.0
C      1  0.4713940000000  0.3994020000000  0.4538040000000 1.0
C      1  0.5393420000000  0.4044050000000  0.5580030000000 1.0
C      1  0.5291250000000  0.4097800000000  0.4585270000000 1.0
C      1  0.4826250000000  0.4008350000000  0.5543480000000 1.0
C      1  0.4861350000000  0.5430020000000  0.5669830000000 1.0
C      1  0.5151470000000  0.5454030000000  0.4174380000000 1.0
C      1  0.5129390000000  0.5425520000000  0.5669370000000 1.0
C      1  0.4881260000000  0.5474080000000  0.4169950000000 1.0
C      1  0.5449530000000  0.5164860000000  0.5073900000000 1.0
C      1  0.4574450000000  0.5252940000000  0.4794920000000 1.0
C      1  0.4569910000000  0.5192520000000  0.5060960000000 1.0
C      1  0.5439970000000  0.5201800000000  0.4804710000000 1.0
C      1  0.4945230000000  0.4837770000000  0.5845330000000 1.0
C      1  0.4817490000000  0.4999560000000  0.4008200000000 1.0
C      1  0.4727950000000  0.4642360000000  0.5820310000000 1.0
C      1  0.5095790000000  0.4989180000000  0.4009500000000 1.0
C      1  0.4651490000000  0.4381450000000  0.4227960000000 1.0
C      1  0.5304620000000  0.4370680000000  0.5946160000000 1.0
C      1  0.5260870000000  0.4376430000000  0.4184470000000 1.0
C      1  0.4713400000000  0.4192780000000  0.5965110000000 1.0
C      1  0.5892580000000  0.3900650000000  0.4906110000000 1.0
C      1  0.4452480000000  0.3787170000000  0.5260340000000 1.0
C      1  0.4386020000000  0.3700210000000  0.5011430000000 1.0
C      1  0.5929140000000  0.3900410000000  0.5175710000000 1.0
C      1  0.5519010000000  0.4940410000000  0.3846430000000 1.0
C      1  0.4408720000000  0.4902410000000  0.6051750000000 1.0
C      1  0.4396510000000  0.4994470000000  0.3847480000000 1.0
C      1  0.5311200000000  0.5037820000000  0.6073150000000 1.0
C      1  0.4352040000000  0.4819520000000  0.4687010000000 1.0
C      1  0.5515270000000  0.4738280000000  0.5308070000000 1.0
C      1  0.5528710000000  0.4755800000000  0.4669640000000 1.0
C      1  0.4351630000000  0.4770440000000  0.5290180000000 1.0
C      1  0.5278500000000  0.5785910000000  0.4802810000000 1.0
C      1  0.4801240000000  0.5785210000000  0.5070600000000 1.0
C      1  0.4788600000000  0.5822140000000  0.4799870000000 1.0
C      1  0.5250210000000  0.5752080000000  0.5072290000000 1.0
C      1  0.5230550000000  0.5984770000000  0.5236770000000 1.0
C      1  0.4753320000000  0.6082990000000  0.4690840000000 1.0
C      1  0.4858070000000  0.6012310000000  0.5235910000000 1.0
C      1  0.5355340000000  0.6035980000000  0.4691830000000 1.0
C      1  0.4566260000000  0.5298310000000  0.4507730000000 1.0
C      1  0.5418720000000  0.5192600000000  0.5359970000000 1.0
C      1  0.5437210000000  0.5239270000000  0.4517150000000 1.0
C      1  0.4578980000000  0.5208080000000  0.5350920000000 1.0
C      1  0.5032820000000  0.4659290000000  0.6266840000000 1.0
C      1  0.4787000000000  0.4628700000000  0.3759980000000 1.0
C      1  0.4747250000000  0.4563820000000  0.6273990000000 1.0
C      1  0.5094950000000  0.4619880000000  0.3748670000000 1.0
C      1  0.5925680000000  0.4596470000000  0.4470440000000 1.0
C      1  0.4008930000000  0.4475580000000  0.5539440000000 1.0
C      1  0.4025370000000  0.4468800000000  0.4617900000000 1.0
C      1  0.5897720000000  0.4637120000000  0.5573290000000 1.0
C      1  0.5559960000000  0.4150700000000  0.4653930000000 1.0
C      1  0.4618500000000  0.4193080000000  0.5473960000000 1.0
C      1  0.4444570000000  0.3948710000000  0.4598230000000 1.0
C      1  0.5657370000000  0.4122310000000  0.5507960000000 1.0
C      1  0.4752710000000  0.5485600000000  0.4420250000000 1.0
C      1  0.5249620000000  0.5405030000000  0.5418190000000 1.0
C      1  0.5272650000000  0.5445220000000  0.4428700000000 1.0
C      1  0.4746060000000  0.5423010000000  0.5415800000000 1.0
C      1  0.5123100000000  0.4244590000000  0.4396740000000 1.0
C      1  0.4928410000000  0.4088220000000  0.5796570000000 1.0
C      1  0.4825440000000  0.4219340000000  0.4395790000000 1.0
C      1  0.5216450000000  0.4153760000000  0.5787190000000 1.0
C      1  0.5371330000000  0.5958540000000  0.4240020000000 1.0
C      1  0.4741990000000  0.5947500000000  0.5795290000000 1.0
C      1  0.4728370000000  0.6006960000000  0.4239370000000 1.0
C      1  0.5348650000000  0.5911330000000  0.5796080000000 1.0
C      1  0.4188920000000  0.5774640000000  0.5277310000000 1.0
C      1  0.5923870000000  0.5660320000000  0.4741260000000 1.0
C      1  0.5872250000000  0.5662330000000  0.5279040000000 1.0
C      1  0.4137660000000  0.5790230000000  0.4735680000000 1.0
C      1  0.5965910000000  0.5417140000000  0.5152020000000 1.0
C      1  0.4042110000000  0.5553970000000  0.4868370000000 1.0
C      1  0.4058370000000  0.5551880000000  0.5144510000000 1.0
C      1  0.5984130000000  0.5412230000000  0.4875570000000 1.0
C      1  0.4390260000000  0.4321320000000  0.5844280000000 1.0
C      1  0.5530990000000  0.4467270000000  0.4215860000000 1.0
C      1  0.5517760000000  0.4543690000000  0.5856870000000 1.0
C      1  0.4380300000000  0.4479220000000  0.4287120000000 1.0
C      1  0.4621130000000  0.4710860000000  0.5181170000000 1.0
C      1  0.5248650000000  0.4760270000000  0.4713390000000 1.0
C      1  0.5249320000000  0.4718140000000  0.5202300000000 1.0
C      1  0.4643760000000  0.4802460000000  0.4713680000000 1.0
C      1  0.4442620000000  0.5940050000000  0.4377470000000 1.0
C      1  0.5549850000000  0.5830350000000  0.5600690000000 1.0
C      1  0.5644530000000  0.5851250000000  0.4379370000000 1.0
C      1  0.4531320000000  0.5893190000000  0.5600220000000 1.0
C      1  0.4705310000000  0.4951280000000  0.4259570000000 1.0
C      1  0.5070360000000  0.4911740000000  0.5612200000000 1.0
C      1  0.5201880000000  0.4939010000000  0.4263950000000 1.0
C      1  0.4700230000000  0.4465620000000  0.5577550000000 1.0
C      1  0.4346570000000  0.5265180000000  0.4316490000000 1.0
C      1  0.5563860000000  0.5155210000000  0.5613740000000 1.0
C      1  0.5645330000000  0.5174460000000  0.4322440000000 1.0
C      1  0.4408810000000  0.5187170000000  0.5591820000000 1.0
C      1  0.4864800000000  0.5548160000000  0.5199580000000 1.0
C      1  0.5160380000000  0.5605830000000  0.4626340000000 1.0
C      1  0.5143420000000  0.5530250000000  0.5197830000000 1.0
C      1  0.4881760000000  0.5628180000000  0.4622480000000 1.0
C      1  0.5872340000000  0.4139860000000  0.5321550000000 1.0
C      1  0.4287040000000  0.3887940000000  0.4822100000000 1.0
C      1  0.4402350000000  0.4060790000000  0.5335020000000 1.0
C      1  0.5812000000000  0.4144330000000  0.4781870000000 1.0
C      1  0.5203910000000  0.6099060000000  0.4454080000000 1.0
C      1  0.4922230000000  0.6172060000000  0.5739650000000 1.0
C      1  0.4913450000000  0.6121850000000  0.4453770000000 1.0
C      1  0.5196920000000  0.6155770000000  0.5739950000000 1.0
C      1  0.5246950000000  0.4861350000000  0.3802210000000 1.0
C      1  0.4583460000000  0.4686050000000  0.6073180000000 1.0
C      1  0.4656170000000  0.4882260000000  0.3800650000000 1.0
C      1  0.5081600000000  0.4877170000000  0.6092690000000 1.0
C      1  0.5992960000000  0.4636080000000  0.5303910000000 1.0
C      1  0.3969700000000  0.4260310000000  0.4773990000000 1.0
C      1  0.3958240000000  0.4276570000000  0.5366340000000 1.0
C      1  0.5999010000000  0.4614670000000  0.4746490000000 1.0
C      1  0.4902250000000  0.3820120000000  0.4658090000000 1.0
C      1  0.5261300000000  0.3864650000000  0.5403190000000 1.0
C      1  0.5163710000000  0.3871020000000  0.4694520000000 1.0
C      1  0.4992400000000  0.3852520000000  0.5381010000000 1.0
C      1  0.5098850000000  0.4720000000000  0.4951790000000 1.0
C      1  0.4787840000000  0.4737870000000  0.4946140000000 1.0
END
