TITL C-3623287-7182-467 0.00253609869029228 125000 -685.536934484839 0 0 114 (C1) n - 1
REM
REM in /home/nfs/bkarasulu/CARBON/AIRSS/Generating-Clusters/LCBOP/Higher-Symm/SD-CG/FIRE-CG
REM
REM
REM
REM
REM
REM ./C.cell (b20cbc046b6831c77cfcea5457e17084)
REM AIRSS Version 0.9.1 bugfix July 2018 build 013d7b7c2542+ Fri, 06 Jul 2018 19:26:36 +0100
REM compiler GCC version 9.2.1 20190827 (Red Hat 9.2.1-1)
REM options -cpp -mtune=generic -march=x86-64 -g -O0 -fpre-include=/usr/include/finclude/math-vector-fortran.h
REM seed -1016810665 -444885520 -366572924 261364692 -9713174 1613016209 -2049958134 482858937 1568486185 1322238976 -1178544060 -284207056 -44797352 -733317934 2125408839 1975133287 -2142497855 1046257600 -2122142008 2114953616 -1602440370 1855533600 -1014146566 1852488202 1483846041 779159637 -604522385 1561558236 -251817120 131635479 177971812 -316769635 1969993167
REM
CELL 1.54180   50.00000   50.00000   50.00000   90.00000   90.00000   90.00000
LATT -1
SFAC C  
C      1  0.4373770000000  0.4189390000000  0.4828550000000 1.0
C      1  0.4217570000000  0.4353300000000  0.6234510000000 1.0
C      1  0.4511760000000  0.4179340000000  0.4577650000000 1.0
C      1  0.5881860000000  0.4889330000000  0.5404450000000 1.0
C      1  0.4639510000000  0.5018580000000  0.5990010000000 1.0
C      1  0.4326700000000  0.5576330000000  0.4613610000000 1.0
C      1  0.4163910000000  0.4608710000000  0.4774410000000 1.0
C      1  0.5927380000000  0.5150850000000  0.4306160000000 1.0
C      1  0.5962920000000  0.4750690000000  0.4643500000000 1.0
C      1  0.5434260000000  0.5028120000000  0.4747260000000 1.0
C      1  0.5499620000000  0.6179110000000  0.4865540000000 1.0
C      1  0.4847320000000  0.5165740000000  0.5018940000000 1.0
C      1  0.4415230000000  0.5629340000000  0.5089750000000 1.0
C      1  0.4887430000000  0.5436600000000  0.5104680000000 1.0
C      1  0.5933380000000  0.4469110000000  0.4681010000000 1.0
C      1  0.4913610000000  0.4861620000000  0.5438120000000 1.0
C      1  0.5611160000000  0.4382160000000  0.5056370000000 1.0
C      1  0.4276980000000  0.5693740000000  0.4851200000000 1.0
C      1  0.4372760000000  0.5256510000000  0.5405240000000 1.0
C      1  0.5063810000000  0.5489090000000  0.4157910000000 1.0
C      1  0.4522780000000  0.4842460000000  0.5187290000000 1.0
C      1  0.4913970000000  0.4764640000000  0.5708730000000 1.0
C      1  0.5794330000000  0.5226890000000  0.5084580000000 1.0
C      1  0.4580780000000  0.5098500000000  0.4121100000000 1.0
C      1  0.4699720000000  0.4698760000000  0.4555680000000 1.0
C      1  0.4350920000000  0.4451680000000  0.4934380000000 1.0
C      1  0.5925730000000  0.4981590000000  0.5137530000000 1.0
C      1  0.4341090000000  0.3871780000000  0.5703060000000 1.0
C      1  0.4331380000000  0.4996300000000  0.4173470000000 1.0
C      1  0.5821170000000  0.4336940000000  0.4890360000000 1.0
C      1  0.4201980000000  0.4583790000000  0.4484450000000 1.0
C      1  0.5416610000000  0.4277160000000  0.4570710000000 1.0
C      1  0.5823540000000  0.5822900000000  0.4440730000000 1.0
C      1  0.4857170000000  0.5496940000000  0.4357250000000 1.0
C      1  0.5311720000000  0.5677930000000  0.5319710000000 1.0
C      1  0.4625820000000  0.4572450000000  0.4311690000000 1.0
C      1  0.4865520000000  0.4476190000000  0.5045940000000 1.0
C      1  0.5374290000000  0.4557170000000  0.4586340000000 1.0
C      1  0.4198620000000  0.4772620000000  0.6507750000000 1.0
C      1  0.5629690000000  0.4815530000000  0.4249450000000 1.0
C      1  0.5264360000000  0.5198750000000  0.4540680000000 1.0
C      1  0.4740490000000  0.5299880000000  0.4542790000000 1.0
C      1  0.5164970000000  0.4816460000000  0.5841120000000 1.0
C      1  0.5785890000000  0.5325010000000  0.4152990000000 1.0
C      1  0.5344380000000  0.5009040000000  0.5327860000000 1.0
C      1  0.4749150000000  0.5227840000000  0.5823590000000 1.0
C      1  0.4339500000000  0.4982620000000  0.6421950000000 1.0
C      1  0.4761260000000  0.4982200000000  0.5227730000000 1.0
C      1  0.5695520000000  0.4910710000000  0.5622150000000 1.0
C      1  0.4456490000000  0.5327970000000  0.4584680000000 1.0
C      1  0.4685750000000  0.4760580000000  0.5876240000000 1.0
C      1  0.4867950000000  0.5102930000000  0.4728940000000 1.0
C      1  0.4501740000000  0.5063750000000  0.6227080000000 1.0
C      1  0.5035920000000  0.5286290000000  0.5866470000000 1.0
C      1  0.5215660000000  0.5756240000000  0.4688570000000 1.0
C      1  0.4529310000000  0.4534390000000  0.5915180000000 1.0
C      1  0.5456110000000  0.5076950000000  0.5580480000000 1.0
C      1  0.5006630000000  0.5467120000000  0.6316690000000 1.0
C      1  0.5134330000000  0.5513000000000  0.5211960000000 1.0
C      1  0.4808860000000  0.5760420000000  0.4452840000000 1.0
C      1  0.4314360000000  0.5112590000000  0.4672740000000 1.0
C      1  0.4927050000000  0.4840490000000  0.4613480000000 1.0
C      1  0.4918360000000  0.3791260000000  0.4293170000000 1.0
C      1  0.6029230000000  0.4872100000000  0.4896020000000 1.0
C      1  0.5152480000000  0.4806160000000  0.5304910000000 1.0
C      1  0.4774080000000  0.6131380000000  0.5033190000000 1.0
C      1  0.4274410000000  0.5504450000000  0.5302000000000 1.0
C      1  0.5397020000000  0.5822760000000  0.5791300000000 1.0
C      1  0.4698910000000  0.5648030000000  0.5065800000000 1.0
C      1  0.5386960000000  0.4649180000000  0.5897120000000 1.0
C      1  0.5622480000000  0.5226470000000  0.4862890000000 1.0
C      1  0.4417620000000  0.4391470000000  0.4397870000000 1.0
C      1  0.4057440000000  0.4945170000000  0.5137450000000 1.0
C      1  0.4803180000000  0.5879770000000  0.4931580000000 1.0
C      1  0.5599140000000  0.5473260000000  0.4725990000000 1.0
C      1  0.5167920000000  0.4508660000000  0.4178490000000 1.0
C      1  0.5162650000000  0.4637940000000  0.4432590000000 1.0
C      1  0.5411750000000  0.5812860000000  0.5525580000000 1.0
C      1  0.4842200000000  0.4973950000000  0.4137090000000 1.0
C      1  0.4050580000000  0.5619430000000  0.5409490000000 1.0
C      1  0.5710580000000  0.5788530000000  0.4197190000000 1.0
C      1  0.4793040000000  0.4130530000000  0.4625540000000 1.0
C      1  0.5133740000000  0.4582290000000  0.5133860000000 1.0
C      1  0.4005500000000  0.4789520000000  0.4922220000000 1.0
C      1  0.4366450000000  0.4321960000000  0.5998930000000 1.0
C      1  0.5102930000000  0.5485060000000  0.6061150000000 1.0
C      1  0.5864010000000  0.5455950000000  0.5227300000000 1.0
C      1  0.4352210000000  0.4086350000000  0.5850580000000 1.0
C      1  0.4846020000000  0.3610500000000  0.4119950000000 1.0
C      1  0.4574560000000  0.4578960000000  0.5075530000000 1.0
C      1  0.5324730000000  0.5494310000000  0.4623980000000 1.0
C      1  0.4578080000000  0.5286340000000  0.5604020000000 1.0
C      1  0.5862750000000  0.4889330000000  0.4405010000000 1.0
C      1  0.4941140000000  0.5828300000000  0.4689570000000 1.0
C      1  0.4768210000000  0.4687820000000  0.4091170000000 1.0
C      1  0.4988140000000  0.3991030000000  0.4473830000000 1.0
C      1  0.4181460000000  0.4810120000000  0.4305510000000 1.0
C      1  0.5273450000000  0.5694440000000  0.5988800000000 1.0
C      1  0.5791960000000  0.5664330000000  0.4656760000000 1.0
C      1  0.4976240000000  0.4530480000000  0.3993040000000 1.0
C      1  0.5431390000000  0.4740220000000  0.4795640000000 1.0
C      1  0.5396910000000  0.4929570000000  0.4162940000000 1.0
C      1  0.5603970000000  0.5540180000000  0.4109370000000 1.0
C      1  0.4150860000000  0.4521180000000  0.6430830000000 1.0
C      1  0.5321650000000  0.5514460000000  0.4076300000000 1.0
C      1  0.5398340000000  0.4565080000000  0.5024460000000 1.0
C      1  0.5982850000000  0.5653750000000  0.5348550000000 1.0
C      1  0.5640320000000  0.4701490000000  0.5808230000000 1.0
C      1  0.5387740000000  0.5964340000000  0.4768770000000 1.0
C      1  0.5258170000000  0.4066980000000  0.4513650000000 1.0
C      1  0.4884870000000  0.4253670000000  0.4866080000000 1.0
C      1  0.5163790000000  0.5060540000000  0.4278920000000 1.0
C      1  0.5243670000000  0.5096270000000  0.5787320000000 1.0
C      1  0.4300410000000  0.5006700000000  0.5267120000000 1.0
END
