TITL C-3623286-7563-399 -5.66262205961651e-07 125000 -597.404355204903 0 0 97 (C1) n - 1
REM
REM in /home/nfs/bkarasulu/CARBON/AIRSS/Generating-Clusters/LCBOP/Higher-Symm/SD-CG/FIRE-CG
REM
REM
REM
REM
REM
REM ./C.cell (b20cbc046b6831c77cfcea5457e17084)
REM AIRSS Version 0.9.1 bugfix July 2018 build 013d7b7c2542+ Fri, 06 Jul 2018 19:26:36 +0100
REM compiler GCC version 9.2.1 20190827 (Red Hat 9.2.1-1)
REM options -cpp -mtune=generic -march=x86-64 -g -O0 -fpre-include=/usr/include/finclude/math-vector-fortran.h
REM seed -1772346345 -2020708820 1939392785 -483948988 1022364665 -143369750 -1069526594 2059275628 1454351513 246896432 -1280730223 -2067433831 661745404 -631825116 695857318 1667931351 -1640077384 1182091164 -1198603934 -1304915394 -897655962 989459623 435026867 699092663 1948915974 -470882228 37851923 1309046280 1905882018 -436470558 -1293625987 462809166 29423920
REM
CELL 1.54180   50.00000   50.00000   50.00000   90.00000   90.00000   90.00000
LATT -1
SFAC C  
C      1  0.4269800000000  0.5412740000000  0.4614150000000 1.0
C      1  0.5510990000000  0.4801130000000  0.4569370000000 1.0
C      1  0.4802130000000  0.5006720000000  0.4113240000000 1.0
C      1  0.5346710000000  0.5222250000000  0.4682120000000 1.0
C      1  0.4148000000000  0.4456140000000  0.5082770000000 1.0
C      1  0.5861480000000  0.4429300000000  0.4800110000000 1.0
C      1  0.4307370000000  0.5798950000000  0.5166670000000 1.0
C      1  0.5161520000000  0.5007720000000  0.5044110000000 1.0
C      1  0.5770430000000  0.5186930000000  0.5565110000000 1.0
C      1  0.5116790000000  0.4131390000000  0.5200600000000 1.0
C      1  0.4143030000000  0.4496490000000  0.4803360000000 1.0
C      1  0.5283800000000  0.4369450000000  0.4439040000000 1.0
C      1  0.5933900000000  0.5697040000000  0.4716640000000 1.0
C      1  0.5002500000000  0.4548660000000  0.4978510000000 1.0
C      1  0.5365730000000  0.4252180000000  0.4715380000000 1.0
C      1  0.4666000000000  0.5007830000000  0.4792720000000 1.0
C      1  0.5998120000000  0.5791050000000  0.4960420000000 1.0
C      1  0.4962770000000  0.4309430000000  0.5378230000000 1.0
C      1  0.4999040000000  0.4788850000000  0.4084790000000 1.0
C      1  0.6014840000000  0.4653250000000  0.4813990000000 1.0
C      1  0.4388050000000  0.4608050000000  0.5538730000000 1.0
C      1  0.5950550000000  0.4855530000000  0.5242620000000 1.0
C      1  0.5581220000000  0.4421360000000  0.4819600000000 1.0
C      1  0.4517030000000  0.4956480000000  0.4151850000000 1.0
C      1  0.5792760000000  0.5234350000000  0.4585720000000 1.0
C      1  0.5562780000000  0.5475420000000  0.5117810000000 1.0
C      1  0.5561970000000  0.4731560000000  0.5531910000000 1.0
C      1  0.5240310000000  0.5573720000000  0.4429560000000 1.0
C      1  0.3998170000000  0.4705120000000  0.4665860000000 1.0
C      1  0.5263570000000  0.5123710000000  0.5525480000000 1.0
C      1  0.4786750000000  0.5334810000000  0.4468760000000 1.0
C      1  0.5522500000000  0.5631810000000  0.4457210000000 1.0
C      1  0.5065690000000  0.4316300000000  0.4256090000000 1.0
C      1  0.4092770000000  0.6177570000000  0.5481320000000 1.0
C      1  0.4572900000000  0.5123950000000  0.5029530000000 1.0
C      1  0.4381970000000  0.4428950000000  0.4660050000000 1.0
C      1  0.4181080000000  0.5099090000000  0.5424790000000 1.0
C      1  0.4264040000000  0.4471850000000  0.5324680000000 1.0
C      1  0.5983040000000  0.5787160000000  0.5228950000000 1.0
C      1  0.4943230000000  0.4505740000000  0.4096760000000 1.0
C      1  0.4197280000000  0.5997370000000  0.5324730000000 1.0
C      1  0.5182920000000  0.5340590000000  0.4239720000000 1.0
C      1  0.5106010000000  0.4679840000000  0.5999900000000 1.0
C      1  0.4341210000000  0.5434390000000  0.5737600000000 1.0
C      1  0.5978660000000  0.4894870000000  0.4957730000000 1.0
C      1  0.5390520000000  0.4539180000000  0.5646690000000 1.0
C      1  0.5901870000000  0.5677230000000  0.5460800000000 1.0
C      1  0.4338100000000  0.4847940000000  0.4348960000000 1.0
C      1  0.4364500000000  0.5529030000000  0.5248410000000 1.0
C      1  0.4907710000000  0.4392390000000  0.5653890000000 1.0
C      1  0.5136280000000  0.5617360000000  0.4938940000000 1.0
C      1  0.5281330000000  0.5461350000000  0.5138290000000 1.0
C      1  0.5223920000000  0.4734940000000  0.4970540000000 1.0
C      1  0.4277100000000  0.5373990000000  0.5469180000000 1.0
C      1  0.4005110000000  0.5150500000000  0.4931360000000 1.0
C      1  0.5370350000000  0.5113020000000  0.4235890000000 1.0
C      1  0.5540190000000  0.5093810000000  0.4496570000000 1.0
C      1  0.5046070000000  0.5651660000000  0.4660630000000 1.0
C      1  0.5798190000000  0.5466700000000  0.5594070000000 1.0
C      1  0.4502980000000  0.5396160000000  0.5029280000000 1.0
C      1  0.4293090000000  0.4887670000000  0.5594160000000 1.0
C      1  0.5202570000000  0.5200820000000  0.5254910000000 1.0
C      1  0.5464090000000  0.4686110000000  0.4826330000000 1.0
C      1  0.5230570000000  0.4115770000000  0.4943810000000 1.0
C      1  0.5149930000000  0.4490880000000  0.5790220000000 1.0
C      1  0.4756340000000  0.5588890000000  0.4606840000000 1.0
C      1  0.4030840000000  0.5070340000000  0.5186900000000 1.0
C      1  0.5991050000000  0.5063070000000  0.5429760000000 1.0
C      1  0.5880660000000  0.5146540000000  0.4851300000000 1.0
C      1  0.4647590000000  0.4551270000000  0.5697950000000 1.0
C      1  0.4489710000000  0.5573160000000  0.4763540000000 1.0
C      1  0.5271390000000  0.4842860000000  0.4171660000000 1.0
C      1  0.4944960000000  0.4893360000000  0.5901110000000 1.0
C      1  0.5389910000000  0.4642950000000  0.4359730000000 1.0
C      1  0.4384670000000  0.5829450000000  0.4889430000000 1.0
C      1  0.5768160000000  0.4663290000000  0.5347930000000 1.0
C      1  0.4903320000000  0.5259150000000  0.4222710000000 1.0
C      1  0.4654930000000  0.5001020000000  0.5262890000000 1.0
C      1  0.5771930000000  0.5528450000000  0.4555350000000 1.0
C      1  0.4851920000000  0.4363200000000  0.4818010000000 1.0
C      1  0.5529590000000  0.5021120000000  0.5571000000000 1.0
C      1  0.5201170000000  0.4658740000000  0.6253290000000 1.0
C      1  0.4787470000000  0.4782660000000  0.5327870000000 1.0
C      1  0.4472950000000  0.4654530000000  0.4513970000000 1.0
C      1  0.5072650000000  0.5084220000000  0.5732390000000 1.0
C      1  0.4867130000000  0.5167490000000  0.4682140000000 1.0
C      1  0.5113870000000  0.5146890000000  0.4801850000000 1.0
C      1  0.4896020000000  0.4547370000000  0.5236350000000 1.0
C      1  0.4601880000000  0.4276680000000  0.4755050000000 1.0
C      1  0.4110940000000  0.5179090000000  0.4667000000000 1.0
C      1  0.4937160000000  0.4711230000000  0.4549400000000 1.0
C      1  0.4112620000000  0.4931840000000  0.4517230000000 1.0
C      1  0.4678960000000  0.4806440000000  0.5853510000000 1.0
C      1  0.5770740000000  0.5322670000000  0.5045950000000 1.0
C      1  0.4452330000000  0.4975110000000  0.5825390000000 1.0
C      1  0.4421360000000  0.5241170000000  0.5909360000000 1.0
C      1  0.4689900000000  0.4772160000000  0.4641950000000 1.0
END
