TITL C-3623286-7563-1344 -2.9042694417717e-07 125000 -88.9115973697525 0 0 15 (C2v) n - 1
REM
REM in /home/nfs/bkarasulu/CARBON/AIRSS/Generating-Clusters/LCBOP/Higher-Symm/SD-CG/FIRE-CG
REM
REM
REM
REM
REM
REM ./C.cell (b20cbc046b6831c77cfcea5457e17084)
REM AIRSS Version 0.9.1 bugfix July 2018 build 013d7b7c2542+ Fri, 06 Jul 2018 19:26:36 +0100
REM compiler GCC version 9.2.1 20190827 (Red Hat 9.2.1-1)
REM options -cpp -mtune=generic -march=x86-64 -g -O0 -fpre-include=/usr/include/finclude/math-vector-fortran.h
REM seed -1544279923 598558849 1829578494 1404202629 1265993476 1565802347 -1145140492 -815326483 1267452132 158285597 431375 2049408297 572753748 -760451892 899667889 -1917689086 1095153356 433677089 -1748772634 238361695 2013766886 -1981280057 -1338323499 1407268505 1236852608 2108475318 1072946208 -1403189547 60070827 -1690174244 -152674310 -633478104 -600560943
REM
CELL 1.54180   50.00000   50.00000   50.00000   90.00000   90.00000   90.00000
LATT -1
SFAC C  
C      1  0.4955980000000  0.4926470000000  0.5718710000000 1.0
C      1  0.5015530000000  0.4772890000000  0.5505530000000 1.0
C      1  0.5100050000000  0.4630870000000  0.5014870000000 1.0
C      1  0.4982200000000  0.5070590000000  0.5100500000000 1.0
C      1  0.4911210000000  0.5295710000000  0.5250520000000 1.0
C      1  0.4871010000000  0.5352430000000  0.5510770000000 1.0
C      1  0.4890240000000  0.5188580000000  0.5724860000000 1.0
C      1  0.5093260000000  0.4761520000000  0.4759070000000 1.0
C      1  0.5017950000000  0.5041380000000  0.4816600000000 1.0
C      1  0.4991640000000  0.5230010000000  0.4611770000000 1.0
C      1  0.5017950000000  0.5232380000000  0.4343690000000 1.0
C      1  0.5084970000000  0.5029480000000  0.4178190000000 1.0
C      1  0.5140560000000  0.4775660000000  0.4252680000000 1.0
C      1  0.5142100000000  0.4669480000000  0.4500280000000 1.0
C      1  0.5034010000000  0.4809920000000  0.5229640000000 1.0
END
