TITL C-3623288-6813-1144 6.61287281638543 125000 -481.497697477947 0 0 80 (C1) n - 1
REM
REM in /home/nfs/bkarasulu/CARBON/AIRSS/Generating-Clusters/LCBOP/Higher-Symm/SD-CG/FIRE-CG
REM
REM
REM
REM
REM
REM ./C.cell (b20cbc046b6831c77cfcea5457e17084)
REM AIRSS Version 0.9.1 bugfix July 2018 build 013d7b7c2542+ Fri, 06 Jul 2018 19:26:36 +0100
REM compiler GCC version 9.2.1 20190827 (Red Hat 9.2.1-1)
REM options -cpp -mtune=generic -march=x86-64 -g -O0 -fpre-include=/usr/include/finclude/math-vector-fortran.h
REM seed 1728329850 -1578483085 915308294 -1637479113 1194210645 2020757007 -1495886647 -1815394210 -871489677 508408895 1833099143 1598822665 -7615447 449266826 1147179513 672060608 -1549882466 -640586889 1420573189 -662703909 -121802340 226571706 2063093867 1533570081 -723819740 486913387 1502995891 -136754889 1110259310 714193245 -1176543106 -591249766 321387537
REM
CELL 1.54180   50.00000   50.00000   50.00000   90.00000   90.00000   90.00000
LATT -1
SFAC C  
C      1  0.5563360000000  0.5396790000000  0.6519460000000 1.0
C      1  0.4633230000000  0.5543700000000  0.6503230000000 1.0
C      1  0.4471960000000  0.4605160000000  0.6488700000000 1.0
C      1  0.5387460000000  0.4519610000000  0.6504020000000 1.0
C      1  0.5157970000000  0.5663600000000  0.4814890000000 1.0
C      1  0.4312350000000  0.5157410000000  0.4792050000000 1.0
C      1  0.4824250000000  0.4308390000000  0.4782840000000 1.0
C      1  0.5683040000000  0.4823820000000  0.4799000000000 1.0
C      1  0.4959480000000  0.5414580000000  0.3930090000000 1.0
C      1  0.4582620000000  0.4961720000000  0.3918860000000 1.0
C      1  0.5042840000000  0.4594090000000  0.3924620000000 1.0
C      1  0.5410410000000  0.5046260000000  0.3935630000000 1.0
C      1  0.5039170000000  0.4488370000000  0.4776800000000 1.0
C      1  0.5507940000000  0.5042580000000  0.4786150000000 1.0
C      1  0.4937250000000  0.5492590000000  0.4789690000000 1.0
C      1  0.4488280000000  0.4939660000000  0.4776870000000 1.0
C      1  0.5284860000000  0.4571460000000  0.4075080000000 1.0
C      1  0.5430880000000  0.5291230000000  0.4081400000000 1.0
C      1  0.4712400000000  0.5433250000000  0.4072260000000 1.0
C      1  0.4564480000000  0.4716270000000  0.4064090000000 1.0
C      1  0.4959780000000  0.5212440000000  0.4784110000000 1.0
C      1  0.4769200000000  0.4967170000000  0.4779280000000 1.0
C      1  0.5007300000000  0.4767730000000  0.4778730000000 1.0
C      1  0.5229910000000  0.5016360000000  0.4783560000000 1.0
C      1  0.4542090000000  0.5643400000000  0.4526790000000 1.0
C      1  0.4344780000000  0.4542980000000  0.4513210000000 1.0
C      1  0.5444840000000  0.4346820000000  0.4526880000000 1.0
C      1  0.5646960000000  0.5450420000000  0.4537690000000 1.0
C      1  0.4268470000000  0.5580670000000  0.4555670000000 1.0
C      1  0.4404400000000  0.4268490000000  0.4540620000000 1.0
C      1  0.5719680000000  0.4401090000000  0.4561020000000 1.0
C      1  0.5580210000000  0.5721470000000  0.4578580000000 1.0
C      1  0.5331190000000  0.4380860000000  0.4273690000000 1.0
C      1  0.5618290000000  0.5340680000000  0.4282240000000 1.0
C      1  0.4660850000000  0.5618250000000  0.4275020000000 1.0
C      1  0.4375720000000  0.4663380000000  0.4262830000000 1.0
C      1  0.4355810000000  0.4546330000000  0.6257790000000 1.0
C      1  0.5438350000000  0.4400860000000  0.6272550000000 1.0
C      1  0.5676310000000  0.5434550000000  0.6282630000000 1.0
C      1  0.4572710000000  0.5658050000000  0.6271860000000 1.0
C      1  0.5209540000000  0.5467950000000  0.4050760000000 1.0
C      1  0.4535010000000  0.5213350000000  0.4037920000000 1.0
C      1  0.4787930000000  0.4542270000000  0.4034600000000 1.0
C      1  0.5461950000000  0.4793350000000  0.4050700000000 1.0
C      1  0.5491050000000  0.4184770000000  0.5515440000000 1.0
C      1  0.5860110000000  0.5475720000000  0.5516160000000 1.0
C      1  0.4498890000000  0.5844930000000  0.5509530000000 1.0
C      1  0.4156840000000  0.4484090000000  0.5497450000000 1.0
C      1  0.5456030000000  0.4188610000000  0.5252720000000 1.0
C      1  0.5841970000000  0.5443920000000  0.5253640000000 1.0
C      1  0.4529390000000  0.5827950000000  0.5246770000000 1.0
C      1  0.4168500000000  0.4519740000000  0.5235040000000 1.0
C      1  0.5038140000000  0.4788150000000  0.3716880000000 1.0
C      1  0.5217900000000  0.5035280000000  0.3725720000000 1.0
C      1  0.4977610000000  0.5223990000000  0.3719820000000 1.0
C      1  0.4767350000000  0.4972730000000  0.3706730000000 1.0
C      1  0.5496680000000  0.4223990000000  0.5777520000000 1.0
C      1  0.5833830000000  0.5481250000000  0.5779860000000 1.0
C      1  0.4499060000000  0.5817580000000  0.5773180000000 1.0
C      1  0.4189070000000  0.4479530000000  0.5760510000000 1.0
C      1  0.5333940000000  0.4641200000000  0.6728330000000 1.0
C      1  0.5445390000000  0.5360110000000  0.6749030000000 1.0
C      1  0.4697390000000  0.5423150000000  0.6725310000000 1.0
C      1  0.4592770000000  0.4668730000000  0.6710810000000 1.0
C      1  0.4618700000000  0.4177240000000  0.4674590000000 1.0
C      1  0.5812100000000  0.4614450000000  0.4695670000000 1.0
C      1  0.5364170000000  0.5801420000000  0.4716710000000 1.0
C      1  0.4179950000000  0.5364540000000  0.4688440000000 1.0
C      1  0.4592590000000  0.5761730000000  0.4998130000000 1.0
C      1  0.4229540000000  0.4587820000000  0.4986370000000 1.0
C      1  0.5390160000000  0.4241760000000  0.5001650000000 1.0
C      1  0.5774410000000  0.5383480000000  0.5004670000000 1.0
C      1  0.4258220000000  0.4502110000000  0.6015380000000 1.0
C      1  0.5477130000000  0.4298910000000  0.6031000000000 1.0
C      1  0.5769810000000  0.5465300000000  0.6036560000000 1.0
C      1  0.4525580000000  0.5752540000000  0.6028760000000 1.0
C      1  0.5292020000000  0.4358360000000  0.4766790000000 1.0
C      1  0.5644210000000  0.5292330000000  0.4774160000000 1.0
C      1  0.4690500000000  0.5633320000000  0.4769300000000 1.0
C      1  0.4353490000000  0.4689770000000  0.4756920000000 1.0
END
