TITL C-3623283-6828-383 426.075577494335 125000 -608.863462033907 0 0 100 (C1) n - 1
REM
REM in /home/nfs/bkarasulu/CARBON/AIRSS/Generating-Clusters/LCBOP/Higher-Symm/SD-CG/FIRE-CG
REM
REM
REM
REM
REM
REM ./C.cell (b20cbc046b6831c77cfcea5457e17084)
REM AIRSS Version 0.9.1 bugfix July 2018 build 013d7b7c2542+ Fri, 06 Jul 2018 19:26:36 +0100
REM compiler GCC version 9.2.1 20190827 (Red Hat 9.2.1-1)
REM options -cpp -mtune=generic -march=x86-64 -g -O0 -fpre-include=/usr/include/finclude/math-vector-fortran.h
REM seed 1113363924 -1705554815 1723478195 -907336132 -1593618138 947313516 141371682 -1231820351 -1925792276 -2139327571 -1512521550 498977923 -792697827 -689602628 -1297069746 -565408912 157328760 757645040 919401 -1808640296 1718762082 1875069762 -387192273 -436948199 794993343 1680222 -1106502643 420275828 -16820947 1101595501 -2116898887 -1272242176 2080326827
REM
CELL 1.54180   50.00000   50.00000   50.00000   90.00000   90.00000   90.00000
LATT -1
SFAC C  
C      1  0.5432790000000  0.4846260000000  0.4272980000000 1.0
C      1  0.5375280000000  0.5672380000000  0.5215130000000 1.0
C      1  0.5444140000000  0.4449770000000  0.5483800000000 1.0
C      1  0.4964590000000  0.5792650000000  0.5499250000000 1.0
C      1  0.5024360000000  0.4249400000000  0.5344600000000 1.0
C      1  0.5020540000000  0.5076040000000  0.4178250000000 1.0
C      1  0.5767660000000  0.5152000000000  0.4492620000000 1.0
C      1  0.5744290000000  0.5364230000000  0.5373090000000 1.0
C      1  0.5771300000000  0.4479880000000  0.5108860000000 1.0
C      1  0.5033730000000  0.4384800000000  0.5090140000000 1.0
C      1  0.5032650000000  0.5210230000000  0.4435230000000 1.0
C      1  0.4937650000000  0.5533420000000  0.5610990000000 1.0
C      1  0.5237060000000  0.5247330000000  0.4636350000000 1.0
C      1  0.5155800000000  0.5063110000000  0.5357750000000 1.0
C      1  0.5216960000000  0.4559840000000  0.4945940000000 1.0
C      1  0.4722560000000  0.4308360000000  0.4281590000000 1.0
C      1  0.4753460000000  0.5912040000000  0.4760570000000 1.0
C      1  0.4750840000000  0.4716830000000  0.5945790000000 1.0
C      1  0.4783710000000  0.5107850000000  0.4019960000000 1.0
C      1  0.4721140000000  0.5941950000000  0.5534740000000 1.0
C      1  0.4776980000000  0.4117650000000  0.5406420000000 1.0
C      1  0.5728730000000  0.5425770000000  0.4587450000000 1.0
C      1  0.5724230000000  0.5139460000000  0.5550860000000 1.0
C      1  0.5709750000000  0.4436370000000  0.4828080000000 1.0
C      1  0.4354310000000  0.5327220000000  0.4696980000000 1.0
C      1  0.4328550000000  0.5114960000000  0.5441600000000 1.0
C      1  0.4315540000000  0.4585570000000  0.4881850000000 1.0
C      1  0.5530750000000  0.4217270000000  0.4731600000000 1.0
C      1  0.5566630000000  0.5619260000000  0.4420360000000 1.0
C      1  0.5556740000000  0.5176350000000  0.5793870000000 1.0
C      1  0.5616960000000  0.5063320000000  0.4264650000000 1.0
C      1  0.5554380000000  0.5574630000000  0.5412400000000 1.0
C      1  0.5624820000000  0.4328130000000  0.5301860000000 1.0
C      1  0.5474150000000  0.4730680000000  0.5525310000000 1.0
C      1  0.5450000000000  0.4674610000000  0.4502170000000 1.0
C      1  0.5436270000000  0.5579150000000  0.4946940000000 1.0
C      1  0.4761560000000  0.5002110000000  0.5909840000000 1.0
C      1  0.4737300000000  0.4225390000000  0.4565740000000 1.0
C      1  0.4757380000000  0.5742070000000  0.4530110000000 1.0
C      1  0.4943260000000  0.4666310000000  0.4538350000000 1.0
C      1  0.4805220000000  0.5322980000000  0.5090900000000 1.0
C      1  0.4733680000000  0.4851620000000  0.5326720000000 1.0
C      1  0.5205760000000  0.4541190000000  0.4635330000000 1.0
C      1  0.5261840000000  0.5519850000000  0.4730460000000 1.0
C      1  0.5260070000000  0.4915730000000  0.5576100000000 1.0
C      1  0.4239350000000  0.4814820000000  0.4728920000000 1.0
C      1  0.4255160000000  0.5344370000000  0.4976600000000 1.0
C      1  0.4219430000000  0.4876030000000  0.5310060000000 1.0
C      1  0.4999560000000  0.4104550000000  0.4621420000000 1.0
C      1  0.5020180000000  0.5749320000000  0.4394750000000 1.0
C      1  0.5034010000000  0.5107290000000  0.5952250000000 1.0
C      1  0.5338120000000  0.5057730000000  0.4801390000000 1.0
C      1  0.5316530000000  0.5098440000000  0.5145390000000 1.0
C      1  0.5359320000000  0.4769700000000  0.5026440000000 1.0
C      1  0.4982090000000  0.4556730000000  0.5988190000000 1.0
C      1  0.4959840000000  0.4351920000000  0.4118230000000 1.0
C      1  0.4968910000000  0.6070660000000  0.4853160000000 1.0
C      1  0.5186750000000  0.4842240000000  0.4131790000000 1.0
C      1  0.5155150000000  0.5845400000000  0.5283390000000 1.0
C      1  0.5197540000000  0.4332760000000  0.5558330000000 1.0
C      1  0.4588860000000  0.4677510000000  0.5501570000000 1.0
C      1  0.4680610000000  0.4732190000000  0.4440000000000 1.0
C      1  0.4664600000000  0.5570870000000  0.5113750000000 1.0
C      1  0.5255940000000  0.4236150000000  0.4621050000000 1.0
C      1  0.5284770000000  0.5680070000000  0.4488490000000 1.0
C      1  0.5284520000000  0.5073160000000  0.5818240000000 1.0
C      1  0.4592720000000  0.5488530000000  0.4562000000000 1.0
C      1  0.4587230000000  0.5142860000000  0.5701410000000 1.0
C      1  0.4595160000000  0.4378420000000  0.4794140000000 1.0
C      1  0.4478190000000  0.4713100000000  0.4025830000000 1.0
C      1  0.4442710000000  0.5988400000000  0.5146340000000 1.0
C      1  0.4505600000000  0.4308040000000  0.5766080000000 1.0
C      1  0.5098720000000  0.6044880000000  0.5088930000000 1.0
C      1  0.5110090000000  0.4385390000000  0.5822670000000 1.0
C      1  0.5091020000000  0.4583160000000  0.4051080000000 1.0
C      1  0.4596940000000  0.5818720000000  0.4970790000000 1.0
C      1  0.4570850000000  0.4588650000000  0.5776950000000 1.0
C      1  0.4562690000000  0.4539370000000  0.4240720000000 1.0
C      1  0.4474250000000  0.5866750000000  0.5410590000000 1.0
C      1  0.4524270000000  0.4219810000000  0.5487700000000 1.0
C      1  0.4536000000000  0.4991650000000  0.4095340000000 1.0
C      1  0.4436570000000  0.4463300000000  0.5349040000000 1.0
C      1  0.4518630000000  0.4974640000000  0.4388540000000 1.0
C      1  0.4461160000000  0.5579860000000  0.5338400000000 1.0
C      1  0.4802770000000  0.5289420000000  0.4584100000000 1.0
C      1  0.4785110000000  0.5301350000000  0.5567020000000 1.0
C      1  0.4777170000000  0.4468560000000  0.4998240000000 1.0
C      1  0.4805350000000  0.5187720000000  0.4845710000000 1.0
C      1  0.4869060000000  0.5136720000000  0.5333130000000 1.0
C      1  0.4746060000000  0.4740220000000  0.5067090000000 1.0
C      1  0.5844390000000  0.5366720000000  0.5103900000000 1.0
C      1  0.5856750000000  0.4730890000000  0.5230090000000 1.0
C      1  0.5841610000000  0.4919520000000  0.4649990000000 1.0
C      1  0.5720200000000  0.4867020000000  0.5444610000000 1.0
C      1  0.5697880000000  0.4669530000000  0.4655960000000 1.0
C      1  0.5704030000000  0.5473000000000  0.4878780000000 1.0
C      1  0.4273390000000  0.4618380000000  0.5171200000000 1.0
C      1  0.4335380000000  0.5048140000000  0.4590570000000 1.0
C      1  0.4300070000000  0.5352340000000  0.5271410000000 1.0
C      1  0.4764940000000  0.4919730000000  0.4864830000000 1.0
END
