TITL C-3623287-7182-833 -1.08856495510862e-06 125000 -477.963819151234 0 0 80 (C5) n - 1
REM
REM in /home/nfs/bkarasulu/CARBON/AIRSS/Generating-Clusters/LCBOP/Higher-Symm/SD-CG/FIRE-CG
REM
REM
REM
REM
REM
REM ./C.cell (b20cbc046b6831c77cfcea5457e17084)
REM AIRSS Version 0.9.1 bugfix July 2018 build 013d7b7c2542+ Fri, 06 Jul 2018 19:26:36 +0100
REM compiler GCC version 9.2.1 20190827 (Red Hat 9.2.1-1)
REM options -cpp -mtune=generic -march=x86-64 -g -O0 -fpre-include=/usr/include/finclude/math-vector-fortran.h
REM seed 2024081255 -146497313 -1273295681 221522876 -884099665 930833841 533708042 -83294103 398031620 -1494306555 -1164718815 999736507 -775287520 -272698214 847543721 1260458404 -808076729 -139266635 -2017871608 245642974 -1003045079 1426379890 237044901 -1799524618 -71096259 89747188 -1557783483 1811868946 1328831371 2097330387 419837288 -1262350481 -540627550
REM
CELL 1.54180   50.00000   50.00000   50.00000   90.00000   90.00000   90.00000
LATT -1
SFAC C  
C      1  0.4997400000000  0.5652610000000  0.4524860000000 1.0
C      1  0.4997400000000  0.4749780000000  0.4232510000000 1.0
C      1  0.4997370000000  0.4192750000000  0.5000800000000 1.0
C      1  0.4997350000000  0.4751310000000  0.5767990000000 1.0
C      1  0.4997380000000  0.5653550000000  0.5473840000000 1.0
C      1  0.4709120000000  0.4775360000000  0.5675020000000 1.0
C      1  0.4709140000000  0.5572580000000  0.5422230000000 1.0
C      1  0.4709170000000  0.5578520000000  0.4585920000000 1.0
C      1  0.4709160000000  0.4784970000000  0.4321840000000 1.0
C      1  0.4709130000000  0.4288600000000  0.4994940000000 1.0
C      1  0.5387180000000  0.5407880000000  0.5760760000000 1.0
C      1  0.5387210000000  0.5849550000000  0.4847180000000 1.0
C      1  0.5387220000000  0.5117170000000  0.4144800000000 1.0
C      1  0.5387200000000  0.4222850000000  0.4624300000000 1.0
C      1  0.5387170000000  0.4402520000000  0.5623020000000 1.0
C      1  0.5152440000000  0.4235850000000  0.5248700000000 1.0
C      1  0.5152440000000  0.5000380000000  0.5803600000000 1.0
C      1  0.5152470000000  0.5764380000000  0.5247960000000 1.0
C      1  0.5152490000000  0.5472030000000  0.4349660000000 1.0
C      1  0.5152470000000  0.4527340000000  0.4350110000000 1.0
C      1  0.4699300000000  0.5848720000000  0.5002480000000 1.0
C      1  0.4699320000000  0.5264640000000  0.4193590000000 1.0
C      1  0.4699290000000  0.4314850000000  0.4499110000000 1.0
C      1  0.4699260000000  0.4311920000000  0.5496830000000 1.0
C      1  0.4699270000000  0.5259900000000  0.5807940000000 1.0
C      1  0.5718270000000  0.5120240000000  0.4775210000000 1.0
C      1  0.5718260000000  0.4823340000000  0.4816180000000 1.0
C      1  0.5718250000000  0.4770560000000  0.5111210000000 1.0
C      1  0.5718250000000  0.5034840000000  0.5252580000000 1.0
C      1  0.5718260000000  0.5250960000000  0.5044920000000 1.0
C      1  0.5422350000000  0.5327110000000  0.4350230000000 1.0
C      1  0.5422330000000  0.4483090000000  0.4488110000000 1.0
C      1  0.5422300000000  0.4353420000000  0.5333430000000 1.0
C      1  0.5422300000000  0.5117280000000  0.5717980000000 1.0
C      1  0.5422330000000  0.5719060000000  0.5110320000000 1.0
C      1  0.5499460000000  0.5442450000000  0.5076650000000 1.0
C      1  0.5499470000000  0.5209610000000  0.4602890000000 1.0
C      1  0.5499460000000  0.4687080000000  0.4677940000000 1.0
C      1  0.5499450000000  0.4596990000000  0.5198090000000 1.0
C      1  0.5499450000000  0.5063830000000  0.5444500000000 1.0
C      1  0.4989220000000  0.4662070000000  0.5257770000000 1.0
C      1  0.4989220000000  0.5140730000000  0.5401050000000 1.0
C      1  0.4989240000000  0.5424900000000  0.4990090000000 1.0
C      1  0.4989250000000  0.5121880000000  0.4592830000000 1.0
C      1  0.4989230000000  0.4650420000000  0.4758260000000 1.0
C      1  0.4969710000000  0.4409180000000  0.4573790000000 1.0
C      1  0.4969680000000  0.4412070000000  0.5430200000000 1.0
C      1  0.4969690000000  0.5227470000000  0.5692090000000 1.0
C      1  0.4969720000000  0.5728510000000  0.4997530000000 1.0
C      1  0.4969730000000  0.5222780000000  0.4306380000000 1.0
C      1  0.5123210000000  0.4999400000000  0.4159610000000 1.0
C      1  0.5123180000000  0.4200550000000  0.4740880000000 1.0
C      1  0.5123160000000  0.4506510000000  0.5680250000000 1.0
C      1  0.5123170000000  0.5494450000000  0.5679550000000 1.0
C      1  0.5123200000000  0.5799080000000  0.4739740000000 1.0
C      1  0.4462850000000  0.5732060000000  0.5072340000000 1.0
C      1  0.4462870000000  0.5295040000000  0.4326120000000 1.0
C      1  0.4462850000000  0.4450300000000  0.4511150000000 1.0
C      1  0.4462820000000  0.4365230000000  0.5371730000000 1.0
C      1  0.4462820000000  0.5157410000000  0.5718570000000 1.0
C      1  0.4779530000000  0.5067480000000  0.4766900000000 1.0
C      1  0.4779520000000  0.4799170000000  0.4863790000000 1.0
C      1  0.4779510000000  0.4808400000000  0.5148910000000 1.0
C      1  0.4779520000000  0.5082420000000  0.5228230000000 1.0
C      1  0.4779530000000  0.5242540000000  0.4992140000000 1.0
C      1  0.5251280000000  0.4770410000000  0.5143700000000 1.0
C      1  0.5251280000000  0.5065710000000  0.5262760000000 1.0
C      1  0.5251290000000  0.5270190000000  0.5018700000000 1.0
C      1  0.5251300000000  0.5101270000000  0.4748810000000 1.0
C      1  0.5251290000000  0.4792390000000  0.4826070000000 1.0
C      1  0.4362080000000  0.4731860000000  0.5037630000000 1.0
C      1  0.4362080000000  0.4952960000000  0.5266640000000 1.0
C      1  0.4362090000000  0.5239080000000  0.5127130000000 1.0
C      1  0.4362090000000  0.5194820000000  0.4811910000000 1.0
C      1  0.4362090000000  0.4881340000000  0.4756590000000 1.0
C      1  0.4476620000000  0.4454650000000  0.5096980000000 1.0
C      1  0.4476610000000  0.4923730000000  0.5548620000000 1.0
C      1  0.4476630000000  0.5498230000000  0.5242060000000 1.0
C      1  0.4476650000000  0.5384200000000  0.4600960000000 1.0
C      1  0.4476640000000  0.4739230000000  0.4511290000000 1.0
END
