TITL C-3623285-6872-1330 -3.45033593728664e-06 125000 -919.156067910723 0 0 151 (C1) n - 1
REM
REM in /home/nfs/bkarasulu/CARBON/AIRSS/Generating-Clusters/LCBOP/Higher-Symm/SD-CG/FIRE-CG
REM
REM
REM
REM
REM
REM ./C.cell (b20cbc046b6831c77cfcea5457e17084)
REM AIRSS Version 0.9.1 bugfix July 2018 build 013d7b7c2542+ Fri, 06 Jul 2018 19:26:36 +0100
REM compiler GCC version 9.2.1 20190827 (Red Hat 9.2.1-1)
REM options -cpp -mtune=generic -march=x86-64 -g -O0 -fpre-include=/usr/include/finclude/math-vector-fortran.h
REM seed 1586202686 -2002326696 -148906040 -1759636782 -825986187 -514622010 1892597202 -1728357771 -331775874 -371477448 -2096518148 -22976512 -7684232 109011293 766263995 674547853 -1020970535 236379923 1877885085 386229815 -2049595372 1339806389 -775402837 -325556943 1023177356 -599907341 -1189919748 1509139593 -1797858052 -465911372 -952371332 -273108800 1259243683
REM
CELL 1.54180   50.00000   50.00000   50.00000   90.00000   90.00000   90.00000
LATT -1
SFAC C  
C      1  0.4666300000000  0.5667510000000  0.4043890000000 1.0
C      1  0.4612480000000  0.3842080000000  0.4938600000000 1.0
C      1  0.4582340000000  0.5377840000000  0.6177870000000 1.0
C      1  0.4982690000000  0.4463480000000  0.6011390000000 1.0
C      1  0.4864930000000  0.6164510000000  0.4942590000000 1.0
C      1  0.4832150000000  0.4384790000000  0.4042330000000 1.0
C      1  0.4984140000000  0.5880900000000  0.5693110000000 1.0
C      1  0.5108160000000  0.5070770000000  0.3839720000000 1.0
C      1  0.5146680000000  0.3957410000000  0.5551990000000 1.0
C      1  0.5913290000000  0.4803270000000  0.4614900000000 1.0
C      1  0.5943980000000  0.4749310000000  0.5377480000000 1.0
C      1  0.5942560000000  0.5412210000000  0.5021480000000 1.0
C      1  0.5713730000000  0.5571050000000  0.4950980000000 1.0
C      1  0.5722670000000  0.4694820000000  0.4418840000000 1.0
C      1  0.5786050000000  0.4610490000000  0.5596540000000 1.0
C      1  0.4391110000000  0.5061050000000  0.4038960000000 1.0
C      1  0.4504580000000  0.4293380000000  0.5367080000000 1.0
C      1  0.4480510000000  0.5503420000000  0.5243200000000 1.0
C      1  0.5083940000000  0.4591480000000  0.4707370000000 1.0
C      1  0.5176580000000  0.4974790000000  0.5504500000000 1.0
C      1  0.5121120000000  0.5469190000000  0.4738130000000 1.0
C      1  0.4594180000000  0.6093570000000  0.4955700000000 1.0
C      1  0.4558490000000  0.4424840000000  0.4086860000000 1.0
C      1  0.4687300000000  0.4478930000000  0.5939510000000 1.0
C      1  0.4848290000000  0.5387720000000  0.6136680000000 1.0
C      1  0.4916470000000  0.5791040000000  0.4082840000000 1.0
C      1  0.4848130000000  0.3831620000000  0.4786620000000 1.0
C      1  0.4140430000000  0.5389010000000  0.4328680000000 1.0
C      1  0.4222980000000  0.4375750000000  0.4992560000000 1.0
C      1  0.4198700000000  0.5363300000000  0.5651610000000 1.0
C      1  0.4934240000000  0.4896620000000  0.5625470000000 1.0
C      1  0.4886370000000  0.5635220000000  0.4736370000000 1.0
C      1  0.4840920000000  0.4528530000000  0.4584060000000 1.0
C      1  0.5078470000000  0.6054340000000  0.4772470000000 1.0
C      1  0.5047370000000  0.4301670000000  0.4226280000000 1.0
C      1  0.5127160000000  0.4719430000000  0.6005800000000 1.0
C      1  0.5336320000000  0.5704950000000  0.4363480000000 1.0
C      1  0.5289760000000  0.4019340000000  0.4822750000000 1.0
C      1  0.5316530000000  0.5338920000000  0.5981030000000 1.0
C      1  0.5139380000000  0.5316010000000  0.5000680000000 1.0
C      1  0.5129340000000  0.4856630000000  0.4797820000000 1.0
C      1  0.5246160000000  0.4878150000000  0.5243900000000 1.0
C      1  0.4148560000000  0.4825660000000  0.5504880000000 1.0
C      1  0.4134470000000  0.5537000000000  0.4896170000000 1.0
C      1  0.4021980000000  0.4585590000000  0.4645400000000 1.0
C      1  0.5245900000000  0.4896490000000  0.4341230000000 1.0
C      1  0.5318650000000  0.4480010000000  0.5463540000000 1.0
C      1  0.5268980000000  0.5694290000000  0.5229200000000 1.0
C      1  0.4643500000000  0.3863210000000  0.5217920000000 1.0
C      1  0.4370270000000  0.5596890000000  0.5675100000000 1.0
C      1  0.4661610000000  0.5425670000000  0.3902030000000 1.0
C      1  0.4274660000000  0.5620880000000  0.4418480000000 1.0
C      1  0.4276760000000  0.4207780000000  0.4768980000000 1.0
C      1  0.4251170000000  0.5154330000000  0.5848020000000 1.0
C      1  0.4827250000000  0.5632180000000  0.5019420000000 1.0
C      1  0.4756720000000  0.4772630000000  0.4446050000000 1.0
C      1  0.4870690000000  0.4659240000000  0.5466140000000 1.0
C      1  0.5659890000000  0.5359990000000  0.4193420000000 1.0
C      1  0.5675640000000  0.4085660000000  0.5175690000000 1.0
C      1  0.5659580000000  0.5603290000000  0.5719500000000 1.0
C      1  0.5381490000000  0.4732270000000  0.5864510000000 1.0
C      1  0.5331680000000  0.5909140000000  0.4817140000000 1.0
C      1  0.5297930000000  0.4423280000000  0.4319580000000 1.0
C      1  0.5966520000000  0.5336660000000  0.5303370000000 1.0
C      1  0.5950020000000  0.5090380000000  0.4582900000000 1.0
C      1  0.5967820000000  0.4578620000000  0.5134960000000 1.0
C      1  0.6007810000000  0.5041190000000  0.5360860000000 1.0
C      1  0.6044050000000  0.5249450000000  0.4805090000000 1.0
C      1  0.6003890000000  0.4685880000000  0.4865090000000 1.0
C      1  0.5359540000000  0.5159000000000  0.3821180000000 1.0
C      1  0.5413300000000  0.4014920000000  0.5637060000000 1.0
C      1  0.5245090000000  0.5917260000000  0.5749290000000 1.0
C      1  0.5455590000000  0.4677090000000  0.4242650000000 1.0
C      1  0.5504540000000  0.4493520000000  0.5714780000000 1.0
C      1  0.5484330000000  0.5842490000000  0.5072120000000 1.0
C      1  0.4948850000000  0.4955780000000  0.5929160000000 1.0
C      1  0.4920890000000  0.5884970000000  0.4562480000000 1.0
C      1  0.4889610000000  0.4224750000000  0.4486720000000 1.0
C      1  0.5598470000000  0.4607610000000  0.3714190000000 1.0
C      1  0.5176200000000  0.4249480000000  0.6002070000000 1.0
C      1  0.5789660000000  0.6244720000000  0.5283080000000 1.0
C      1  0.4950220000000  0.4148830000000  0.5480310000000 1.0
C      1  0.4829510000000  0.5779000000000  0.5480760000000 1.0
C      1  0.4892790000000  0.5017720000000  0.4014380000000 1.0
C      1  0.4568900000000  0.5654620000000  0.5477220000000 1.0
C      1  0.4647100000000  0.5150910000000  0.3965410000000 1.0
C      1  0.4692880000000  0.4085460000000  0.5383370000000 1.0
C      1  0.5515680000000  0.5206730000000  0.4625840000000 1.0
C      1  0.5541800000000  0.4501220000000  0.5045160000000 1.0
C      1  0.5528990000000  0.5315560000000  0.5392100000000 1.0
C      1  0.4610830000000  0.5251170000000  0.5168760000000 1.0
C      1  0.4189380000000  0.5174070000000  0.4175480000000 1.0
C      1  0.4413460000000  0.4473790000000  0.5172130000000 1.0
C      1  0.4357540000000  0.5256750000000  0.6091140000000 1.0
C      1  0.4449190000000  0.5723500000000  0.4217350000000 1.0
C      1  0.4384070000000  0.3954180000000  0.4816460000000 1.0
C      1  0.4425550000000  0.5014320000000  0.4792200000000 1.0
C      1  0.4541330000000  0.4727250000000  0.5138000000000 1.0
C      1  0.4427330000000  0.5003030000000  0.5098460000000 1.0
C      1  0.3961800000000  0.5334890000000  0.4786650000000 1.0
C      1  0.3988590000000  0.4530310000000  0.4936330000000 1.0
C      1  0.4199690000000  0.5031300000000  0.5304420000000 1.0
C      1  0.4813470000000  0.4736240000000  0.5193570000000 1.0
C      1  0.4861710000000  0.5337080000000  0.5080720000000 1.0
C      1  0.4555890000000  0.4926330000000  0.4573830000000 1.0
C      1  0.5772720000000  0.4358700000000  0.5141360000000 1.0
C      1  0.5759380000000  0.5482580000000  0.5466590000000 1.0
C      1  0.5731860000000  0.5205780000000  0.4425540000000 1.0
C      1  0.5030560000000  0.4028480000000  0.4690090000000 1.0
C      1  0.5053220000000  0.5231830000000  0.6012440000000 1.0
C      1  0.5077780000000  0.5821050000000  0.4310700000000 1.0
C      1  0.5571130000000  0.5636240000000  0.4215240000000 1.0
C      1  0.5542980000000  0.3951410000000  0.4948600000000 1.0
C      1  0.5588290000000  0.5425380000000  0.5941020000000 1.0
C      1  0.4457080000000  0.5943910000000  0.4744940000000 1.0
C      1  0.4415060000000  0.4320380000000  0.4318920000000 1.0
C      1  0.4507760000000  0.4720200000000  0.5905820000000 1.0
C      1  0.5783870000000  0.5344140000000  0.6115690000000 1.0
C      1  0.5718170000000  0.5833830000000  0.4094400000000 1.0
C      1  0.5677680000000  0.3734940000000  0.4841530000000 1.0
C      1  0.4612530000000  0.4128550000000  0.4417140000000 1.0
C      1  0.4675960000000  0.4916060000000  0.6034790000000 1.0
C      1  0.4643070000000  0.5986200000000  0.4523650000000 1.0
C      1  0.5638990000000  0.6051350000000  0.5194790000000 1.0
C      1  0.5522930000000  0.4673540000000  0.3954780000000 1.0
C      1  0.5418760000000  0.4225930000000  0.5838890000000 1.0
C      1  0.3902590000000  0.5097450000000  0.4673690000000 1.0
C      1  0.3848890000000  0.4603420000000  0.5168750000000 1.0
C      1  0.4115710000000  0.5298550000000  0.5375790000000 1.0
C      1  0.4285540000000  0.4868080000000  0.5760560000000 1.0
C      1  0.4277250000000  0.5713610000000  0.4701340000000 1.0
C      1  0.4217920000000  0.4376530000000  0.4526290000000 1.0
C      1  0.5395540000000  0.4954540000000  0.5686740000000 1.0
C      1  0.5350980000000  0.5644160000000  0.4654880000000 1.0
C      1  0.5302070000000  0.4449170000000  0.4607130000000 1.0
C      1  0.5561770000000  0.5466850000000  0.4747000000000 1.0
C      1  0.5513460000000  0.4454990000000  0.4775890000000 1.0
C      1  0.5590950000000  0.5091240000000  0.5554790000000 1.0
C      1  0.5615260000000  0.3994520000000  0.5438670000000 1.0
C      1  0.5501370000000  0.5839350000000  0.5721450000000 1.0
C      1  0.5578410000000  0.5234440000000  0.3954980000000 1.0
C      1  0.4203310000000  0.5495750000000  0.5174550000000 1.0
C      1  0.3940150000000  0.4847690000000  0.4578170000000 1.0
C      1  0.3937070000000  0.4657380000000  0.5420720000000 1.0
C      1  0.4979470000000  0.5755130000000  0.5235630000000 1.0
C      1  0.4958070000000  0.4891960000000  0.4263480000000 1.0
C      1  0.5035730000000  0.4422420000000  0.5486330000000 1.0
C      1  0.5322410000000  0.5405370000000  0.5217630000000 1.0
C      1  0.5299560000000  0.5011040000000  0.4610600000000 1.0
C      1  0.5393120000000  0.4634520000000  0.5239280000000 1.0
C      1  0.5033660000000  0.4869780000000  0.5061520000000 1.0
END
