TITL C-3623285-6872-1590 -2.46332905485519e-07 125000 -1213.16967870817 0 0 191 (C1) n - 1
REM
REM in /home/nfs/bkarasulu/CARBON/AIRSS/Generating-Clusters/LCBOP/Higher-Symm/SD-CG/FIRE-CG
REM
REM
REM
REM
REM
REM ./C.cell (b20cbc046b6831c77cfcea5457e17084)
REM AIRSS Version 0.9.1 bugfix July 2018 build 013d7b7c2542+ Fri, 06 Jul 2018 19:26:36 +0100
REM compiler GCC version 9.2.1 20190827 (Red Hat 9.2.1-1)
REM options -cpp -mtune=generic -march=x86-64 -g -O0 -fpre-include=/usr/include/finclude/math-vector-fortran.h
REM seed -1890799220 445063436 -1358058487 -366705973 1365295883 1194398139 2058571364 1534509821 -920014991 -1879172828 -1652192977 1204273948 2103126118 -15113031 -268486646 106061053 -1570512806 1228974511 1827004002 5982531 1729035756 -1553151605 -576473121 -1652353849 260046279 40795900 -677851167 -532043381 -1006488027 587444911 1532954613 359413479 -1465701754
REM
CELL 1.54180   50.00000   50.00000   50.00000   90.00000   90.00000   90.00000
LATT -1
SFAC C  
C      1  0.4716540000000  0.4042480000000  0.5586110000000 1.0
C      1  0.3992610000000  0.4964100000000  0.5615450000000 1.0
C      1  0.4657880000000  0.5945840000000  0.5632770000000 1.0
C      1  0.5792930000000  0.5610800000000  0.5603800000000 1.0
C      1  0.5823320000000  0.4431810000000  0.5602210000000 1.0
C      1  0.5213410000000  0.4388920000000  0.4331120000000 1.0
C      1  0.4501760000000  0.4662160000000  0.4312660000000 1.0
C      1  0.4545820000000  0.5503620000000  0.4286780000000 1.0
C      1  0.5242450000000  0.5556940000000  0.4298660000000 1.0
C      1  0.5662470000000  0.4996460000000  0.4332020000000 1.0
C      1  0.5684140000000  0.5334210000000  0.4677490000000 1.0
C      1  0.5522960000000  0.4466790000000  0.4684950000000 1.0
C      1  0.4642860000000  0.4382770000000  0.4674340000000 1.0
C      1  0.4113830000000  0.4995560000000  0.4655620000000 1.0
C      1  0.4627190000000  0.5852760000000  0.4648920000000 1.0
C      1  0.5333590000000  0.6035440000000  0.5272690000000 1.0
C      1  0.6114410000000  0.4991590000000  0.5279910000000 1.0
C      1  0.5337090000000  0.3942290000000  0.5268070000000 1.0
C      1  0.4080350000000  0.4333830000000  0.5280160000000 1.0
C      1  0.4082510000000  0.5661340000000  0.5298140000000 1.0
C      1  0.4998370000000  0.5996480000000  0.4281110000000 1.0
C      1  0.6089750000000  0.5278560000000  0.4276420000000 1.0
C      1  0.5610980000000  0.4071240000000  0.4272490000000 1.0
C      1  0.4302310000000  0.4181200000000  0.4274040000000 1.0
C      1  0.4026770000000  0.5389080000000  0.4314570000000 1.0
C      1  0.4518110000000  0.5814710000000  0.4366400000000 1.0
C      1  0.5797590000000  0.5666560000000  0.4206730000000 1.0
C      1  0.5911310000000  0.4455640000000  0.4234290000000 1.0
C      1  0.4759330000000  0.4004110000000  0.4238560000000 1.0
C      1  0.3910430000000  0.4929070000000  0.4467760000000 1.0
C      1  0.4291600000000  0.5354490000000  0.4200140000000 1.0
C      1  0.5106220000000  0.5766150000000  0.4162660000000 1.0
C      1  0.5819570000000  0.5188950000000  0.4189310000000 1.0
C      1  0.5454830000000  0.4313970000000  0.4197630000000 1.0
C      1  0.4493280000000  0.4401570000000  0.4193140000000 1.0
C      1  0.5774050000000  0.5347450000000  0.5466570000000 1.0
C      1  0.5566540000000  0.4373300000000  0.5463730000000 1.0
C      1  0.4572680000000  0.4266210000000  0.5453630000000 1.0
C      1  0.4156550000000  0.5170370000000  0.5475010000000 1.0
C      1  0.4898750000000  0.5849250000000  0.5489410000000 1.0
C      1  0.4710550000000  0.4617360000000  0.6002440000000 1.0
C      1  0.4548450000000  0.5155070000000  0.6014890000000 1.0
C      1  0.5010630000000  0.5474980000000  0.6019000000000 1.0
C      1  0.5457510000000  0.5137240000000  0.6009960000000 1.0
C      1  0.5271190000000  0.4606260000000  0.6000920000000 1.0
C      1  0.4818000000000  0.5235360000000  0.5030570000000 1.0
C      1  0.5140330000000  0.5244860000000  0.5029470000000 1.0
C      1  0.5257810000000  0.4949960000000  0.5023810000000 1.0
C      1  0.5014770000000  0.4752330000000  0.5017670000000 1.0
C      1  0.4739330000000  0.4925230000000  0.5020340000000 1.0
C      1  0.4080700000000  0.5445290000000  0.5496380000000 1.0
C      1  0.5140670000000  0.5998440000000  0.5489300000000 1.0
C      1  0.5992450000000  0.5164230000000  0.5482890000000 1.0
C      1  0.5459160000000  0.4108960000000  0.5475340000000 1.0
C      1  0.4288230000000  0.4272990000000  0.5476970000000 1.0
C      1  0.4077370000000  0.5942270000000  0.4621290000000 1.0
C      1  0.5537310000000  0.5979920000000  0.4581980000000 1.0
C      1  0.6175380000000  0.4749740000000  0.4615200000000 1.0
C      1  0.5124540000000  0.3825560000000  0.4607570000000 1.0
C      1  0.3809750000000  0.4457380000000  0.4655850000000 1.0
C      1  0.3936280000000  0.5631360000000  0.5043690000000 1.0
C      1  0.5245060000000  0.6135010000000  0.5009970000000 1.0
C      1  0.6209630000000  0.5099080000000  0.5024500000000 1.0
C      1  0.5470390000000  0.3887380000000  0.5014310000000 1.0
C      1  0.4065500000000  0.4187000000000  0.5025120000000 1.0
C      1  0.3995400000000  0.5711560000000  0.4763220000000 1.0
C      1  0.5299310000000  0.6065000000000  0.4721110000000 1.0
C      1  0.6203760000000  0.5005580000000  0.4737940000000 1.0
C      1  0.5378990000000  0.3868910000000  0.4728360000000 1.0
C      1  0.3997680000000  0.4267840000000  0.4744890000000 1.0
C      1  0.4379450000000  0.4946880000000  0.5918820000000 1.0
C      1  0.4757920000000  0.5572250000000  0.5931400000000 1.0
C      1  0.5470680000000  0.5407680000000  0.5919160000000 1.0
C      1  0.5531060000000  0.4678860000000  0.5909930000000 1.0
C      1  0.4857540000000  0.4393960000000  0.5903240000000 1.0
C      1  0.5061730000000  0.6074330000000  0.4551730000000 1.0
C      1  0.6142910000000  0.5224400000000  0.4555900000000 1.0
C      1  0.5568610000000  0.3997950000000  0.4549420000000 1.0
C      1  0.4201520000000  0.4195030000000  0.4548700000000 1.0
C      1  0.4027620000000  0.5485230000000  0.4589590000000 1.0
C      1  0.5532090000000  0.4600410000000  0.5289660000000 1.0
C      1  0.4770990000000  0.4377950000000  0.5276930000000 1.0
C      1  0.4320190000000  0.5016320000000  0.5294210000000 1.0
C      1  0.4803000000000  0.5657210000000  0.5300600000000 1.0
C      1  0.5551600000000  0.5385550000000  0.5288090000000 1.0
C      1  0.6075600000000  0.5570120000000  0.4215730000000 1.0
C      1  0.5887630000000  0.4162990000000  0.4217140000000 1.0
C      1  0.4472440000000  0.3942880000000  0.4224940000000 1.0
C      1  0.3860300000000  0.5149220000000  0.4289600000000 1.0
C      1  0.4711220000000  0.6002910000000  0.4216920000000 1.0
C      1  0.5478760000000  0.3985710000000  0.5723260000000 1.0
C      1  0.4189960000000  0.4206730000000  0.5728040000000 1.0
C      1  0.3985290000000  0.5521420000000  0.5745710000000 1.0
C      1  0.5200780000000  0.6131370000000  0.5724640000000 1.0
C      1  0.6114860000000  0.5150370000000  0.5731680000000 1.0
C      1  0.5141590000000  0.5241350000000  0.5572070000000 1.0
C      1  0.5264120000000  0.4942260000000  0.5568360000000 1.0
C      1  0.5016810000000  0.4734360000000  0.5564030000000 1.0
C      1  0.4743180000000  0.4904480000000  0.5567860000000 1.0
C      1  0.4819190000000  0.5217850000000  0.5573360000000 1.0
C      1  0.6265000000000  0.5381500000000  0.5049340000000 1.0
C      1  0.5755640000000  0.3922660000000  0.5040050000000 1.0
C      1  0.4206140000000  0.3936400000000  0.5038540000000 1.0
C      1  0.3741300000000  0.5419900000000  0.5058800000000 1.0
C      1  0.5014740000000  0.6305870000000  0.5044350000000 1.0
C      1  0.4352440000000  0.5091860000000  0.4103470000000 1.0
C      1  0.4930710000000  0.5660080000000  0.3962580000000 1.0
C      1  0.5657180000000  0.5421020000000  0.4114310000000 1.0
C      1  0.5637970000000  0.4542140000000  0.4161300000000 1.0
C      1  0.4767540000000  0.4289730000000  0.4160150000000 1.0
C      1  0.4810380000000  0.6064720000000  0.4682290000000 1.0
C      1  0.5953650000000  0.5396890000000  0.4678790000000 1.0
C      1  0.5667120000000  0.4230760000000  0.4680010000000 1.0
C      1  0.4446130000000  0.4192040000000  0.4690580000000 1.0
C      1  0.4127910000000  0.5265230000000  0.4727160000000 1.0
C      1  0.5526390000000  0.4802330000000  0.4175050000000 1.0
C      1  0.4993330000000  0.4465100000000  0.4170630000000 1.0
C      1  0.4539750000000  0.4886080000000  0.4143040000000 1.0
C      1  0.4775830000000  0.5438110000000  0.4038740000000 1.0
C      1  0.5377830000000  0.5382450000000  0.4115700000000 1.0
C      1  0.4201790000000  0.5900050000000  0.5400230000000 1.0
C      1  0.5601920000000  0.6018160000000  0.5365640000000 1.0
C      1  0.6170110000000  0.4730600000000  0.5378580000000 1.0
C      1  0.5104800000000  0.3807020000000  0.5359000000000 1.0
C      1  0.3885950000000  0.4515280000000  0.5384750000000 1.0
C      1  0.4453080000000  0.6025620000000  0.5440040000000 1.0
C      1  0.5802470000000  0.5822690000000  0.5403210000000 1.0
C      1  0.6030440000000  0.4487050000000  0.5405490000000 1.0
C      1  0.4831290000000  0.3867680000000  0.5384090000000 1.0
C      1  0.3855210000000  0.4794620000000  0.5420990000000 1.0
C      1  0.4805800000000  0.4125910000000  0.5840090000000 1.0
C      1  0.4106750000000  0.4909840000000  0.5867350000000 1.0
C      1  0.4641420000000  0.5822140000000  0.5884680000000 1.0
C      1  0.5672110000000  0.5592850000000  0.5857930000000 1.0
C      1  0.5769920000000  0.4543760000000  0.5854990000000 1.0
C      1  0.6131060000000  0.5612720000000  0.5085440000000 1.0
C      1  0.5931440000000  0.4123600000000  0.5077660000000 1.0
C      1  0.4458290000000  0.3843740000000  0.5056690000000 1.0
C      1  0.3721320000000  0.5153300000000  0.5089710000000 1.0
C      1  0.4756090000000  0.6278030000000  0.5116640000000 1.0
C      1  0.4538950000000  0.4825490000000  0.4802210000000 1.0
C      1  0.4658180000000  0.5401390000000  0.4815010000000 1.0
C      1  0.5245740000000  0.5422840000000  0.4803120000000 1.0
C      1  0.5484910000000  0.4916080000000  0.4811200000000 1.0
C      1  0.5061440000000  0.4531790000000  0.4804340000000 1.0
C      1  0.4848620000000  0.4792470000000  0.6191220000000 1.0
C      1  0.4762010000000  0.5076160000000  0.6197410000000 1.0
C      1  0.5005230000000  0.5246360000000  0.6199590000000 1.0
C      1  0.5242240000000  0.5069120000000  0.6195310000000 1.0
C      1  0.5145020000000  0.4788300000000  0.6190170000000 1.0
C      1  0.3870810000000  0.4927690000000  0.5162720000000 1.0
C      1  0.4585890000000  0.6065470000000  0.5184350000000 1.0
C      1  0.5873200000000  0.5705780000000  0.5145480000000 1.0
C      1  0.5938030000000  0.4396100000000  0.5145090000000 1.0
C      1  0.4716270000000  0.3931400000000  0.5124740000000 1.0
C      1  0.5086130000000  0.4528760000000  0.5791740000000 1.0
C      1  0.4574710000000  0.4772670000000  0.5798820000000 1.0
C      1  0.4648670000000  0.5334750000000  0.5810770000000 1.0
C      1  0.5206530000000  0.5437850000000  0.5808500000000 1.0
C      1  0.5477050000000  0.4939140000000  0.5799700000000 1.0
C      1  0.5253820000000  0.4479720000000  0.4601290000000 1.0
C      1  0.4586920000000  0.4647080000000  0.4587400000000 1.0
C      1  0.4679420000000  0.5339800000000  0.4536070000000 1.0
C      1  0.5150640000000  0.5422260000000  0.4534650000000 1.0
C      1  0.5590990000000  0.5076940000000  0.4600340000000 1.0
C      1  0.5634260000000  0.5557160000000  0.5074170000000 1.0
C      1  0.5723930000000  0.4579520000000  0.5078390000000 1.0
C      1  0.4811330000000  0.4195750000000  0.5058600000000 1.0
C      1  0.4152250000000  0.4902300000000  0.5096430000000 1.0
C      1  0.4653240000000  0.5794690000000  0.5104050000000 1.0
C      1  0.5265870000000  0.5338380000000  0.5304020000000 1.0
C      1  0.5392320000000  0.4853590000000  0.5300910000000 1.0
C      1  0.4967780000000  0.4590220000000  0.5293310000000 1.0
C      1  0.4586170000000  0.4907530000000  0.5300750000000 1.0
C      1  0.4767830000000  0.5371500000000  0.5308520000000 1.0
C      1  0.3782930000000  0.4683600000000  0.4512890000000 1.0
C      1  0.4242860000000  0.5934640000000  0.4402730000000 1.0
C      1  0.5683230000000  0.5860630000000  0.4384120000000 1.0
C      1  0.6082420000000  0.4594080000000  0.4413460000000 1.0
C      1  0.4943730000000  0.3876390000000  0.4412120000000 1.0
C      1  0.5211530000000  0.5165910000000  0.4022740000000 1.0
C      1  0.5273220000000  0.4880460000000  0.4065950000000 1.0
C      1  0.5017030000000  0.4731380000000  0.4069300000000 1.0
C      1  0.4801770000000  0.4924450000000  0.4043040000000 1.0
C      1  0.4912060000000  0.5189640000000  0.4005360000000 1.0
C      1  0.4606040000000  0.5674970000000  0.4861320000000 1.0
C      1  0.5518160000000  0.5491560000000  0.4832580000000 1.0
C      1  0.5622500000000  0.4670490000000  0.4839110000000 1.0
C      1  0.4867000000000  0.4329540000000  0.4823080000000 1.0
C      1  0.4259510000000  0.4857290000000  0.4846290000000 1.0
C      1  0.4936900000000  0.5246050000000  0.4485030000000 1.0
END
