TITL C-3623286-7563-63 -28327.8938712584 125000 -1179.86874231604 0 0 188 (C1) n - 1
REM
REM in /home/nfs/bkarasulu/CARBON/AIRSS/Generating-Clusters/LCBOP/Higher-Symm/SD-CG/FIRE-CG
REM
REM
REM
REM
REM
REM ./C.cell (b20cbc046b6831c77cfcea5457e17084)
REM AIRSS Version 0.9.1 bugfix July 2018 build 013d7b7c2542+ Fri, 06 Jul 2018 19:26:36 +0100
REM compiler GCC version 9.2.1 20190827 (Red Hat 9.2.1-1)
REM options -cpp -mtune=generic -march=x86-64 -g -O0 -fpre-include=/usr/include/finclude/math-vector-fortran.h
REM seed -1241397481 -902956253 -1357425303 1074642060 -281735894 1724589067 1763391957 1798416762 494709757 -354670992 748324651 1913463822 1966499587 -205423755 -2079319590 -844140899 -1717707381 764479923 734162256 -1834542773 -553875974 470711799 575444231 1376685634 -210675681 480770896 2002859173 647165244 1243396740 -919983470 1510559828 -204938613 818784746
REM
CELL 1.54180   50.00000   50.00000   50.00000   90.00000   90.00000   90.00000
LATT -1
SFAC C  
C      1  0.4382040000000  0.5913680000000  0.4777630000000 1.0
C      1  0.4778950000000  0.4402670000000  0.5846740000000 1.0
C      1  0.5889510000000  0.4746090000000  0.4392790000000 1.0
C      1  0.5621250000000  0.4078090000000  0.4759680000000 1.0
C      1  0.5595620000000  0.5874160000000  0.5242000000000 1.0
C      1  0.4415340000000  0.4144430000000  0.5208670000000 1.0
C      1  0.5225770000000  0.5604720000000  0.5906110000000 1.0
C      1  0.5221940000000  0.4375030000000  0.4149060000000 1.0
C      1  0.4773030000000  0.5607750000000  0.4143710000000 1.0
C      1  0.4132580000000  0.5231580000000  0.4411780000000 1.0
C      1  0.4144520000000  0.4772500000000  0.5619360000000 1.0
C      1  0.5867710000000  0.5213790000000  0.5631720000000 1.0
C      1  0.4383070000000  0.5917770000000  0.5255170000000 1.0
C      1  0.4763720000000  0.4375260000000  0.4132470000000 1.0
C      1  0.5878040000000  0.4744030000000  0.5628620000000 1.0
C      1  0.5608460000000  0.4095300000000  0.5222190000000 1.0
C      1  0.5602710000000  0.5879350000000  0.4778980000000 1.0
C      1  0.4399300000000  0.4131840000000  0.4767790000000 1.0
C      1  0.5214300000000  0.5597190000000  0.4143060000000 1.0
C      1  0.5217370000000  0.4404510000000  0.5832910000000 1.0
C      1  0.4766190000000  0.5613740000000  0.5905940000000 1.0
C      1  0.4146640000000  0.5234880000000  0.5625560000000 1.0
C      1  0.4122320000000  0.4777180000000  0.4402320000000 1.0
C      1  0.5881220000000  0.5213340000000  0.4397550000000 1.0
C      1  0.4850430000000  0.6106480000000  0.4705510000000 1.0
C      1  0.4715260000000  0.4852930000000  0.6068970000000 1.0
C      1  0.6078830000000  0.4670210000000  0.4863510000000 1.0
C      1  0.5141310000000  0.3871190000000  0.4697530000000 1.0
C      1  0.5142870000000  0.6089820000000  0.5338900000000 1.0
C      1  0.4858220000000  0.3926850000000  0.5272730000000 1.0
C      1  0.5280610000000  0.5131870000000  0.6085040000000 1.0
C      1  0.5276200000000  0.4842280000000  0.3963920000000 1.0
C      1  0.4712970000000  0.5141630000000  0.3925230000000 1.0
C      1  0.3932430000000  0.5300250000000  0.4877870000000 1.0
C      1  0.3957940000000  0.4728300000000  0.5153630000000 1.0
C      1  0.6032860000000  0.5254190000000  0.5157550000000 1.0
C      1  0.4858050000000  0.6106170000000  0.5344920000000 1.0
C      1  0.4713760000000  0.4850310000000  0.3932770000000 1.0
C      1  0.6060570000000  0.4680950000000  0.5148760000000 1.0
C      1  0.5142680000000  0.3916780000000  0.5275500000000 1.0
C      1  0.5146040000000  0.6094110000000  0.4704780000000 1.0
C      1  0.4848970000000  0.3871780000000  0.4694190000000 1.0
C      1  0.5270860000000  0.5125720000000  0.3977910000000 1.0
C      1  0.5282340000000  0.4846280000000  0.6069920000000 1.0
C      1  0.4707190000000  0.5137020000000  0.6097080000000 1.0
C      1  0.3961240000000  0.5292790000000  0.5162090000000 1.0
C      1  0.3914470000000  0.4716750000000  0.4870070000000 1.0
C      1  0.6050010000000  0.5261170000000  0.4869430000000 1.0
C      1  0.5960170000000  0.4441150000000  0.5279960000000 1.0
C      1  0.5283160000000  0.5993470000000  0.4453250000000 1.0
C      1  0.4456870000000  0.5281440000000  0.6007700000000 1.0
C      1  0.4044210000000  0.5544470000000  0.5295170000000 1.0
C      1  0.4013790000000  0.4464820000000  0.4725730000000 1.0
C      1  0.5958850000000  0.5518200000000  0.4738460000000 1.0
C      1  0.4706160000000  0.3989640000000  0.4447650000000 1.0
C      1  0.4721680000000  0.5981930000000  0.5570340000000 1.0
C      1  0.5272480000000  0.4014240000000  0.5523570000000 1.0
C      1  0.5530220000000  0.4704980000000  0.5980310000000 1.0
C      1  0.5519110000000  0.5258330000000  0.4059790000000 1.0
C      1  0.4460890000000  0.4718030000000  0.4029540000000 1.0
C      1  0.5974400000000  0.4432460000000  0.4724240000000 1.0
C      1  0.5276680000000  0.5966300000000  0.5565170000000 1.0
C      1  0.4460820000000  0.5282920000000  0.4029630000000 1.0
C      1  0.4035470000000  0.5545900000000  0.4742580000000 1.0
C      1  0.4043910000000  0.4475600000000  0.5279250000000 1.0
C      1  0.5955260000000  0.5515950000000  0.5289850000000 1.0
C      1  0.4726410000000  0.4026310000000  0.5519770000000 1.0
C      1  0.4711430000000  0.6009960000000  0.4451940000000 1.0
C      1  0.5281930000000  0.3978130000000  0.4447370000000 1.0
C      1  0.5528420000000  0.4705810000000  0.4043880000000 1.0
C      1  0.5529630000000  0.5263100000000  0.5990940000000 1.0
C      1  0.4469160000000  0.4716530000000  0.5980500000000 1.0
C      1  0.5230890000000  0.5377890000000  0.4769470000000 1.0
C      1  0.4799500000000  0.5330270000000  0.5443920000000 1.0
C      1  0.5389690000000  0.4757170000000  0.5226800000000 1.0
C      1  0.4789140000000  0.4525700000000  0.4761350000000 1.0
C      1  0.4698250000000  0.5535320000000  0.5009250000000 1.0
C      1  0.5330530000000  0.4540580000000  0.5062320000000 1.0
C      1  0.5167200000000  0.4813260000000  0.5394940000000 1.0
C      1  0.5051220000000  0.5189950000000  0.4637450000000 1.0
C      1  0.4680400000000  0.4693780000000  0.4579400000000 1.0
C      1  0.4623420000000  0.5369830000000  0.5227920000000 1.0
C      1  0.4485270000000  0.4831820000000  0.4707290000000 1.0
C      1  0.5480610000000  0.5240810000000  0.4775100000000 1.0
C      1  0.5181180000000  0.5494950000000  0.5032110000000 1.0
C      1  0.4755590000000  0.5229240000000  0.4616740000000 1.0
C      1  0.5495000000000  0.4963550000000  0.4725410000000 1.0
C      1  0.4774470000000  0.4555850000000  0.5040370000000 1.0
C      1  0.4729750000000  0.5497330000000  0.4727110000000 1.0
C      1  0.5325170000000  0.4533490000000  0.4777060000000 1.0
C      1  0.5347260000000  0.4754130000000  0.4611850000000 1.0
C      1  0.5085350000000  0.5336700000000  0.5455920000000 1.0
C      1  0.4874000000000  0.4809370000000  0.5397470000000 1.0
C      1  0.4537230000000  0.5106610000000  0.4744600000000 1.0
C      1  0.4675280000000  0.4739150000000  0.5218360000000 1.0
C      1  0.5265730000000  0.5381980000000  0.5263780000000 1.0
C      1  0.5839240000000  0.4226590000000  0.5135470000000 1.0
C      1  0.5137330000000  0.5862410000000  0.4235590000000 1.0
C      1  0.4252250000000  0.5138720000000  0.5868210000000 1.0
C      1  0.4161870000000  0.5768220000000  0.5157480000000 1.0
C      1  0.4158740000000  0.4256650000000  0.4858840000000 1.0
C      1  0.5833290000000  0.5740180000000  0.4873450000000 1.0
C      1  0.4853480000000  0.4127110000000  0.4241790000000 1.0
C      1  0.4860320000000  0.5845520000000  0.5778510000000 1.0
C      1  0.5135510000000  0.4157740000000  0.5725020000000 1.0
C      1  0.5749380000000  0.4841760000000  0.5862710000000 1.0
C      1  0.5740530000000  0.5120250000000  0.4173660000000 1.0
C      1  0.4250990000000  0.4863730000000  0.4164060000000 1.0
C      1  0.5848090000000  0.4216690000000  0.4858250000000 1.0
C      1  0.5137600000000  0.5839960000000  0.5778250000000 1.0
C      1  0.4251710000000  0.5141910000000  0.4167990000000 1.0
C      1  0.4160650000000  0.5766740000000  0.4878410000000 1.0
C      1  0.4171830000000  0.4266360000000  0.5134440000000 1.0
C      1  0.5830840000000  0.5738830000000  0.5152170000000 1.0
C      1  0.4861280000000  0.4158630000000  0.5730250000000 1.0
C      1  0.4853720000000  0.5872800000000  0.4235930000000 1.0
C      1  0.5132580000000  0.4125760000000  0.4248420000000 1.0
C      1  0.5747060000000  0.4842870000000  0.4167580000000 1.0
C      1  0.5742320000000  0.5119630000000  0.5862730000000 1.0
C      1  0.4255580000000  0.4861110000000  0.5861360000000 1.0
C      1  0.5529780000000  0.5853350000000  0.5510020000000 1.0
C      1  0.5490550000000  0.5526880000000  0.5888070000000 1.0
C      1  0.5858970000000  0.5479640000000  0.5556900000000 1.0
C      1  0.4472090000000  0.4139980000000  0.5477170000000 1.0
C      1  0.4452190000000  0.5893590000000  0.4507190000000 1.0
C      1  0.5548690000000  0.4088000000000  0.4491180000000 1.0
C      1  0.4512020000000  0.4462240000000  0.5858810000000 1.0
C      1  0.4504220000000  0.5544000000000  0.4143880000000 1.0
C      1  0.5489230000000  0.4442100000000  0.4145260000000 1.0
C      1  0.4143490000000  0.4508100000000  0.5542560000000 1.0
C      1  0.4142330000000  0.5499220000000  0.4481800000000 1.0
C      1  0.5869460000000  0.4479170000000  0.4463690000000 1.0
C      1  0.5540580000000  0.5872430000000  0.4507360000000 1.0
C      1  0.5480690000000  0.5522410000000  0.4156670000000 1.0
C      1  0.5859790000000  0.5479150000000  0.4473800000000 1.0
C      1  0.4451680000000  0.4119830000000  0.4497190000000 1.0
C      1  0.4461070000000  0.5882590000000  0.5520090000000 1.0
C      1  0.5536010000000  0.4111010000000  0.5487510000000 1.0
C      1  0.4496840000000  0.4451690000000  0.4131890000000 1.0
C      1  0.4498310000000  0.5546930000000  0.5900440000000 1.0
C      1  0.5485160000000  0.4453360000000  0.5854470000000 1.0
C      1  0.4121470000000  0.4507140000000  0.4463170000000 1.0
C      1  0.4145120000000  0.5502280000000  0.5558040000000 1.0
C      1  0.5861680000000  0.4480980000000  0.5544310000000 1.0
C      1  0.4390360000000  0.5227460000000  0.5173310000000 1.0
C      1  0.5174710000000  0.4333340000000  0.5159470000000 1.0
C      1  0.5155350000000  0.5105000000000  0.4396160000000 1.0
C      1  0.5645190000000  0.4872980000000  0.5164310000000 1.0
C      1  0.5629350000000  0.5313920000000  0.5000440000000 1.0
C      1  0.4331100000000  0.4770100000000  0.4916950000000 1.0
C      1  0.4821850000000  0.5780910000000  0.5062130000000 1.0
C      1  0.4918040000000  0.4294810000000  0.4724200000000 1.0
C      1  0.5175120000000  0.5607900000000  0.4604650000000 1.0
C      1  0.4771430000000  0.4829600000000  0.4361140000000 1.0
C      1  0.4745340000000  0.5169350000000  0.5667820000000 1.0
C      1  0.5216040000000  0.4917330000000  0.5648050000000 1.0
C      1  0.4347060000000  0.5188400000000  0.4908540000000 1.0
C      1  0.5188260000000  0.4299960000000  0.4728520000000 1.0
C      1  0.5177520000000  0.5186500000000  0.5667950000000 1.0
C      1  0.5701720000000  0.4884040000000  0.4887120000000 1.0
C      1  0.5529830000000  0.5312700000000  0.5249710000000 1.0
C      1  0.4404190000000  0.4795000000000  0.5177790000000 1.0
C      1  0.4913410000000  0.5664810000000  0.4604430000000 1.0
C      1  0.4902000000000  0.4340410000000  0.5151260000000 1.0
C      1  0.5106240000000  0.5760430000000  0.5050740000000 1.0
C      1  0.4783910000000  0.4898820000000  0.5643240000000 1.0
C      1  0.4728250000000  0.5101970000000  0.4354060000000 1.0
C      1  0.5203490000000  0.4833620000000  0.4390970000000 1.0
C      1  0.5927960000000  0.4970820000000  0.5351800000000 1.0
C      1  0.5315510000000  0.5962970000000  0.5005970000000 1.0
C      1  0.4982280000000  0.5318830000000  0.5944330000000 1.0
C      1  0.4132650000000  0.5006140000000  0.5335790000000 1.0
C      1  0.4066920000000  0.5003040000000  0.4699280000000 1.0
C      1  0.5974550000000  0.4974380000000  0.4673320000000 1.0
C      1  0.4659260000000  0.6003940000000  0.5011890000000 1.0
C      1  0.5326650000000  0.4038480000000  0.4977440000000 1.0
C      1  0.5000610000000  0.4702650000000  0.5885090000000 1.0
C      1  0.4982890000000  0.5300310000000  0.4125780000000 1.0
C      1  0.4703360000000  0.4073330000000  0.4970310000000 1.0
C      1  0.4992980000000  0.4666910000000  0.4121990000000 1.0
C      1  0.5649010000000  0.4322610000000  0.5653920000000 1.0
C      1  0.5650490000000  0.5646000000000  0.4356420000000 1.0
C      1  0.4345030000000  0.5668130000000  0.5681990000000 1.0
C      1  0.5659960000000  0.4315060000000  0.4341860000000 1.0
C      1  0.4343240000000  0.5666450000000  0.4355030000000 1.0
C      1  0.4352000000000  0.4342010000000  0.5649710000000 1.0
C      1  0.4329500000000  0.4336120000000  0.4340400000000 1.0
C      1  0.5649160000000  0.5643320000000  0.5672860000000 1.0
END
