TITL C-3623289-7120-314 -1.54118112709407e-06 125000 -723.180157499257 0 0 119 (C2h) n - 1
REM
REM in /home/nfs/bkarasulu/CARBON/AIRSS/Generating-Clusters/LCBOP/Higher-Symm/SD-CG/FIRE-CG
REM
REM
REM
REM
REM
REM ./C.cell (b20cbc046b6831c77cfcea5457e17084)
REM AIRSS Version 0.9.1 bugfix July 2018 build 013d7b7c2542+ Fri, 06 Jul 2018 19:26:36 +0100
REM compiler GCC version 9.2.1 20190827 (Red Hat 9.2.1-1)
REM options -cpp -mtune=generic -march=x86-64 -g -O0 -fpre-include=/usr/include/finclude/math-vector-fortran.h
REM seed 536624728 182389464 -1636551495 1649964945 999327410 1535119147 -216388739 -1652742391 -2026887424 -541095643 -1165710320 1779044111 501271936 -895859624 -1845062660 -55474606 1281817915 -111942105 491863901 -1928870228 -1113761390 -1564901931 1771780711 18204116 -1915338967 1337909945 -1358786562 410316120 1443538312 434758997 -226107068 -2137929909 708212879
REM
CELL 1.54180   50.00000   50.00000   50.00000   90.00000   90.00000   90.00000
LATT -1
SFAC C  
C      1  0.5811510000000  0.5796190000000  0.5317710000000 1.0
C      1  0.4187460000000  0.4203080000000  0.5317570000000 1.0
C      1  0.5811550000000  0.5796210000000  0.4687770000000 1.0
C      1  0.4187500000000  0.4203090000000  0.4687620000000 1.0
C      1  0.5482060000000  0.4298760000000  0.5319970000000 1.0
C      1  0.4516900000000  0.5700520000000  0.5319930000000 1.0
C      1  0.5482110000000  0.4298770000000  0.4685410000000 1.0
C      1  0.4516950000000  0.5700530000000  0.4685360000000 1.0
C      1  0.4344880000000  0.4193790000000  0.5574160000000 1.0
C      1  0.5654050000000  0.5805470000000  0.5574280000000 1.0
C      1  0.4344960000000  0.4193810000000  0.4431060000000 1.0
C      1  0.5654130000000  0.5805500000000  0.4431180000000 1.0
C      1  0.4165530000000  0.5415810000000  0.5137310000000 1.0
C      1  0.5833470000000  0.4583470000000  0.5137410000000 1.0
C      1  0.4165540000000  0.5415820000000  0.4867920000000 1.0
C      1  0.5833480000000  0.4583470000000  0.4868030000000 1.0
C      1  0.4307890000000  0.4402530000000  0.5146960000000 1.0
C      1  0.5691100000000  0.5596750000000  0.5147080000000 1.0
C      1  0.4307910000000  0.4402530000000  0.4858260000000 1.0
C      1  0.5691120000000  0.5596760000000  0.4858380000000 1.0
C      1  0.4890160000000  0.5458910000000  0.4857950000000 1.0
C      1  0.5108870000000  0.4540380000000  0.4857940000000 1.0
C      1  0.4890140000000  0.5458910000000  0.5147390000000 1.0
C      1  0.5108850000000  0.4540370000000  0.5147390000000 1.0
C      1  0.5055710000000  0.4359850000000  0.4384210000000 1.0
C      1  0.4943390000000  0.5639460000000  0.4384220000000 1.0
C      1  0.5055620000000  0.4359830000000  0.5621110000000 1.0
C      1  0.4943300000000  0.5639430000000  0.5621130000000 1.0
C      1  0.4757050000000  0.4247500000000  0.5146610000000 1.0
C      1  0.5241940000000  0.5751780000000  0.5146680000000 1.0
C      1  0.4757070000000  0.4247510000000  0.4858660000000 1.0
C      1  0.5241960000000  0.5751780000000  0.4858720000000 1.0
C      1  0.4824580000000  0.4652580000000  0.5908540000000 1.0
C      1  0.5174300000000  0.5346670000000  0.5908580000000 1.0
C      1  0.4824710000000  0.4652610000000  0.4096750000000 1.0
C      1  0.5174430000000  0.5346710000000  0.4096790000000 1.0
C      1  0.4555170000000  0.3714490000000  0.4867670000000 1.0
C      1  0.5443860000000  0.6284800000000  0.4867780000000 1.0
C      1  0.4555150000000  0.3714480000000  0.5137560000000 1.0
C      1  0.5443840000000  0.6284800000000  0.5137670000000 1.0
C      1  0.4420030000000  0.5896530000000  0.4867300000000 1.0
C      1  0.5579000000000  0.4102760000000  0.4867350000000 1.0
C      1  0.4420020000000  0.5896520000000  0.5137990000000 1.0
C      1  0.5578980000000  0.4102760000000  0.5138040000000 1.0
C      1  0.5182890000000  0.4317670000000  0.4656940000000 1.0
C      1  0.4816160000000  0.5681630000000  0.4656940000000 1.0
C      1  0.5182850000000  0.4317660000000  0.5348400000000 1.0
C      1  0.4816120000000  0.5681610000000  0.5348400000000 1.0
C      1  0.4619060000000  0.5281130000000  0.4290850000000 1.0
C      1  0.5380050000000  0.4718180000000  0.4290890000000 1.0
C      1  0.4618960000000  0.5281100000000  0.5714440000000 1.0
C      1  0.5379950000000  0.4718160000000  0.5714480000000 1.0
C      1  0.5624590000000  0.5585210000000  0.4246350000000 1.0
C      1  0.4374530000000  0.4414100000000  0.4246240000000 1.0
C      1  0.5624480000000  0.5585180000000  0.5759100000000 1.0
C      1  0.4374420000000  0.4414070000000  0.5758990000000 1.0
C      1  0.5458360000000  0.4999810000000  0.4740850000000 1.0
C      1  0.4540690000000  0.4999490000000  0.4740780000000 1.0
C      1  0.5458320000000  0.4999800000000  0.5264550000000 1.0
C      1  0.4540650000000  0.4999480000000  0.5264490000000 1.0
C      1  0.5407560000000  0.5966840000000  0.5568720000000 1.0
C      1  0.4591370000000  0.4032430000000  0.5568630000000 1.0
C      1  0.5407640000000  0.5966860000000  0.4436710000000 1.0
C      1  0.4591450000000  0.4032450000000  0.4436610000000 1.0
C      1  0.4644640000000  0.4723730000000  0.4722540000000 1.0
C      1  0.5354410000000  0.5275570000000  0.4722600000000 1.0
C      1  0.4644600000000  0.4723720000000  0.5282730000000 1.0
C      1  0.5354370000000  0.5275560000000  0.5282790000000 1.0
C      1  0.4835460000000  0.4166250000000  0.5671430000000 1.0
C      1  0.5163450000000  0.5833010000000  0.5671480000000 1.0
C      1  0.4835560000000  0.4166280000000  0.4333850000000 1.0
C      1  0.5163550000000  0.5833030000000  0.4333910000000 1.0
C      1  0.4585530000000  0.3811190000000  0.5388170000000 1.0
C      1  0.5413420000000  0.6188080000000  0.5388270000000 1.0
C      1  0.4585590000000  0.3811210000000  0.4617060000000 1.0
C      1  0.5413480000000  0.6188090000000  0.4617170000000 1.0
C      1  0.5076500000000  0.4653120000000  0.4279250000000 1.0
C      1  0.4922610000000  0.5346190000000  0.4279260000000 1.0
C      1  0.5076400000000  0.4653090000000  0.5726080000000 1.0
C      1  0.4922510000000  0.5346160000000  0.5726080000000 1.0
C      1  0.4992260000000  0.4107090000000  0.5249720000000 1.0
C      1  0.5006720000000  0.5892190000000  0.5249760000000 1.0
C      1  0.4992290000000  0.4107100000000  0.4755580000000 1.0
C      1  0.5006750000000  0.5892200000000  0.4755610000000 1.0
C      1  0.5959610000000  0.5972270000000  0.5141900000000 1.0
C      1  0.4039380000000  0.4027010000000  0.5141730000000 1.0
C      1  0.5959630000000  0.5972280000000  0.4863610000000 1.0
C      1  0.4039400000000  0.4027010000000  0.4863430000000 1.0
C      1  0.5080370000000  0.3863380000000  0.5138320000000 1.0
C      1  0.4918620000000  0.6135900000000  0.5138360000000 1.0
C      1  0.5080390000000  0.3863390000000  0.4866980000000 1.0
C      1  0.4918640000000  0.6135900000000  0.4867010000000 1.0
C      1  0.4364360000000  0.5453290000000  0.5335410000000 1.0
C      1  0.5634600000000  0.4545990000000  0.5335480000000 1.0
C      1  0.4364410000000  0.5453300000000  0.4669860000000 1.0
C      1  0.5634650000000  0.4546000000000  0.4669930000000 1.0
C      1  0.5427010000000  0.5542970000000  0.5240760000000 1.0
C      1  0.4571970000000  0.4456310000000  0.5240680000000 1.0
C      1  0.5427040000000  0.5542980000000  0.4764650000000 1.0
C      1  0.4572000000000  0.4456320000000  0.4764570000000 1.0
C      1  0.5515320000000  0.4779780000000  0.5458310000000 1.0
C      1  0.4483630000000  0.5219490000000  0.5458240000000 1.0
C      1  0.5515390000000  0.4779790000000  0.4547090000000 1.0
C      1  0.4483690000000  0.5219510000000  0.4547030000000 1.0
C      1  0.4566850000000  0.4565300000000  0.4124800000000 1.0
C      1  0.5432290000000  0.5434020000000  0.4124870000000 1.0
C      1  0.4566720000000  0.4565270000000  0.5880460000000 1.0
C      1  0.5432160000000  0.5433980000000  0.5880540000000 1.0
C      1  0.4941890000000  0.4757660000000  0.5257300000000 1.0
C      1  0.5057080000000  0.5241620000000  0.5257320000000 1.0
C      1  0.4941930000000  0.4757670000000  0.4748020000000 1.0
C      1  0.5057120000000  0.5241630000000  0.4748040000000 1.0
C      1  0.5002690000000  0.5138450000000  0.4480320000000 1.0
C      1  0.4996390000000  0.4860860000000  0.4480310000000 1.0
C      1  0.5002620000000  0.5138430000000  0.5525020000000 1.0
C      1  0.4996320000000  0.4860840000000  0.5525020000000 1.0
C      1  0.5364500000000  0.4924870000000  0.5002690000000 1.0
C      1  0.4634510000000  0.5074420000000  0.5002640000000 1.0
C      1  0.4999510000000  0.4999640000000  0.5002670000000 1.0
END
