TITL C-3623283-6828-1563 0.334469653006195 125000 -401.488678923729 0 0 68 (C1) n - 1
REM
REM in /home/nfs/bkarasulu/CARBON/AIRSS/Generating-Clusters/LCBOP/Higher-Symm/SD-CG/FIRE-CG
REM
REM
REM
REM
REM
REM ./C.cell (b20cbc046b6831c77cfcea5457e17084)
REM AIRSS Version 0.9.1 bugfix July 2018 build 013d7b7c2542+ Fri, 06 Jul 2018 19:26:36 +0100
REM compiler GCC version 9.2.1 20190827 (Red Hat 9.2.1-1)
REM options -cpp -mtune=generic -march=x86-64 -g -O0 -fpre-include=/usr/include/finclude/math-vector-fortran.h
REM seed -1052749861 -1099245151 -462743873 -873753936 1758461710 1954056448 1987300845 -27737964 -887137540 -1492924838 -1599608651 -843060584 -1229511870 -26324289 197329742 -635141382 696251620 1177127113 -851850530 -1811806318 -1197478949 1592746607 -1285888782 834914856 1910159064 -1020018870 180076435 -1684264158 1712049701 443393672 1802899974 -1480977368 1213791942
REM
CELL 1.54180   50.00000   50.00000   50.00000   90.00000   90.00000   90.00000
LATT -1
SFAC C  
C      1  0.4537720000000  0.5060570000000  0.4107780000000 1.0
C      1  0.4267300000000  0.5063050000000  0.5044170000000 1.0
C      1  0.5243640000000  0.5786200000000  0.5098810000000 1.0
C      1  0.6067130000000  0.6207350000000  0.4951700000000 1.0
C      1  0.4686070000000  0.5509900000000  0.5366990000000 1.0
C      1  0.4250630000000  0.5389600000000  0.4306330000000 1.0
C      1  0.5541920000000  0.4131220000000  0.5684600000000 1.0
C      1  0.4132440000000  0.4305580000000  0.5040790000000 1.0
C      1  0.5393140000000  0.5364160000000  0.4579160000000 1.0
C      1  0.4544900000000  0.5305490000000  0.4263930000000 1.0
C      1  0.5514110000000  0.5750600000000  0.5159770000000 1.0
C      1  0.5328920000000  0.4995340000000  0.4858030000000 1.0
C      1  0.5902930000000  0.5945570000000  0.4584320000000 1.0
C      1  0.4323390000000  0.4910950000000  0.4250880000000 1.0
C      1  0.4511850000000  0.5499820000000  0.4688540000000 1.0
C      1  0.4065900000000  0.5024300000000  0.5215860000000 1.0
C      1  0.5201640000000  0.5198020000000  0.4692000000000 1.0
C      1  0.4442710000000  0.4804470000000  0.4490580000000 1.0
C      1  0.4238470000000  0.4809190000000  0.5611990000000 1.0
C      1  0.4288420000000  0.5823820000000  0.4920780000000 1.0
C      1  0.4557920000000  0.5013400000000  0.4661330000000 1.0
C      1  0.4515020000000  0.4828690000000  0.5555150000000 1.0
C      1  0.5884190000000  0.5766860000000  0.4090490000000 1.0
C      1  0.4727090000000  0.5647440000000  0.5126000000000 1.0
C      1  0.4690400000000  0.5315320000000  0.5548170000000 1.0
C      1  0.4931540000000  0.4718870000000  0.4961020000000 1.0
C      1  0.4981000000000  0.5755700000000  0.5079810000000 1.0
C      1  0.4120940000000  0.5126420000000  0.4280320000000 1.0
C      1  0.5583980000000  0.4615500000000  0.5701170000000 1.0
C      1  0.4560870000000  0.4432340000000  0.4795830000000 1.0
C      1  0.4646680000000  0.5065420000000  0.5630630000000 1.0
C      1  0.4582920000000  0.4415100000000  0.5255560000000 1.0
C      1  0.5073500000000  0.4260430000000  0.5318370000000 1.0
C      1  0.5604220000000  0.3889440000000  0.5773230000000 1.0
C      1  0.5619880000000  0.5052190000000  0.4840110000000 1.0
C      1  0.5342920000000  0.4630050000000  0.5185090000000 1.0
C      1  0.5204540000000  0.4788840000000  0.4998740000000 1.0
C      1  0.6252990000000  0.4444340000000  0.5428320000000 1.0
C      1  0.4520300000000  0.4534370000000  0.4530260000000 1.0
C      1  0.5477240000000  0.4383610000000  0.5585740000000 1.0
C      1  0.4256810000000  0.5565030000000  0.4534420000000 1.0
C      1  0.5642470000000  0.4874100000000  0.5714570000000 1.0
C      1  0.4135130000000  0.5768610000000  0.4696460000000 1.0
C      1  0.4686190000000  0.4404020000000  0.4337800000000 1.0
C      1  0.5825830000000  0.4916980000000  0.4965360000000 1.0
C      1  0.5894880000000  0.6018700000000  0.4854080000000 1.0
C      1  0.5644350000000  0.5282100000000  0.4663640000000 1.0
C      1  0.4519570000000  0.4992090000000  0.4941750000000 1.0
C      1  0.5305840000000  0.4414260000000  0.5362560000000 1.0
C      1  0.6133440000000  0.4606960000000  0.5263320000000 1.0
C      1  0.5658140000000  0.5129800000000  0.5645300000000 1.0
C      1  0.5994350000000  0.4768480000000  0.5105760000000 1.0
C      1  0.4623960000000  0.5272620000000  0.4549390000000 1.0
C      1  0.4708220000000  0.4844930000000  0.5095990000000 1.0
C      1  0.5022790000000  0.4310100000000  0.4663210000000 1.0
C      1  0.4610130000000  0.4693050000000  0.5325800000000 1.0
C      1  0.5708550000000  0.5896430000000  0.5022690000000 1.0
C      1  0.5637730000000  0.5361560000000  0.5517830000000 1.0
C      1  0.4527960000000  0.5660240000000  0.4929040000000 1.0
C      1  0.5896700000000  0.5860090000000  0.4333620000000 1.0
C      1  0.3876380000000  0.4259660000000  0.5056010000000 1.0
C      1  0.5589570000000  0.5565220000000  0.5355060000000 1.0
C      1  0.4399180000000  0.4375050000000  0.5029640000000 1.0
C      1  0.4841510000000  0.4300660000000  0.5168100000000 1.0
C      1  0.4863870000000  0.4428860000000  0.4882600000000 1.0
C      1  0.4040400000000  0.4907780000000  0.5457090000000 1.0
C      1  0.5665490000000  0.3651330000000  0.5859870000000 1.0
C      1  0.4929190000000  0.4301770000000  0.4406740000000 1.0
END
