TITL C-3623286-7563-666 25.2862608268118 125000 -1212.65468833718 0 0 197 (D2) n - 1
REM
REM in /home/nfs/bkarasulu/CARBON/AIRSS/Generating-Clusters/LCBOP/Higher-Symm/SD-CG/FIRE-CG
REM
REM
REM
REM
REM
REM ./C.cell (b20cbc046b6831c77cfcea5457e17084)
REM AIRSS Version 0.9.1 bugfix July 2018 build 013d7b7c2542+ Fri, 06 Jul 2018 19:26:36 +0100
REM compiler GCC version 9.2.1 20190827 (Red Hat 9.2.1-1)
REM options -cpp -mtune=generic -march=x86-64 -g -O0 -fpre-include=/usr/include/finclude/math-vector-fortran.h
REM seed 383738405 -33923188 1522517171 1561129476 1232796985 -622436984 -296585665 -1104465492 -423640715 1584032400 -75729567 961846875 1785222430 -91041385 1712869966 411641640 -648093629 840593737 -1537481903 1924308378 1613176005 1489673093 933664601 989964208 -165742523 -2108097005 -1270295670 -641330093 -1841193727 58150912 1688300222 -1814913064 -1066217461
REM
CELL 1.54180   50.00000   50.00000   50.00000   90.00000   90.00000   90.00000
LATT -1
SFAC C  
C      1  0.5134490000000  0.4999130000000  0.3978250000000 1.0
C      1  0.4869250000000  0.4999100000000  0.6018790000000 1.0
C      1  0.5134390000000  0.5000850000000  0.6018710000000 1.0
C      1  0.4869350000000  0.5000950000000  0.3978130000000 1.0
C      1  0.5551910000000  0.5236100000000  0.6003450000000 1.0
C      1  0.4451640000000  0.5236030000000  0.3992970000000 1.0
C      1  0.5551950000000  0.4763760000000  0.3993540000000 1.0
C      1  0.4451480000000  0.4764140000000  0.6003910000000 1.0
C      1  0.5932120000000  0.4418470000000  0.4675500000000 1.0
C      1  0.4070510000000  0.4420620000000  0.5321300000000 1.0
C      1  0.5932250000000  0.5581290000000  0.5321530000000 1.0
C      1  0.4070700000000  0.5579650000000  0.4675550000000 1.0
C      1  0.5452540000000  0.5912050000000  0.5788420000000 1.0
C      1  0.4549500000000  0.5911900000000  0.4208500000000 1.0
C      1  0.5452370000000  0.4087850000000  0.4208560000000 1.0
C      1  0.4549170000000  0.4088240000000  0.5788390000000 1.0
C      1  0.4560450000000  0.5582610000000  0.6357840000000 1.0
C      1  0.5441970000000  0.5582840000000  0.3639300000000 1.0
C      1  0.4560430000000  0.4417520000000  0.3639050000000 1.0
C      1  0.5441670000000  0.4417050000000  0.6357680000000 1.0
C      1  0.4460360000000  0.4246400000000  0.6007640000000 1.0
C      1  0.5541490000000  0.4246050000000  0.3989470000000 1.0
C      1  0.4460660000000  0.5753760000000  0.3989240000000 1.0
C      1  0.5541590000000  0.5753820000000  0.6007520000000 1.0
C      1  0.5400490000000  0.4001020000000  0.5363050000000 1.0
C      1  0.4600990000000  0.4001430000000  0.4633850000000 1.0
C      1  0.5400790000000  0.5998880000000  0.4633930000000 1.0
C      1  0.4601220000000  0.5998700000000  0.5363050000000 1.0
C      1  0.5617650000000  0.5355950000000  0.4298930000000 1.0
C      1  0.4385370000000  0.5355710000000  0.5698290000000 1.0
C      1  0.5617490000000  0.4643900000000  0.5698070000000 1.0
C      1  0.4385340000000  0.4644470000000  0.4298590000000 1.0
C      1  0.5727430000000  0.4626880000000  0.4776290000000 1.0
C      1  0.4275550000000  0.4628630000000  0.5220240000000 1.0
C      1  0.5727510000000  0.5372940000000  0.5220720000000 1.0
C      1  0.4275670000000  0.5371580000000  0.4776620000000 1.0
C      1  0.3805470000000  0.4545210000000  0.5366040000000 1.0
C      1  0.6197420000000  0.4542520000000  0.4630860000000 1.0
C      1  0.3805630000000  0.5455130000000  0.4630780000000 1.0
C      1  0.6197500000000  0.5457170000000  0.5366200000000 1.0
C      1  0.5259350000000  0.5131450000000  0.4549460000000 1.0
C      1  0.4743440000000  0.5130830000000  0.5447100000000 1.0
C      1  0.5259270000000  0.4868500000000  0.5447500000000 1.0
C      1  0.4743450000000  0.4869250000000  0.4549810000000 1.0
C      1  0.5586920000000  0.4505000000000  0.3932670000000 1.0
C      1  0.4415760000000  0.4505450000000  0.6064620000000 1.0
C      1  0.5586940000000  0.5494860000000  0.6064320000000 1.0
C      1  0.4416000000000  0.5494720000000  0.3932260000000 1.0
C      1  0.3553910000000  0.5373990000000  0.4645130000000 1.0
C      1  0.6448980000000  0.5375410000000  0.5351260000000 1.0
C      1  0.3553780000000  0.4626410000000  0.5351650000000 1.0
C      1  0.6448920000000  0.4624220000000  0.4645810000000 1.0
C      1  0.4222880000000  0.5300300000000  0.5041970000000 1.0
C      1  0.5780370000000  0.5301280000000  0.4955470000000 1.0
C      1  0.4222800000000  0.4699920000000  0.4954890000000 1.0
C      1  0.5780280000000  0.4698520000000  0.5041540000000 1.0
C      1  0.4405770000000  0.6052720000000  0.5163820000000 1.0
C      1  0.5596180000000  0.6053330000000  0.4833110000000 1.0
C      1  0.4405500000000  0.3947450000000  0.4833060000000 1.0
C      1  0.5595880000000  0.3946520000000  0.5163890000000 1.0
C      1  0.4721360000000  0.5834560000000  0.4773490000000 1.0
C      1  0.5280940000000  0.5834780000000  0.5223500000000 1.0
C      1  0.4721110000000  0.4165530000000  0.5223420000000 1.0
C      1  0.5280740000000  0.4165160000000  0.4773460000000 1.0
C      1  0.3205360000000  0.4908180000000  0.5094080000000 1.0
C      1  0.6796480000000  0.4907390000000  0.4903160000000 1.0
C      1  0.3205390000000  0.5092300000000  0.4902650000000 1.0
C      1  0.6796490000000  0.5092160000000  0.5093940000000 1.0
C      1  0.5007840000000  0.3721150000000  0.4853970000000 1.0
C      1  0.4993290000000  0.3721190000000  0.5143020000000 1.0
C      1  0.5008170000000  0.6278860000000  0.5142970000000 1.0
C      1  0.4993650000000  0.6278830000000  0.4853920000000 1.0
C      1  0.5708370000000  0.5968010000000  0.5077390000000 1.0
C      1  0.4293710000000  0.5967040000000  0.4919590000000 1.0
C      1  0.5708120000000  0.4031810000000  0.4919620000000 1.0
C      1  0.4293440000000  0.4033160000000  0.5077280000000 1.0
C      1  0.5219020000000  0.4871300000000  0.4753870000000 1.0
C      1  0.4781110000000  0.4872790000000  0.5243830000000 1.0
C      1  0.5219030000000  0.5128660000000  0.5243090000000 1.0
C      1  0.4781170000000  0.5127290000000  0.4753090000000 1.0
C      1  0.6666600000000  0.5256740000000  0.5256800000000 1.0
C      1  0.3335780000000  0.5256130000000  0.4739410000000 1.0
C      1  0.6666550000000  0.4742830000000  0.4740290000000 1.0
C      1  0.3335680000000  0.4744320000000  0.5257340000000 1.0
C      1  0.4900130000000  0.4532330000000  0.5615330000000 1.0
C      1  0.5101800000000  0.4532440000000  0.4381310000000 1.0
C      1  0.4900320000000  0.5467720000000  0.4381590000000 1.0
C      1  0.5101870000000  0.5467550000000  0.5615640000000 1.0
C      1  0.5621670000000  0.4091050000000  0.4437030000000 1.0
C      1  0.4380010000000  0.4092200000000  0.5559830000000 1.0
C      1  0.5621860000000  0.5908800000000  0.5559970000000 1.0
C      1  0.4380310000000  0.5907980000000  0.4437040000000 1.0
C      1  0.5053280000000  0.4877490000000  0.3325330000000 1.0
C      1  0.4949330000000  0.4877570000000  0.6671630000000 1.0
C      1  0.5053150000000  0.5122510000000  0.6671620000000 1.0
C      1  0.4949530000000  0.5122460000000  0.3325300000000 1.0
C      1  0.5621540000000  0.5543100000000  0.4522720000000 1.0
C      1  0.4381240000000  0.5542760000000  0.5474460000000 1.0
C      1  0.5621350000000  0.4456740000000  0.5474280000000 1.0
C      1  0.4381140000000  0.4457420000000  0.4522420000000 1.0
C      1  0.4615110000000  0.4969900000000  0.5902710000000 1.0
C      1  0.5388500000000  0.4969740000000  0.4094610000000 1.0
C      1  0.4615210000000  0.5030220000000  0.4094190000000 1.0
C      1  0.5388410000000  0.5030160000000  0.5902370000000 1.0
C      1  0.4622060000000  0.4554950000000  0.5554760000000 1.0
C      1  0.5380300000000  0.4554620000000  0.4441700000000 1.0
C      1  0.4622240000000  0.5445170000000  0.4442140000000 1.0
C      1  0.5380360000000  0.5445290000000  0.5555270000000 1.0
C      1  0.4895740000000  0.4639020000000  0.6566270000000 1.0
C      1  0.5106670000000  0.4638900000000  0.3430700000000 1.0
C      1  0.4896000000000  0.5361020000000  0.3430660000000 1.0
C      1  0.5106610000000  0.5361090000000  0.6566250000000 1.0
C      1  0.4240100000000  0.5451580000000  0.5258190000000 1.0
C      1  0.5762830000000  0.5452200000000  0.4739020000000 1.0
C      1  0.4240000000000  0.4548640000000  0.4738670000000 1.0
C      1  0.5762680000000  0.4547610000000  0.5258000000000 1.0
C      1  0.4817020000000  0.4292870000000  0.4029150000000 1.0
C      1  0.5184810000000  0.4292820000000  0.5967620000000 1.0
C      1  0.4817110000000  0.5707190000000  0.5967770000000 1.0
C      1  0.5185100000000  0.5707150000000  0.4029340000000 1.0
C      1  0.4158390000000  0.5731990000000  0.4432310000000 1.0
C      1  0.5844360000000  0.5733550000000  0.5564740000000 1.0
C      1  0.4158130000000  0.4268250000000  0.5564550000000 1.0
C      1  0.5844220000000  0.4266230000000  0.4432280000000 1.0
C      1  0.4965170000000  0.4443400000000  0.6398490000000 1.0
C      1  0.5036990000000  0.4443320000000  0.3598410000000 1.0
C      1  0.4965460000000  0.5556630000000  0.3598440000000 1.0
C      1  0.5037000000000  0.5556690000000  0.6398530000000 1.0
C      1  0.4526640000000  0.4210990000000  0.4447660000000 1.0
C      1  0.5475190000000  0.4210650000000  0.5549060000000 1.0
C      1  0.4526800000000  0.5789150000000  0.5549230000000 1.0
C      1  0.5475460000000  0.5789240000000  0.4447930000000 1.0
C      1  0.4559710000000  0.5132440000000  0.5672380000000 1.0
C      1  0.5443680000000  0.5132350000000  0.4324980000000 1.0
C      1  0.4559750000000  0.4867690000000  0.4324510000000 1.0
C      1  0.5443570000000  0.4867550000000  0.5672000000000 1.0
C      1  0.4376920000000  0.4469880000000  0.4070200000000 1.0
C      1  0.5625200000000  0.4469370000000  0.5926520000000 1.0
C      1  0.4376970000000  0.5530310000000  0.5926670000000 1.0
C      1  0.5625430000000  0.5530480000000  0.4070480000000 1.0
C      1  0.5948260000000  0.5812410000000  0.5107770000000 1.0
C      1  0.4054190000000  0.5810860000000  0.4889230000000 1.0
C      1  0.5948050000000  0.4187350000000  0.4889260000000 1.0
C      1  0.4053960000000  0.4189410000000  0.5107610000000 1.0
C      1  0.5020670000000  0.3889040000000  0.4403580000000 1.0
C      1  0.4980740000000  0.3888930000000  0.5593460000000 1.0
C      1  0.5020910000000  0.6110970000000  0.5593360000000 1.0
C      1  0.4981100000000  0.6111090000000  0.4403470000000 1.0
C      1  0.4815010000000  0.6468740000000  0.4755000000000 1.0
C      1  0.5186620000000  0.6468950000000  0.5241880000000 1.0
C      1  0.4814590000000  0.3531330000000  0.5241920000000 1.0
C      1  0.5186240000000  0.3531020000000  0.4755080000000 1.0
C      1  0.4350680000000  0.4493320000000  0.3792990000000 1.0
C      1  0.5651480000000  0.4492690000000  0.6203740000000 1.0
C      1  0.4350700000000  0.5506870000000  0.6203880000000 1.0
C      1  0.5651730000000  0.5507150000000  0.3793260000000 1.0
C      1  0.5524740000000  0.5947850000000  0.5295190000000 1.0
C      1  0.4477380000000  0.5947250000000  0.4701800000000 1.0
C      1  0.5524520000000  0.4052020000000  0.4701800000000 1.0
C      1  0.4477090000000  0.4052910000000  0.5295090000000 1.0
C      1  0.4968960000000  0.4318590000000  0.5790290000000 1.0
C      1  0.5032740000000  0.4318670000000  0.4206620000000 1.0
C      1  0.4969230000000  0.5681430000000  0.4206640000000 1.0
C      1  0.5032840000000  0.5681330000000  0.5790320000000 1.0
C      1  0.4968350000000  0.4709980000000  0.4553560000000 1.0
C      1  0.5035540000000  0.4708840000000  0.5444720000000 1.0
C      1  0.4968380000000  0.5290040000000  0.5443380000000 1.0
C      1  0.5035670000000  0.5291170000000  0.4552220000000 1.0
C      1  0.5104720000000  0.5701460000000  0.5079680000000 1.0
C      1  0.4897680000000  0.5701340000000  0.4917290000000 1.0
C      1  0.5104540000000  0.4298530000000  0.4917270000000 1.0
C      1  0.4897480000000  0.4298700000000  0.5079640000000 1.0
C      1  0.5437810000000  0.4255470000000  0.5838780000000 1.0
C      1  0.4563940000000  0.4255610000000  0.4157880000000 1.0
C      1  0.5438100000000  0.5744430000000  0.4158200000000 1.0
C      1  0.4564050000000  0.5744520000000  0.5839020000000 1.0
C      1  0.6177740000000  0.4135820000000  0.5026590000000 1.0
C      1  0.3824100000000  0.4138420000000  0.4970360000000 1.0
C      1  0.6177980000000  0.5863880000000  0.4970470000000 1.0
C      1  0.3824330000000  0.5861910000000  0.5026460000000 1.0
C      1  0.5171780000000  0.5927370000000  0.5742760000000 1.0
C      1  0.4830260000000  0.5927440000000  0.4254090000000 1.0
C      1  0.5171600000000  0.4072600000000  0.4254200000000 1.0
C      1  0.4829940000000  0.4072620000000  0.5742830000000 1.0
C      1  0.4535410000000  0.4693030000000  0.5318030000000 1.0
C      1  0.5467850000000  0.4691380000000  0.4678470000000 1.0
C      1  0.4535520000000  0.5307110000000  0.4678860000000 1.0
C      1  0.5467900000000  0.5308510000000  0.5318520000000 1.0
C      1  0.5138520000000  0.6132810000000  0.4642470000000 1.0
C      1  0.4863420000000  0.6132730000000  0.5354420000000 1.0
C      1  0.5138180000000  0.3867170000000  0.5354480000000 1.0
C      1  0.4863150000000  0.3867330000000  0.4642500000000 1.0
C      1  0.5184590000000  0.4359290000000  0.6247530000000 1.0
C      1  0.4817420000000  0.4359410000000  0.3749260000000 1.0
C      1  0.5184880000000  0.5640680000000  0.3749430000000 1.0
C      1  0.4817470000000  0.5640650000000  0.6247660000000 1.0
C      1  0.5000140000000  0.5000010000000  0.4998470000000 1.0
END
