TITL C-3623289-7120-571 -7.64839761544222e-07 125000 -756.972015989658 0 0 121 (C1) n - 1
REM
REM in /home/nfs/bkarasulu/CARBON/AIRSS/Generating-Clusters/LCBOP/Higher-Symm/SD-CG/FIRE-CG
REM
REM
REM
REM
REM
REM ./C.cell (b20cbc046b6831c77cfcea5457e17084)
REM AIRSS Version 0.9.1 bugfix July 2018 build 013d7b7c2542+ Fri, 06 Jul 2018 19:26:36 +0100
REM compiler GCC version 9.2.1 20190827 (Red Hat 9.2.1-1)
REM options -cpp -mtune=generic -march=x86-64 -g -O0 -fpre-include=/usr/include/finclude/math-vector-fortran.h
REM seed 528357198 -1765285335 -378382355 -1121786263 490832850 1135641745 1767722213 -1825228939 875623599 -1243457630 1182969185 1571966859 419347770 1907633376 1644191252 -52731634 1680431847 -1708372759 -1358079288 629485521 -974661164 1677378795 1517672653 1752937504 -87355841 -2126413566 -26725878 1874249979 233588281 1884607143 -656103514 -2021923014 -1773025127
REM
CELL 1.54180   50.00000   50.00000   50.00000   90.00000   90.00000   90.00000
LATT -1
SFAC C  
C      1  0.5542330000000  0.5263680000000  0.4842630000000 1.0
C      1  0.5604140000000  0.4765470000000  0.5194000000000 1.0
C      1  0.5553620000000  0.5037710000000  0.4680280000000 1.0
C      1  0.4549950000000  0.5120150000000  0.4214770000000 1.0
C      1  0.4530590000000  0.5649690000000  0.5601070000000 1.0
C      1  0.4608230000000  0.4216650000000  0.5299290000000 1.0
C      1  0.5418030000000  0.4456000000000  0.5941680000000 1.0
C      1  0.5435550000000  0.4406940000000  0.4139000000000 1.0
C      1  0.5393880000000  0.5985440000000  0.4977920000000 1.0
C      1  0.5160470000000  0.5332900000000  0.5782940000000 1.0
C      1  0.5212580000000  0.4188180000000  0.4893720000000 1.0
C      1  0.5544900000000  0.5525130000000  0.4090440000000 1.0
C      1  0.4014570000000  0.4552860000000  0.5091780000000 1.0
C      1  0.3982750000000  0.5141660000000  0.4621200000000 1.0
C      1  0.3978930000000  0.5232900000000  0.5373540000000 1.0
C      1  0.4594090000000  0.5383570000000  0.4349170000000 1.0
C      1  0.4658130000000  0.5401630000000  0.5726860000000 1.0
C      1  0.4703510000000  0.4220070000000  0.5013810000000 1.0
C      1  0.5774660000000  0.4871420000000  0.4755540000000 1.0
C      1  0.5727680000000  0.5225400000000  0.5073550000000 1.0
C      1  0.5782130000000  0.4931740000000  0.5046020000000 1.0
C      1  0.5887210000000  0.4793790000000  0.5638150000000 1.0
C      1  0.5941960000000  0.4454090000000  0.4596720000000 1.0
C      1  0.5834030000000  0.5595680000000  0.4819670000000 1.0
C      1  0.4029200000000  0.4905140000000  0.5759020000000 1.0
C      1  0.4035020000000  0.4373240000000  0.4611070000000 1.0
C      1  0.3985210000000  0.5640320000000  0.4742020000000 1.0
C      1  0.4979750000000  0.4762980000000  0.4157430000000 1.0
C      1  0.4906370000000  0.5907540000000  0.5265170000000 1.0
C      1  0.4950460000000  0.4392160000000  0.5654180000000 1.0
C      1  0.5778770000000  0.5110840000000  0.4233600000000 1.0
C      1  0.5578140000000  0.5515820000000  0.5568060000000 1.0
C      1  0.5607470000000  0.4226950000000  0.5230470000000 1.0
C      1  0.5183870000000  0.4062200000000  0.5372520000000 1.0
C      1  0.5349850000000  0.5097760000000  0.3982810000000 1.0
C      1  0.5203490000000  0.5808630000000  0.5658710000000 1.0
C      1  0.5249220000000  0.5091080000000  0.5658430000000 1.0
C      1  0.5336150000000  0.4374360000000  0.4701340000000 1.0
C      1  0.5431880000000  0.5669700000000  0.4287550000000 1.0
C      1  0.3906840000000  0.5393400000000  0.4672600000000 1.0
C      1  0.3919030000000  0.5063790000000  0.5572960000000 1.0
C      1  0.3946550000000  0.4453170000000  0.4851760000000 1.0
C      1  0.4664020000000  0.5289750000000  0.4627270000000 1.0
C      1  0.4677400000000  0.5237700000000  0.5471280000000 1.0
C      1  0.4682170000000  0.4516010000000  0.4972980000000 1.0
C      1  0.4347570000000  0.4327550000000  0.5346800000000 1.0
C      1  0.4305120000000  0.4997890000000  0.4294870000000 1.0
C      1  0.4284580000000  0.5589110000000  0.5460350000000 1.0
C      1  0.4946320000000  0.4475900000000  0.4216550000000 1.0
C      1  0.4895770000000  0.5957040000000  0.4971830000000 1.0
C      1  0.4949940000000  0.4588760000000  0.5868080000000 1.0
C      1  0.5737250000000  0.4815020000000  0.4279100000000 1.0
C      1  0.5621620000000  0.5651700000000  0.5307440000000 1.0
C      1  0.5641440000000  0.4341210000000  0.5500480000000 1.0
C      1  0.5332090000000  0.4767710000000  0.5273100000000 1.0
C      1  0.5331640000000  0.4927940000000  0.4555490000000 1.0
C      1  0.5561360000000  0.5529800000000  0.4731430000000 1.0
C      1  0.4737170000000  0.5848950000000  0.4494520000000 1.0
C      1  0.4842770000000  0.5056940000000  0.6016740000000 1.0
C      1  0.4857460000000  0.4138130000000  0.4563250000000 1.0
C      1  0.5190370000000  0.4581560000000  0.6021480000000 1.0
C      1  0.5177110000000  0.4321010000000  0.4145190000000 1.0
C      1  0.5150300000000  0.6039990000000  0.4869310000000 1.0
C      1  0.4722950000000  0.5720930000000  0.5385410000000 1.0
C      1  0.4790360000000  0.4414320000000  0.5427690000000 1.0
C      1  0.4781340000000  0.4946530000000  0.4266200000000 1.0
C      1  0.4768190000000  0.4810540000000  0.5891240000000 1.0
C      1  0.4761400000000  0.4357780000000  0.4405480000000 1.0
C      1  0.4698820000000  0.5860480000000  0.4779980000000 1.0
C      1  0.5361980000000  0.5584270000000  0.4545160000000 1.0
C      1  0.5253440000000  0.5010310000000  0.5391730000000 1.0
C      1  0.5272280000000  0.4653290000000  0.4654340000000 1.0
C      1  0.5010790000000  0.5392860000000  0.4842630000000 1.0
C      1  0.5010990000000  0.5134010000000  0.4953670000000 1.0
C      1  0.4913960000000  0.4920210000000  0.4807260000000 1.0
C      1  0.4204550000000  0.5776590000000  0.4818610000000 1.0
C      1  0.4269390000000  0.4809110000000  0.5832360000000 1.0
C      1  0.4257610000000  0.4371440000000  0.4458550000000 1.0
C      1  0.5814480000000  0.4221410000000  0.5039890000000 1.0
C      1  0.5945450000000  0.5281400000000  0.4405850000000 1.0
C      1  0.5751890000000  0.5306200000000  0.5648310000000 1.0
C      1  0.4518360000000  0.4468150000000  0.4510160000000 1.0
C      1  0.4474170000000  0.5698140000000  0.4850280000000 1.0
C      1  0.4532180000000  0.4837580000000  0.5733840000000 1.0
C      1  0.4886780000000  0.5310520000000  0.5888250000000 1.0
C      1  0.4924820000000  0.4129120000000  0.4841940000000 1.0
C      1  0.4658110000000  0.5657700000000  0.4314820000000 1.0
C      1  0.4352500000000  0.5273550000000  0.5049530000000 1.0
C      1  0.4382880000000  0.4838880000000  0.5269220000000 1.0
C      1  0.4359530000000  0.4856950000000  0.4774190000000 1.0
C      1  0.4510410000000  0.5410890000000  0.4849620000000 1.0
C      1  0.4548420000000  0.4969000000000  0.5475520000000 1.0
C      1  0.4531460000000  0.4624700000000  0.4753540000000 1.0
C      1  0.4236880000000  0.4580390000000  0.5267700000000 1.0
C      1  0.4200500000000  0.4972130000000  0.4559110000000 1.0
C      1  0.4196810000000  0.5386570000000  0.5275130000000 1.0
C      1  0.5080300000000  0.4704840000000  0.4854700000000 1.0
C      1  0.5143260000000  0.5413300000000  0.4591540000000 1.0
C      1  0.5150290000000  0.5184790000000  0.5201370000000 1.0
C      1  0.5421320000000  0.5858130000000  0.5230240000000 1.0
C      1  0.5433460000000  0.4310460000000  0.5698710000000 1.0
C      1  0.5498380000000  0.4683140000000  0.4156080000000 1.0
C      1  0.5140980000000  0.5139240000000  0.4484770000000 1.0
C      1  0.5071890000000  0.5446100000000  0.5244100000000 1.0
C      1  0.5115680000000  0.4650730000000  0.5131850000000 1.0
C      1  0.4803010000000  0.5452570000000  0.5307020000000 1.0
C      1  0.4847920000000  0.4596250000000  0.5211070000000 1.0
C      1  0.4854460000000  0.5044200000000  0.4545890000000 1.0
C      1  0.5803970000000  0.5511520000000  0.5114960000000 1.0
C      1  0.5833650000000  0.4541080000000  0.5563400000000 1.0
C      1  0.5849700000000  0.4710600000000  0.4531860000000 1.0
C      1  0.5925230000000  0.4286520000000  0.4805530000000 1.0
C      1  0.5993250000000  0.5464240000000  0.4609000000000 1.0
C      1  0.5851350000000  0.5057930000000  0.5668590000000 1.0
C      1  0.5262090000000  0.4847040000000  0.4080600000000 1.0
C      1  0.5177330000000  0.5900910000000  0.5391730000000 1.0
C      1  0.5177500000000  0.4219470000000  0.5607940000000 1.0
C      1  0.5325050000000  0.5558900000000  0.5712750000000 1.0
C      1  0.5341820000000  0.4136190000000  0.5148340000000 1.0
C      1  0.5577380000000  0.5245790000000  0.4069590000000 1.0
C      1  0.4356580000000  0.4989300000000  0.5027820000000 1.0
END
