TITL C-3623283-6828-577 19660.8635973415 125000 -391.677262309375 0 0 68 (C1) n - 1
REM
REM in /home/nfs/bkarasulu/CARBON/AIRSS/Generating-Clusters/LCBOP/Higher-Symm/SD-CG/FIRE-CG
REM
REM
REM
REM
REM
REM ./C.cell (b20cbc046b6831c77cfcea5457e17084)
REM AIRSS Version 0.9.1 bugfix July 2018 build 013d7b7c2542+ Fri, 06 Jul 2018 19:26:36 +0100
REM compiler GCC version 9.2.1 20190827 (Red Hat 9.2.1-1)
REM options -cpp -mtune=generic -march=x86-64 -g -O0 -fpre-include=/usr/include/finclude/math-vector-fortran.h
REM seed -1571802199 1981274861 883288925 1014451904 -2063571432 -1721745589 417424040 -764516542 -206869493 -1950336749 808555329 1704529537 -2041295041 1065372102 -258532339 813091277 -1088869183 1310907757 -1470498550 -1367560607 1741560831 -1671690488 565907514 -1291084306 2137149507 -2021995105 -1941217572 1331873100 583243858 -1835192181 -140171183 -1580245434 -1683405600
REM
CELL 1.54180   50.00000   50.00000   50.00000   90.00000   90.00000   90.00000
LATT -1
SFAC C  
C      1  0.4515550000000  0.5083740000000  0.4519290000000 1.0
C      1  0.4508260000000  0.4786360000000  0.4573840000000 1.0
C      1  0.4455480000000  0.4671330000000  0.4864090000000 1.0
C      1  0.4448770000000  0.4816780000000  0.5418910000000 1.0
C      1  0.4512460000000  0.5094970000000  0.5511780000000 1.0
C      1  0.4448560000000  0.5328410000000  0.5338190000000 1.0
C      1  0.4442100000000  0.5311360000000  0.4698610000000 1.0
C      1  0.4966550000000  0.5858300000000  0.4585770000000 1.0
C      1  0.5102050000000  0.5253260000000  0.4031270000000 1.0
C      1  0.5088970000000  0.4447540000000  0.4174940000000 1.0
C      1  0.4967180000000  0.4066130000000  0.4878310000000 1.0
C      1  0.4991510000000  0.4364070000000  0.5710570000000 1.0
C      1  0.5123350000000  0.5166600000000  0.5986130000000 1.0
C      1  0.4993940000000  0.5840000000000  0.5470300000000 1.0
C      1  0.4223020000000  0.5277810000000  0.5165490000000 1.0
C      1  0.4215680000000  0.5274870000000  0.4872490000000 1.0
C      1  0.4014730000000  0.5093190000000  0.4770620000000 1.0
C      1  0.3993780000000  0.4825200000000  0.4823400000000 1.0
C      1  0.4182060000000  0.4684970000000  0.4989720000000 1.0
C      1  0.4199430000000  0.4799540000000  0.5265440000000 1.0
C      1  0.4065710000000  0.5057770000000  0.5275940000000 1.0
C      1  0.4743570000000  0.5747870000000  0.5426940000000 1.0
C      1  0.4715280000000  0.5758770000000  0.4614050000000 1.0
C      1  0.4858270000000  0.5214760000000  0.4136670000000 1.0
C      1  0.4845380000000  0.4515150000000  0.4265580000000 1.0
C      1  0.4718100000000  0.4174830000000  0.4880950000000 1.0
C      1  0.4742500000000  0.4444450000000  0.5642440000000 1.0
C      1  0.4879730000000  0.5152240000000  0.5876070000000 1.0
C      1  0.4777960000000  0.5113260000000  0.5621350000000 1.0
C      1  0.4675260000000  0.5504870000000  0.5302630000000 1.0
C      1  0.4660430000000  0.5507240000000  0.4730660000000 1.0
C      1  0.4772000000000  0.5148680000000  0.4392560000000 1.0
C      1  0.4764340000000  0.4667900000000  0.4484080000000 1.0
C      1  0.4670790000000  0.4449500000000  0.4921270000000 1.0
C      1  0.4679050000000  0.4639760000000  0.5449910000000 1.0
C      1  0.5248430000000  0.5767420000000  0.5425110000000 1.0
C      1  0.5222390000000  0.5792210000000  0.4638470000000 1.0
C      1  0.5355360000000  0.5244690000000  0.4117310000000 1.0
C      1  0.5343330000000  0.4490720000000  0.4246440000000 1.0
C      1  0.5224540000000  0.4141690000000  0.4904890000000 1.0
C      1  0.5246770000000  0.4414120000000  0.5643730000000 1.0
C      1  0.5375450000000  0.5149590000000  0.5898410000000 1.0
C      1  0.4924620000000  0.4587200000000  0.4979340000000 1.0
C      1  0.4915550000000  0.4725780000000  0.5303080000000 1.0
C      1  0.4946750000000  0.5078730000000  0.5395720000000 1.0
C      1  0.4904550000000  0.5375900000000  0.5185370000000 1.0
C      1  0.4905890000000  0.5394780000000  0.4836990000000 1.0
C      1  0.4965830000000  0.5124160000000  0.4601620000000 1.0
C      1  0.4968860000000  0.4762030000000  0.4664700000000 1.0
C      1  0.5425050000000  0.5593250000000  0.5324860000000 1.0
C      1  0.5409760000000  0.5624200000000  0.4732000000000 1.0
C      1  0.5505760000000  0.5195730000000  0.4332210000000 1.0
C      1  0.5498010000000  0.4611040000000  0.4427620000000 1.0
C      1  0.5412920000000  0.4329720000000  0.4940880000000 1.0
C      1  0.5424720000000  0.4546150000000  0.5493620000000 1.0
C      1  0.5512950000000  0.5112100000000  0.5673080000000 1.0
C      1  0.5511640000000  0.5068260000000  0.5400970000000 1.0
C      1  0.5501180000000  0.5360380000000  0.5193710000000 1.0
C      1  0.5506240000000  0.5383430000000  0.4836270000000 1.0
C      1  0.5524690000000  0.5119280000000  0.4597310000000 1.0
C      1  0.5523550000000  0.4767580000000  0.4654400000000 1.0
C      1  0.5507290000000  0.4591990000000  0.4964250000000 1.0
C      1  0.5501520000000  0.4726070000000  0.5296000000000 1.0
C      1  0.5368320000000  0.5001800000000  0.4988390000000 1.0
C      1  0.4579580000000  0.4901610000000  0.5021480000000 1.0
C      1  0.5647500000000  0.5003120000000  0.4995690000000 1.0
C      1  0.5099070000000  0.5008410000000  0.4997110000000 1.0
C      1  0.4816730000000  0.5003430000000  0.4989170000000 1.0
END
