TITL C-3623282-6910-1869 0.333143255991315 125000 -599.335279576886 0 0 101 (C1) n - 1
REM
REM in /home/nfs/bkarasulu/CARBON/AIRSS/Generating-Clusters/LCBOP/Higher-Symm/SD-CG/FIRE-CG
REM
REM
REM
REM
REM
REM ./C.cell (b20cbc046b6831c77cfcea5457e17084)
REM AIRSS Version 0.9.1 bugfix July 2018 build 013d7b7c2542+ Fri, 06 Jul 2018 19:26:36 +0100
REM compiler GCC version 9.2.1 20190827 (Red Hat 9.2.1-1)
REM options -cpp -mtune=generic -march=x86-64 -g -O0 -fpre-include=/usr/include/finclude/math-vector-fortran.h
REM seed -530064427 429776669 -1031033655 1823168675 1472046857 -1453818230 1574489135 507244546 -1806908696 64431548 913042558 115236222 -583895084 -2060585302 30475140 956444714 1844434572 -1128193808 818423216 -579890027 1617961207 -2079951964 -766812610 1806092531 872681490 2124826459 1773506527 1674217078 -774485998 1405290597 -46866339 1002866335 -1010146102
REM
CELL 1.54180   50.00000   50.00000   50.00000   90.00000   90.00000   90.00000
LATT -1
SFAC C  
C      1  0.5842580000000  0.5575620000000  0.5431480000000 1.0
C      1  0.4040240000000  0.5279890000000  0.5584760000000 1.0
C      1  0.4696790000000  0.4154700000000  0.4572840000000 1.0
C      1  0.4962570000000  0.4089760000000  0.4589850000000 1.0
C      1  0.4377020000000  0.4570030000000  0.4510490000000 1.0
C      1  0.5435340000000  0.4339340000000  0.4553090000000 1.0
C      1  0.4192570000000  0.4737950000000  0.5016910000000 1.0
C      1  0.5685180000000  0.4433140000000  0.5001250000000 1.0
C      1  0.5432270000000  0.4802540000000  0.5798560000000 1.0
C      1  0.4866170000000  0.4773140000000  0.5854870000000 1.0
C      1  0.4542190000000  0.5126420000000  0.5719240000000 1.0
C      1  0.5485900000000  0.5263550000000  0.5625380000000 1.0
C      1  0.5300170000000  0.4554710000000  0.5728840000000 1.0
C      1  0.5013070000000  0.4538660000000  0.5777060000000 1.0
C      1  0.4870770000000  0.5847060000000  0.4613690000000 1.0
C      1  0.4695000000000  0.6604640000000  0.4471810000000 1.0
C      1  0.5834170000000  0.5110370000000  0.4745610000000 1.0
C      1  0.4314360000000  0.5401210000000  0.4604770000000 1.0
C      1  0.5831430000000  0.4616080000000  0.5447810000000 1.0
C      1  0.4245640000000  0.4591490000000  0.5524710000000 1.0
C      1  0.5971750000000  0.5131050000000  0.5000250000000 1.0
C      1  0.4298930000000  0.5638040000000  0.4469320000000 1.0
C      1  0.5166460000000  0.4841040000000  0.4080510000000 1.0
C      1  0.4907430000000  0.4975640000000  0.4069780000000 1.0
C      1  0.4700950000000  0.4833380000000  0.4251630000000 1.0
C      1  0.5218350000000  0.4718200000000  0.4353210000000 1.0
C      1  0.4484860000000  0.5367050000000  0.4831150000000 1.0
C      1  0.5551980000000  0.5142700000000  0.4787290000000 1.0
C      1  0.5569300000000  0.4253100000000  0.4788130000000 1.0
C      1  0.4267640000000  0.4576830000000  0.4770690000000 1.0
C      1  0.6582070000000  0.5845000000000  0.5321580000000 1.0
C      1  0.3421780000000  0.5414940000000  0.5110280000000 1.0
C      1  0.5167000000000  0.4251660000000  0.4479140000000 1.0
C      1  0.4585760000000  0.4382380000000  0.4444770000000 1.0
C      1  0.5503320000000  0.4920410000000  0.4966800000000 1.0
C      1  0.4388600000000  0.5199580000000  0.5036840000000 1.0
C      1  0.4763170000000  0.5418910000000  0.4841610000000 1.0
C      1  0.5339490000000  0.5332120000000  0.4765240000000 1.0
C      1  0.4280270000000  0.5211330000000  0.5673330000000 1.0
C      1  0.5580710000000  0.5498530000000  0.5476520000000 1.0
C      1  0.5297800000000  0.4912510000000  0.6025560000000 1.0
C      1  0.5027210000000  0.4979850000000  0.5973510000000 1.0
C      1  0.5220960000000  0.5343780000000  0.5717680000000 1.0
C      1  0.4754460000000  0.5314880000000  0.5724320000000 1.0
C      1  0.4386810000000  0.4652930000000  0.5761600000000 1.0
C      1  0.5792490000000  0.4897490000000  0.5458400000000 1.0
C      1  0.5002990000000  0.4430770000000  0.5157790000000 1.0
C      1  0.4759240000000  0.4565350000000  0.5223170000000 1.0
C      1  0.6825850000000  0.5928620000000  0.5282290000000 1.0
C      1  0.3240370000000  0.5443980000000  0.4925330000000 1.0
C      1  0.4889860000000  0.4973750000000  0.5026740000000 1.0
C      1  0.5060740000000  0.4805490000000  0.4868360000000 1.0
C      1  0.5425580000000  0.4759050000000  0.3617680000000 1.0
C      1  0.5320760000000  0.4800620000000  0.3852690000000 1.0
C      1  0.6334210000000  0.5759960000000  0.5361510000000 1.0
C      1  0.3612100000000  0.5381120000000  0.5291630000000 1.0
C      1  0.4215760000000  0.5019050000000  0.4301480000000 1.0
C      1  0.5723880000000  0.4770190000000  0.4377050000000 1.0
C      1  0.5195000000000  0.5343760000000  0.5016010000000 1.0
C      1  0.4926360000000  0.5253770000000  0.5013290000000 1.0
C      1  0.5051930000000  0.4462510000000  0.4319550000000 1.0
C      1  0.4778000000000  0.4524440000000  0.4276200000000 1.0
C      1  0.5350720000000  0.5668320000000  0.5426840000000 1.0
C      1  0.4650460000000  0.5719360000000  0.5446450000000 1.0
C      1  0.5491770000000  0.4609290000000  0.4435130000000 1.0
C      1  0.4401140000000  0.4807340000000  0.4333040000000 1.0
C      1  0.4101300000000  0.5070110000000  0.4058450000000 1.0
C      1  0.5803080000000  0.4804870000000  0.4116290000000 1.0
C      1  0.4598970000000  0.4846100000000  0.5771420000000 1.0
C      1  0.5579440000000  0.4991300000000  0.5630070000000 1.0
C      1  0.5439890000000  0.4323050000000  0.5686120000000 1.0
C      1  0.4887960000000  0.4294290000000  0.5777480000000 1.0
C      1  0.5099530000000  0.3909240000000  0.5246380000000 1.0
C      1  0.5047730000000  0.4162560000000  0.5213700000000 1.0
C      1  0.4678450000000  0.4826540000000  0.5145840000000 1.0
C      1  0.5185180000000  0.4590730000000  0.5009740000000 1.0
C      1  0.5462560000000  0.4646970000000  0.5018320000000 1.0
C      1  0.4419560000000  0.4925000000000  0.5090850000000 1.0
C      1  0.4954300000000  0.5255700000000  0.4110760000000 1.0
C      1  0.5124460000000  0.5377940000000  0.4284140000000 1.0
C      1  0.5763310000000  0.4407140000000  0.5288900000000 1.0
C      1  0.4149910000000  0.4591950000000  0.5273680000000 1.0
C      1  0.4313350000000  0.4527560000000  0.5994630000000 1.0
C      1  0.5925940000000  0.5052310000000  0.5257310000000 1.0
C      1  0.4826290000000  0.5548810000000  0.5564220000000 1.0
C      1  0.5114030000000  0.5572530000000  0.5555870000000 1.0
C      1  0.6054860000000  0.4684530000000  0.4707570000000 1.0
C      1  0.3959760000000  0.5078390000000  0.4712790000000 1.0
C      1  0.3817050000000  0.5336080000000  0.5453450000000 1.0
C      1  0.6086810000000  0.5673340000000  0.5400300000000 1.0
C      1  0.5161010000000  0.5444720000000  0.4556660000000 1.0
C      1  0.4923740000000  0.5579090000000  0.4666290000000 1.0
C      1  0.5954830000000  0.4505020000000  0.4878500000000 1.0
C      1  0.3960950000000  0.4903560000000  0.4918510000000 1.0
C      1  0.4150350000000  0.5178280000000  0.4529440000000 1.0
C      1  0.5895650000000  0.4879840000000  0.4580880000000 1.0
C      1  0.4816230000000  0.6101950000000  0.4566830000000 1.0
C      1  0.4755420000000  0.6355460000000  0.4519000000000 1.0
C      1  0.4807530000000  0.4945420000000  0.4511050000000 1.0
C      1  0.5061980000000  0.4849200000000  0.4591730000000 1.0
C      1  0.4998630000000  0.5227590000000  0.5850360000000 1.0
END
