TITL C-3623283-6828-44 46455.3909065066 125000 -1218.2780720771 0 0 196 (C1) n - 1
REM
REM in /home/nfs/bkarasulu/CARBON/AIRSS/Generating-Clusters/LCBOP/Higher-Symm/SD-CG/FIRE-CG
REM
REM
REM
REM
REM
REM ./C.cell (b20cbc046b6831c77cfcea5457e17084)
REM AIRSS Version 0.9.1 bugfix July 2018 build 013d7b7c2542+ Fri, 06 Jul 2018 19:26:36 +0100
REM compiler GCC version 9.2.1 20190827 (Red Hat 9.2.1-1)
REM options -cpp -mtune=generic -march=x86-64 -g -O0 -fpre-include=/usr/include/finclude/math-vector-fortran.h
REM seed 2097975879 -624245088 -1741617310 1987290943 -85114722 -830899652 134901526 -936000111 1868512607 -203892982 1990984563 -675432634 225394526 -1541644656 -1653274768 885940082 -1858197198 1400544367 297452696 -1745495185 -1706333544 1757839343 -1224914322 -347309419 -1215007306 -1133060549 -1850360733 1881995123 -143285610 -1700477958 -897964354 -693941677 998336823
REM
CELL 1.54180   50.00000   50.00000   50.00000   90.00000   90.00000   90.00000
LATT -1
SFAC C  
C      1  0.6027440000000  0.5703990000000  0.4909040000000 1.0
C      1  0.5689010000000  0.5016690000000  0.6044390000000 1.0
C      1  0.5055310000000  0.5935880000000  0.5892690000000 1.0
C      1  0.4109910000000  0.4136990000000  0.4916540000000 1.0
C      1  0.5911800000000  0.4229040000000  0.4984550000000 1.0
C      1  0.4032780000000  0.5786090000000  0.5097010000000 1.0
C      1  0.4230060000000  0.5012670000000  0.6013940000000 1.0
C      1  0.5760390000000  0.4915800000000  0.3904830000000 1.0
C      1  0.4261790000000  0.4912900000000  0.3984620000000 1.0
C      1  0.5015760000000  0.3978160000000  0.5828460000000 1.0
C      1  0.5192220000000  0.3971330000000  0.4207430000000 1.0
C      1  0.5036290000000  0.5936360000000  0.4218040000000 1.0
C      1  0.5872390000000  0.5949970000000  0.4908920000000 1.0
C      1  0.5067570000000  0.5715920000000  0.6095570000000 1.0
C      1  0.5935870000000  0.5028000000000  0.5881150000000 1.0
C      1  0.4355370000000  0.3983190000000  0.4941010000000 1.0
C      1  0.4242830000000  0.5985550000000  0.5079800000000 1.0
C      1  0.5698070000000  0.4020520000000  0.4960950000000 1.0
C      1  0.5020980000000  0.4180560000000  0.6035590000000 1.0
C      1  0.5016780000000  0.5749730000000  0.4002730000000 1.0
C      1  0.5179150000000  0.4192290000000  0.3994410000000 1.0
C      1  0.4035050000000  0.5032290000000  0.5805230000000 1.0
C      1  0.4069180000000  0.4876450000000  0.4202620000000 1.0
C      1  0.5976090000000  0.4944340000000  0.4106660000000 1.0
C      1  0.4904040000000  0.4303070000000  0.5291760000000 1.0
C      1  0.4334960000000  0.5291700000000  0.4897280000000 1.0
C      1  0.5042140000000  0.4905130000000  0.4535430000000 1.0
C      1  0.5022930000000  0.5636480000000  0.5320950000000 1.0
C      1  0.4912750000000  0.5478860000000  0.4861770000000 1.0
C      1  0.5086250000000  0.4598970000000  0.4921260000000 1.0
C      1  0.5407740000000  0.4931590000000  0.4854530000000 1.0
C      1  0.4312760000000  0.4684620000000  0.5131400000000 1.0
C      1  0.5578350000000  0.5333020000000  0.5051060000000 1.0
C      1  0.4647860000000  0.5094800000000  0.4332270000000 1.0
C      1  0.5314860000000  0.5039660000000  0.5631280000000 1.0
C      1  0.4889500000000  0.4877410000000  0.5475530000000 1.0
C      1  0.4472140000000  0.4885900000000  0.5253960000000 1.0
C      1  0.5292210000000  0.4402150000000  0.4931480000000 1.0
C      1  0.4899700000000  0.5159560000000  0.4485420000000 1.0
C      1  0.5431500000000  0.5068630000000  0.5118350000000 1.0
C      1  0.5605290000000  0.4980220000000  0.4658670000000 1.0
C      1  0.4520570000000  0.5111560000000  0.4797880000000 1.0
C      1  0.4672730000000  0.5650580000000  0.4909240000000 1.0
C      1  0.4837210000000  0.4545450000000  0.5085870000000 1.0
C      1  0.5061700000000  0.5430940000000  0.5118510000000 1.0
C      1  0.4995990000000  0.4708730000000  0.4331050000000 1.0
C      1  0.5084460000000  0.5077660000000  0.5458000000000 1.0
C      1  0.4937840000000  0.4667130000000  0.5661650000000 1.0
C      1  0.6124100000000  0.4629700000000  0.4820450000000 1.0
C      1  0.4655090000000  0.4851890000000  0.6155330000000 1.0
C      1  0.4832210000000  0.6179180000000  0.4582840000000 1.0
C      1  0.3775030000000  0.5421300000000  0.4894490000000 1.0
C      1  0.6074630000000  0.4990270000000  0.5174470000000 1.0
C      1  0.3717250000000  0.5004210000000  0.5201860000000 1.0
C      1  0.4957410000000  0.5218150000000  0.5978200000000 1.0
C      1  0.4989600000000  0.5155720000000  0.3807990000000 1.0
C      1  0.5348510000000  0.5039930000000  0.4183920000000 1.0
C      1  0.4978890000000  0.4241150000000  0.4571740000000 1.0
C      1  0.4956050000000  0.3908200000000  0.4952490000000 1.0
C      1  0.5144740000000  0.6125280000000  0.4975370000000 1.0
C      1  0.4967960000000  0.6229320000000  0.4806600000000 1.0
C      1  0.4857030000000  0.5024400000000  0.6129540000000 1.0
C      1  0.6171570000000  0.4839020000000  0.4978700000000 1.0
C      1  0.4989120000000  0.3993320000000  0.4702600000000 1.0
C      1  0.5302740000000  0.5932950000000  0.5067300000000 1.0
C      1  0.4812260000000  0.4048530000000  0.5141210000000 1.0
C      1  0.5057300000000  0.5394290000000  0.5802300000000 1.0
C      1  0.5190520000000  0.5053990000000  0.3950550000000 1.0
C      1  0.4818310000000  0.5361690000000  0.3811810000000 1.0
C      1  0.3695140000000  0.5201000000000  0.5023160000000 1.0
C      1  0.3819400000000  0.4864310000000  0.5404710000000 1.0
C      1  0.5889980000000  0.5090810000000  0.5336990000000 1.0
C      1  0.4643800000000  0.4221470000000  0.4034010000000 1.0
C      1  0.4437540000000  0.3990380000000  0.4431170000000 1.0
C      1  0.4203410000000  0.4376400000000  0.4223210000000 1.0
C      1  0.5525140000000  0.5665320000000  0.4011850000000 1.0
C      1  0.4525160000000  0.5700460000000  0.6026370000000 1.0
C      1  0.5510120000000  0.4259850000000  0.5947820000000 1.0
C      1  0.5768680000000  0.5860780000000  0.4405750000000 1.0
C      1  0.4341230000000  0.5929820000000  0.5602200000000 1.0
C      1  0.5678030000000  0.4082000000000  0.5508550000000 1.0
C      1  0.5936740000000  0.5447450000000  0.4176410000000 1.0
C      1  0.4101130000000  0.5543320000000  0.5807870000000 1.0
C      1  0.5875630000000  0.4513580000000  0.5724980000000 1.0
C      1  0.4420540000000  0.4412000000000  0.4030590000000 1.0
C      1  0.4207680000000  0.4167500000000  0.4411550000000 1.0
C      1  0.4649100000000  0.4003220000000  0.4234030000000 1.0
C      1  0.5712590000000  0.5449880000000  0.3987180000000 1.0
C      1  0.5668120000000  0.4494110000000  0.5932660000000 1.0
C      1  0.4301360000000  0.5520820000000  0.6018480000000 1.0
C      1  0.5950630000000  0.5632490000000  0.4397850000000 1.0
C      1  0.5879790000000  0.4300980000000  0.5511760000000 1.0
C      1  0.4115600000000  0.5744350000000  0.5610220000000 1.0
C      1  0.5549360000000  0.5863170000000  0.4225840000000 1.0
C      1  0.5507780000000  0.4058910000000  0.5736020000000 1.0
C      1  0.4536180000000  0.5915540000000  0.5822860000000 1.0
C      1  0.5493850000000  0.5277440000000  0.5687200000000 1.0
C      1  0.5280020000000  0.5722660000000  0.5480400000000 1.0
C      1  0.5693680000000  0.5516450000000  0.5273880000000 1.0
C      1  0.4431060000000  0.4619930000000  0.5784520000000 1.0
C      1  0.5455510000000  0.4775830000000  0.4270930000000 1.0
C      1  0.4453840000000  0.5315050000000  0.4234530000000 1.0
C      1  0.4697800000000  0.4272040000000  0.5536770000000 1.0
C      1  0.5229790000000  0.4354100000000  0.4482620000000 1.0
C      1  0.4606340000000  0.5770820000000  0.4414670000000 1.0
C      1  0.4230410000000  0.4453150000000  0.5323420000000 1.0
C      1  0.5688160000000  0.4496450000000  0.4636220000000 1.0
C      1  0.4233760000000  0.5506350000000  0.4699590000000 1.0
C      1  0.5290210000000  0.5489800000000  0.5664800000000 1.0
C      1  0.5756820000000  0.5311010000000  0.5516370000000 1.0
C      1  0.5506050000000  0.5798230000000  0.5262960000000 1.0
C      1  0.4704480000000  0.4486390000000  0.5749110000000 1.0
C      1  0.4596980000000  0.5576140000000  0.4200290000000 1.0
C      1  0.5247780000000  0.4560370000000  0.4270770000000 1.0
C      1  0.4204200000000  0.4608880000000  0.5595200000000 1.0
C      1  0.4209570000000  0.5335920000000  0.4428520000000 1.0
C      1  0.5676910000000  0.4752620000000  0.4477470000000 1.0
C      1  0.4442890000000  0.4234990000000  0.5371350000000 1.0
C      1  0.4467310000000  0.5734810000000  0.4687960000000 1.0
C      1  0.5445330000000  0.4328580000000  0.4684920000000 1.0
C      1  0.3955050000000  0.5302030000000  0.5758460000000 1.0
C      1  0.5267850000000  0.5671220000000  0.3890400000000 1.0
C      1  0.5634350000000  0.3953780000000  0.5243900000000 1.0
C      1  0.6008900000000  0.4771880000000  0.5756060000000 1.0
C      1  0.4032020000000  0.4602490000000  0.4263560000000 1.0
C      1  0.6084150000000  0.5204960000000  0.4153360000000 1.0
C      1  0.4902450000000  0.4244480000000  0.3906940000000 1.0
C      1  0.5281390000000  0.4252890000000  0.6117510000000 1.0
C      1  0.4783440000000  0.5655570000000  0.6161920000000 1.0
C      1  0.4359380000000  0.6054530000000  0.5338490000000 1.0
C      1  0.5784010000000  0.6019140000000  0.4646310000000 1.0
C      1  0.4456050000000  0.3878070000000  0.4693700000000 1.0
C      1  0.5272030000000  0.3898400000000  0.5736460000000 1.0
C      1  0.5682090000000  0.5195590000000  0.3841460000000 1.0
C      1  0.3965220000000  0.5725410000000  0.5367190000000 1.0
C      1  0.4792590000000  0.6041920000000  0.5833570000000 1.0
C      1  0.4912470000000  0.3874620000000  0.4247460000000 1.0
C      1  0.5306340000000  0.6003860000000  0.4280770000000 1.0
C      1  0.4402560000000  0.4672730000000  0.3906200000000 1.0
C      1  0.4297730000000  0.5262320000000  0.6138590000000 1.0
C      1  0.5608410000000  0.4741090000000  0.6075680000000 1.0
C      1  0.6007770000000  0.4296130000000  0.5252120000000 1.0
C      1  0.6082580000000  0.5593980000000  0.4650660000000 1.0
C      1  0.4040760000000  0.4179680000000  0.4644520000000 1.0
C      1  0.4420030000000  0.5148840000000  0.5348190000000 1.0
C      1  0.5108020000000  0.5367620000000  0.4437350000000 1.0
C      1  0.5396000000000  0.4382890000000  0.5187680000000 1.0
C      1  0.5527060000000  0.4825610000000  0.5305310000000 1.0
C      1  0.4438540000000  0.4862430000000  0.4688130000000 1.0
C      1  0.5568720000000  0.5245440000000  0.4565390000000 1.0
C      1  0.4733550000000  0.4614330000000  0.4394930000000 1.0
C      1  0.5203690000000  0.4568720000000  0.5594390000000 1.0
C      1  0.4662320000000  0.5467810000000  0.5612690000000 1.0
C      1  0.4566790000000  0.5593830000000  0.5172050000000 1.0
C      1  0.5363850000000  0.5637780000000  0.4730460000000 1.0
C      1  0.4640530000000  0.4475400000000  0.4856850000000 1.0
C      1  0.5191110000000  0.4365330000000  0.5388580000000 1.0
C      1  0.5362720000000  0.5258760000000  0.4362210000000 1.0
C      1  0.4388380000000  0.5364850000000  0.5163740000000 1.0
C      1  0.4745130000000  0.5625810000000  0.5394730000000 1.0
C      1  0.4749940000000  0.4410050000000  0.4597420000000 1.0
C      1  0.5106250000000  0.5560290000000  0.4648100000000 1.0
C      1  0.4549930000000  0.4832680000000  0.4426100000000 1.0
C      1  0.4521210000000  0.5238300000000  0.5595020000000 1.0
C      1  0.5400430000000  0.4782050000000  0.5563330000000 1.0
C      1  0.5603410000000  0.4573480000000  0.5214740000000 1.0
C      1  0.5552480000000  0.5434350000000  0.4780410000000 1.0
C      1  0.4406300000000  0.4640760000000  0.4863660000000 1.0
C      1  0.4031770000000  0.5109080000000  0.4371210000000 1.0
C      1  0.5343460000000  0.4432030000000  0.4005840000000 1.0
C      1  0.4521300000000  0.4046260000000  0.5160050000000 1.0
C      1  0.5936210000000  0.4788240000000  0.4336760000000 1.0
C      1  0.4004210000000  0.4821340000000  0.5612950000000 1.0
C      1  0.5959780000000  0.5283060000000  0.5745510000000 1.0
C      1  0.4788160000000  0.5583060000000  0.3984050000000 1.0
C      1  0.5336170000000  0.5497160000000  0.6131650000000 1.0
C      1  0.4807620000000  0.4366210000000  0.6011010000000 1.0
C      1  0.5745330000000  0.5988910000000  0.5170480000000 1.0
C      1  0.4359550000000  0.5990890000000  0.4819110000000 1.0
C      1  0.5531980000000  0.4030080000000  0.4696280000000 1.0
C      1  0.5405020000000  0.3923230000000  0.4430230000000 1.0
C      1  0.4357590000000  0.5181570000000  0.3975350000000 1.0
C      1  0.4034880000000  0.4296890000000  0.5143560000000 1.0
C      1  0.4811610000000  0.5975850000000  0.4391200000000 1.0
C      1  0.4791340000000  0.4006810000000  0.5658460000000 1.0
C      1  0.5236430000000  0.5946640000000  0.5675530000000 1.0
C      1  0.5591610000000  0.4679500000000  0.3935100000000 1.0
C      1  0.5518540000000  0.5266330000000  0.6006780000000 1.0
C      1  0.4421030000000  0.4804450000000  0.6006350000000 1.0
C      1  0.5979750000000  0.5568480000000  0.5153910000000 1.0
C      1  0.5924660000000  0.4434940000000  0.4787110000000 1.0
C      1  0.3986950000000  0.5607540000000  0.4868030000000 1.0
C      1  0.4780360000000  0.5223910000000  0.4755450000000 1.0
C      1  0.5157310000000  0.4829500000000  0.4780160000000 1.0
C      1  0.4743060000000  0.4794200000000  0.5252700000000 1.0
C      1  0.5164660000000  0.5183410000000  0.5208860000000 1.0
END
