TITL C-3623282-6910-136 -26856.9310820298 125000 -424.267842390567 0 0 71 (C1) n - 1
REM
REM in /home/nfs/bkarasulu/CARBON/AIRSS/Generating-Clusters/LCBOP/Higher-Symm/SD-CG/FIRE-CG
REM
REM
REM
REM
REM
REM ./C.cell (b20cbc046b6831c77cfcea5457e17084)
REM AIRSS Version 0.9.1 bugfix July 2018 build 013d7b7c2542+ Fri, 06 Jul 2018 19:26:36 +0100
REM compiler GCC version 9.2.1 20190827 (Red Hat 9.2.1-1)
REM options -cpp -mtune=generic -march=x86-64 -g -O0 -fpre-include=/usr/include/finclude/math-vector-fortran.h
REM seed 1337979589 -1521078763 -850623649 2025600240 -886113954 283150685 -1679819863 1827700930 -1747612208 481892763 -2111334896 6326590 -2109431709 -1057657645 952096518 -1437972472 2065829388 784086709 1544066460 -486080338 -36749841 -1472385360 809388117 212758945 229640082 -1042204141 166476039 -1654817642 -876110459 -680734445 372842394 -326796113 2035964897
REM
CELL 1.54180   50.00000   50.00000   50.00000   90.00000   90.00000   90.00000
LATT -1
SFAC C  
C      1  0.4966670000000  0.5234550000000  0.4218600000000 1.0
C      1  0.5009160000000  0.5528870000000  0.5557330000000 1.0
C      1  0.4987100000000  0.4227450000000  0.5178250000000 1.0
C      1  0.4905860000000  0.5400180000000  0.5130610000000 1.0
C      1  0.4923230000000  0.4670650000000  0.5202770000000 1.0
C      1  0.4906450000000  0.5016720000000  0.4600970000000 1.0
C      1  0.4481570000000  0.4650080000000  0.5078480000000 1.0
C      1  0.4455810000000  0.5115740000000  0.4643750000000 1.0
C      1  0.4484390000000  0.5241590000000  0.5272850000000 1.0
C      1  0.4859490000000  0.5486030000000  0.4313160000000 1.0
C      1  0.4941050000000  0.5285740000000  0.5696700000000 1.0
C      1  0.4933320000000  0.4226260000000  0.4895540000000 1.0
C      1  0.5528140000000  0.4922040000000  0.5704290000000 1.0
C      1  0.5503140000000  0.4438550000000  0.4652350000000 1.0
C      1  0.5554670000000  0.5598260000000  0.4662340000000 1.0
C      1  0.5289260000000  0.4414850000000  0.4482930000000 1.0
C      1  0.5315740000000  0.5728310000000  0.4619480000000 1.0
C      1  0.5295640000000  0.4812970000000  0.5808560000000 1.0
C      1  0.5027350000000  0.4570000000000  0.4504700000000 1.0
C      1  0.5060380000000  0.5645140000000  0.4719380000000 1.0
C      1  0.5032810000000  0.4767870000000  0.5654520000000 1.0
C      1  0.5363160000000  0.5015720000000  0.4455600000000 1.0
C      1  0.5525260000000  0.5496170000000  0.5456130000000 1.0
C      1  0.5369640000000  0.4514450000000  0.5296750000000 1.0
C      1  0.4848540000000  0.4386240000000  0.4672680000000 1.0
C      1  0.4816050000000  0.5617430000000  0.4570740000000 1.0
C      1  0.4855290000000  0.5012010000000  0.5703620000000 1.0
C      1  0.5765170000000  0.5266700000000  0.5055840000000 1.0
C      1  0.5756530000000  0.4827060000000  0.5256390000000 1.0
C      1  0.5740300000000  0.4868240000000  0.4775800000000 1.0
C      1  0.4731700000000  0.5187270000000  0.5155720000000 1.0
C      1  0.4722790000000  0.4791480000000  0.5060900000000 1.0
C      1  0.4701800000000  0.5072410000000  0.4768540000000 1.0
C      1  0.4426730000000  0.4444000000000  0.4897010000000 1.0
C      1  0.4396840000000  0.5381040000000  0.4575150000000 1.0
C      1  0.4434230000000  0.5180160000000  0.5540940000000 1.0
C      1  0.4497660000000  0.4664790000000  0.4478460000000 1.0
C      1  0.4459270000000  0.5611100000000  0.4988150000000 1.0
C      1  0.4503670000000  0.4706680000000  0.5555690000000 1.0
C      1  0.4115540000000  0.4875800000000  0.4815230000000 1.0
C      1  0.4105440000000  0.5185690000000  0.5014390000000 1.0
C      1  0.4112740000000  0.4868880000000  0.5198420000000 1.0
C      1  0.4314290000000  0.4869390000000  0.4607980000000 1.0
C      1  0.4302820000000  0.5369920000000  0.5090240000000 1.0
C      1  0.4327870000000  0.4718700000000  0.5310050000000 1.0
C      1  0.5261470000000  0.4251980000000  0.5256280000000 1.0
C      1  0.5251350000000  0.5182070000000  0.4245790000000 1.0
C      1  0.5287520000000  0.5585950000000  0.5543770000000 1.0
C      1  0.5146450000000  0.4841960000000  0.4603640000000 1.0
C      1  0.5090470000000  0.5462460000000  0.4933770000000 1.0
C      1  0.5159740000000  0.4735800000000  0.5374750000000 1.0
C      1  0.4729880000000  0.4737260000000  0.4314920000000 1.0
C      1  0.4620640000000  0.5739070000000  0.5200800000000 1.0
C      1  0.4734770000000  0.4528140000000  0.5573910000000 1.0
C      1  0.5599800000000  0.5077930000000  0.4621170000000 1.0
C      1  0.5674350000000  0.5285500000000  0.5342080000000 1.0
C      1  0.5603330000000  0.4601140000000  0.5151090000000 1.0
C      1  0.5585050000000  0.5338240000000  0.4805700000000 1.0
C      1  0.5655280000000  0.5011030000000  0.5462310000000 1.0
C      1  0.5609360000000  0.4613190000000  0.4851290000000 1.0
C      1  0.5266510000000  0.4995870000000  0.5305210000000 1.0
C      1  0.5251300000000  0.4826160000000  0.4872150000000 1.0
C      1  0.5313010000000  0.5297180000000  0.4931370000000 1.0
C      1  0.4550460000000  0.5587750000000  0.4704230000000 1.0
C      1  0.4571760000000  0.4966340000000  0.5661520000000 1.0
C      1  0.4565010000000  0.4443920000000  0.4651950000000 1.0
C      1  0.4849110000000  0.5606990000000  0.5325700000000 1.0
C      1  0.4833940000000  0.4418320000000  0.5332270000000 1.0
C      1  0.4825690000000  0.5002550000000  0.4317570000000 1.0
C      1  0.5849520000000  0.4984080000000  0.5021940000000 1.0
C      1  0.5280060000000  0.5044000000000  0.5037890000000 1.0
END
