TITL C-3623287-7182-909 -1.70445709638793e-06 125000 -326.555627002634 0 0 54 (C1) n - 1
REM
REM in /home/nfs/bkarasulu/CARBON/AIRSS/Generating-Clusters/LCBOP/Higher-Symm/SD-CG/FIRE-CG
REM
REM
REM
REM
REM
REM ./C.cell (b20cbc046b6831c77cfcea5457e17084)
REM AIRSS Version 0.9.1 bugfix July 2018 build 013d7b7c2542+ Fri, 06 Jul 2018 19:26:36 +0100
REM compiler GCC version 9.2.1 20190827 (Red Hat 9.2.1-1)
REM options -cpp -mtune=generic -march=x86-64 -g -O0 -fpre-include=/usr/include/finclude/math-vector-fortran.h
REM seed -1411081456 1477315292 -2100942509 1823247218 -1149391601 1981906683 1854181119 -1203191209 2100664261 -807199029 -2058631155 434668592 59587976 157801676 -983461285 -39664627 1902637269 1195567107 1150875599 -764231007 1413744408 -1303521823 130017761 1435542440 22725135 -1176270994 -1306913865 453435370 1210427879 -1609155324 -1117623015 -2014965923 -1405514474
REM
CELL 1.54180   50.00000   50.00000   50.00000   90.00000   90.00000   90.00000
LATT -1
SFAC C  
C      1  0.4907560000000  0.4852520000000  0.5286460000000 1.0
C      1  0.5476180000000  0.5810530000000  0.4388400000000 1.0
C      1  0.4751340000000  0.4295110000000  0.5661510000000 1.0
C      1  0.4997880000000  0.5465290000000  0.4290560000000 1.0
C      1  0.5398040000000  0.4509360000000  0.4926230000000 1.0
C      1  0.4599950000000  0.5416380000000  0.5245540000000 1.0
C      1  0.4890220000000  0.4147260000000  0.5485500000000 1.0
C      1  0.5069810000000  0.5577770000000  0.4551890000000 1.0
C      1  0.5248890000000  0.4996830000000  0.5612100000000 1.0
C      1  0.4551310000000  0.4920420000000  0.4478890000000 1.0
C      1  0.4641530000000  0.5003220000000  0.5841920000000 1.0
C      1  0.5552720000000  0.5108260000000  0.4464090000000 1.0
C      1  0.4696460000000  0.4260550000000  0.4935160000000 1.0
C      1  0.5305930000000  0.5543090000000  0.5084150000000 1.0
C      1  0.5475510000000  0.4948640000000  0.5444060000000 1.0
C      1  0.4408820000000  0.4897820000000  0.4721290000000 1.0
C      1  0.5112180000000  0.5474600000000  0.5716370000000 1.0
C      1  0.4947600000000  0.4617240000000  0.4394680000000 1.0
C      1  0.5577430000000  0.5170870000000  0.5305290000000 1.0
C      1  0.4362640000000  0.4632910000000  0.4806100000000 1.0
C      1  0.5345730000000  0.5566290000000  0.3695910000000 1.0
C      1  0.4229220000000  0.4571870000000  0.5392980000000 1.0
C      1  0.5595570000000  0.4886620000000  0.4603770000000 1.0
C      1  0.4505390000000  0.5197490000000  0.5714840000000 1.0
C      1  0.5232170000000  0.5238280000000  0.5756550000000 1.0
C      1  0.4758110000000  0.4801360000000  0.4358370000000 1.0
C      1  0.5154260000000  0.4393410000000  0.4826980000000 1.0
C      1  0.4855740000000  0.5549610000000  0.5272520000000 1.0
C      1  0.4649670000000  0.4556600000000  0.5652600000000 1.0
C      1  0.5241720000000  0.5385860000000  0.4145590000000 1.0
C      1  0.4479290000000  0.4398400000000  0.4862110000000 1.0
C      1  0.5505720000000  0.5390630000000  0.5172340000000 1.0
C      1  0.5423890000000  0.5336510000000  0.4377520000000 1.0
C      1  0.4797540000000  0.4788700000000  0.5742690000000 1.0
C      1  0.4641010000000  0.5516820000000  0.4781420000000 1.0
C      1  0.5331270000000  0.4249010000000  0.5317900000000 1.0
C      1  0.5367920000000  0.5586980000000  0.4531940000000 1.0
C      1  0.5005140000000  0.4865770000000  0.5554700000000 1.0
C      1  0.4658600000000  0.4759270000000  0.5229200000000 1.0
C      1  0.5466360000000  0.5803470000000  0.4113520000000 1.0
C      1  0.4495440000000  0.4621120000000  0.5417040000000 1.0
C      1  0.5350800000000  0.5584280000000  0.3967220000000 1.0
C      1  0.5539820000000  0.4689190000000  0.5360490000000 1.0
C      1  0.4387560000000  0.5122330000000  0.4890100000000 1.0
C      1  0.4915430000000  0.5582770000000  0.4784460000000 1.0
C      1  0.5061170000000  0.4182210000000  0.5265740000000 1.0
C      1  0.4962620000000  0.5593750000000  0.5529220000000 1.0
C      1  0.5075380000000  0.4457350000000  0.4565080000000 1.0
C      1  0.5030700000000  0.5580010000000  0.5045950000000 1.0
C      1  0.4969450000000  0.4257930000000  0.5003730000000 1.0
C      1  0.5548290000000  0.4680620000000  0.4764510000000 1.0
C      1  0.4477030000000  0.5325310000000  0.5481200000000 1.0
C      1  0.4511990000000  0.5358460000000  0.4978560000000 1.0
C      1  0.5457990000000  0.4473030000000  0.5203070000000 1.0
END
