TITL C-3623283-6828-375 1.59787405818467e-08 125000 -31.1856428631267 0 0 6 (D(inf)h) n - 1
REM
REM in /home/nfs/bkarasulu/CARBON/AIRSS/Generating-Clusters/LCBOP/Higher-Symm/SD-CG/FIRE-CG
REM
REM
REM
REM
REM
REM ./C.cell (b20cbc046b6831c77cfcea5457e17084)
REM AIRSS Version 0.9.1 bugfix July 2018 build 013d7b7c2542+ Fri, 06 Jul 2018 19:26:36 +0100
REM compiler GCC version 9.2.1 20190827 (Red Hat 9.2.1-1)
REM options -cpp -mtune=generic -march=x86-64 -g -O0 -fpre-include=/usr/include/finclude/math-vector-fortran.h
REM seed -158298538 384529472 1809689026 -784994962 -741070065 1901115156 -2105234763 -1166191629 -503044106 2081218210 -1430875200 -1783588255 -1973685684 -1062770089 1246811390 769762461 906668002 -263161952 -742761110 -429018327 449259082 -47414519 1128980526 -911987735 1011007584 2009573621 2137250835 1825102391 -1515969841 139696728 -1519487586 1703556645 708306085
REM
CELL 1.54180   50.00000   50.00000   50.00000   90.00000   90.00000   90.00000
LATT -1
SFAC C  
C      1  0.5013720000000  0.5397560000000  0.5000000000000 1.0
C      1  0.5013720000000  0.5658260000000  0.5000000000000 1.0
C      1  0.5013720000000  0.4341740000000  0.5000000000000 1.0
C      1  0.5013720000000  0.4602440000000  0.5000000000000 1.0
C      1  0.5013720000000  0.4867500000000  0.5000000000000 1.0
C      1  0.5013720000000  0.5132500000000  0.5000000000000 1.0
END
