TITL C-3623282-6910-675 2.6010502563582e-07 125000 -1048.95060880694 0 0 171 (C1) n - 1
REM
REM in /home/nfs/bkarasulu/CARBON/AIRSS/Generating-Clusters/LCBOP/Higher-Symm/SD-CG/FIRE-CG
REM
REM
REM
REM
REM
REM ./C.cell (b20cbc046b6831c77cfcea5457e17084)
REM AIRSS Version 0.9.1 bugfix July 2018 build 013d7b7c2542+ Fri, 06 Jul 2018 19:26:36 +0100
REM compiler GCC version 9.2.1 20190827 (Red Hat 9.2.1-1)
REM options -cpp -mtune=generic -march=x86-64 -g -O0 -fpre-include=/usr/include/finclude/math-vector-fortran.h
REM seed -503243662 -431923488 -1884989507 1038748044 258761930 -1230444283 -482021277 -1529115312 -193778650 -1221048960 12721494 -908752332 1321672265 -1795566009 709577968 515774036 1950890611 1744514271 -1124024663 948257983 1562107944 -1851410988 1033989839 833591865 -1138749310 1418371086 -797348949 -808096813 -534743398 1191379097 -27700424 454869507 81711291
REM
CELL 1.54180   50.00000   50.00000   50.00000   90.00000   90.00000   90.00000
LATT -1
SFAC C  
C      1  0.5322020000000  0.5374590000000  0.3996850000000 1.0
C      1  0.5295070000000  0.4680090000000  0.4036070000000 1.0
C      1  0.4639950000000  0.4015100000000  0.5866410000000 1.0
C      1  0.4699920000000  0.6139460000000  0.5866370000000 1.0
C      1  0.5174670000000  0.4388400000000  0.5166820000000 1.0
C      1  0.5135160000000  0.5587340000000  0.5131950000000 1.0
C      1  0.6064420000000  0.4733610000000  0.4826840000000 1.0
C      1  0.6100950000000  0.5340370000000  0.4942110000000 1.0
C      1  0.4478780000000  0.5726030000000  0.6044130000000 1.0
C      1  0.4607960000000  0.4408400000000  0.6141190000000 1.0
C      1  0.5737620000000  0.4776100000000  0.5225020000000 1.0
C      1  0.5731230000000  0.5230610000000  0.5250080000000 1.0
C      1  0.5225260000000  0.4253100000000  0.5879690000000 1.0
C      1  0.5134130000000  0.5687540000000  0.5869720000000 1.0
C      1  0.4206870000000  0.4851550000000  0.4367410000000 1.0
C      1  0.4242480000000  0.5129960000000  0.4305350000000 1.0
C      1  0.3525010000000  0.5288940000000  0.4287710000000 1.0
C      1  0.3504900000000  0.4729270000000  0.4226510000000 1.0
C      1  0.5475870000000  0.5145700000000  0.3935520000000 1.0
C      1  0.5497960000000  0.4880410000000  0.4029970000000 1.0
C      1  0.5465870000000  0.5118720000000  0.6206630000000 1.0
C      1  0.5497710000000  0.4850610000000  0.6209020000000 1.0
C      1  0.5997580000000  0.4841260000000  0.5844690000000 1.0
C      1  0.5980350000000  0.5147350000000  0.5859110000000 1.0
C      1  0.4565350000000  0.4938580000000  0.6248480000000 1.0
C      1  0.4534250000000  0.5206050000000  0.6224180000000 1.0
C      1  0.5595920000000  0.5751960000000  0.4643130000000 1.0
C      1  0.5626410000000  0.4184640000000  0.4584200000000 1.0
C      1  0.4591500000000  0.4670340000000  0.6226440000000 1.0
C      1  0.4500690000000  0.5466590000000  0.6160810000000 1.0
C      1  0.5319270000000  0.4446710000000  0.4218460000000 1.0
C      1  0.5346740000000  0.5566340000000  0.4220800000000 1.0
C      1  0.5318480000000  0.4646400000000  0.5494900000000 1.0
C      1  0.5303030000000  0.5365590000000  0.5474150000000 1.0
C      1  0.5098710000000  0.4343040000000  0.4906500000000 1.0
C      1  0.5008340000000  0.5566140000000  0.4889100000000 1.0
C      1  0.4051170000000  0.4586940000000  0.5122810000000 1.0
C      1  0.4309820000000  0.5461200000000  0.5448880000000 1.0
C      1  0.6189920000000  0.5098000000000  0.4482420000000 1.0
C      1  0.6147240000000  0.4831980000000  0.4568230000000 1.0
C      1  0.5448600000000  0.4595370000000  0.4688180000000 1.0
C      1  0.5230240000000  0.5204450000000  0.4659200000000 1.0
C      1  0.4490270000000  0.4362910000000  0.4713500000000 1.0
C      1  0.4467190000000  0.5587110000000  0.4708240000000 1.0
C      1  0.4607680000000  0.5118960000000  0.5666110000000 1.0
C      1  0.4615820000000  0.4832160000000  0.5702500000000 1.0
C      1  0.5965440000000  0.5154670000000  0.5099490000000 1.0
C      1  0.5967600000000  0.4868850000000  0.5059820000000 1.0
C      1  0.3759720000000  0.5144950000000  0.4287740000000 1.0
C      1  0.3743970000000  0.4852540000000  0.4281090000000 1.0
C      1  0.4919850000000  0.5479780000000  0.4439570000000 1.0
C      1  0.4886040000000  0.4571650000000  0.4447740000000 1.0
C      1  0.4134050000000  0.4829560000000  0.5742430000000 1.0
C      1  0.4128110000000  0.5098700000000  0.5719440000000 1.0
C      1  0.5474960000000  0.4401750000000  0.5538770000000 1.0
C      1  0.5434710000000  0.5613760000000  0.5544260000000 1.0
C      1  0.4368620000000  0.4678930000000  0.5700780000000 1.0
C      1  0.4350260000000  0.5249660000000  0.5629840000000 1.0
C      1  0.5070180000000  0.5358890000000  0.3871980000000 1.0
C      1  0.5041350000000  0.4769060000000  0.3956250000000 1.0
C      1  0.5085350000000  0.5813500000000  0.5318660000000 1.0
C      1  0.5148570000000  0.4153800000000  0.5340070000000 1.0
C      1  0.5766060000000  0.5340560000000  0.4388690000000 1.0
C      1  0.5790160000000  0.4608120000000  0.4302820000000 1.0
C      1  0.5991130000000  0.4461360000000  0.4799320000000 1.0
C      1  0.6024310000000  0.5558810000000  0.4804820000000 1.0
C      1  0.4837330000000  0.5225200000000  0.5533030000000 1.0
C      1  0.4848760000000  0.4703940000000  0.5599490000000 1.0
C      1  0.4736690000000  0.4635000000000  0.5060170000000 1.0
C      1  0.4627110000000  0.5261980000000  0.5021690000000 1.0
C      1  0.5259450000000  0.4418080000000  0.4714400000000 1.0
C      1  0.5033110000000  0.5392260000000  0.4676360000000 1.0
C      1  0.4621720000000  0.5462980000000  0.4414120000000 1.0
C      1  0.4587190000000  0.4503940000000  0.4461270000000 1.0
C      1  0.4966260000000  0.5926940000000  0.4409740000000 1.0
C      1  0.4956650000000  0.4098210000000  0.4405050000000 1.0
C      1  0.5475010000000  0.5164700000000  0.5121600000000 1.0
C      1  0.5466810000000  0.4856520000000  0.5085400000000 1.0
C      1  0.4887620000000  0.4817100000000  0.4599930000000 1.0
C      1  0.4630870000000  0.4979530000000  0.4550810000000 1.0
C      1  0.5207060000000  0.5790040000000  0.5597470000000 1.0
C      1  0.5292200000000  0.4182110000000  0.5599970000000 1.0
C      1  0.4789600000000  0.5236140000000  0.5250810000000 1.0
C      1  0.4803150000000  0.4626620000000  0.5331380000000 1.0
C      1  0.5108100000000  0.3963780000000  0.4635920000000 1.0
C      1  0.5103120000000  0.6017080000000  0.4657490000000 1.0
C      1  0.4241060000000  0.4323750000000  0.4143350000000 1.0
C      1  0.4256540000000  0.5677970000000  0.4136880000000 1.0
C      1  0.4250090000000  0.5808350000000  0.5899440000000 1.0
C      1  0.4458620000000  0.4237370000000  0.5851400000000 1.0
C      1  0.3977680000000  0.4693650000000  0.4328960000000 1.0
C      1  0.4009390000000  0.5290960000000  0.4296630000000 1.0
C      1  0.4936610000000  0.6031180000000  0.5195080000000 1.0
C      1  0.4968510000000  0.3957740000000  0.5214150000000 1.0
C      1  0.6152060000000  0.4642000000000  0.5694000000000 1.0
C      1  0.6131990000000  0.5360520000000  0.5728990000000 1.0
C      1  0.4796970000000  0.5332510000000  0.3922240000000 1.0
C      1  0.4765630000000  0.4817070000000  0.4000600000000 1.0
C      1  0.4356730000000  0.4297250000000  0.5374840000000 1.0
C      1  0.4240120000000  0.6052890000000  0.5447160000000 1.0
C      1  0.5460710000000  0.5059630000000  0.4633450000000 1.0
C      1  0.5486580000000  0.4839020000000  0.4796260000000 1.0
C      1  0.4675750000000  0.5935880000000  0.4338190000000 1.0
C      1  0.4674890000000  0.4072120000000  0.4301140000000 1.0
C      1  0.5088810000000  0.5675980000000  0.4311250000000 1.0
C      1  0.5061280000000  0.4367170000000  0.4337630000000 1.0
C      1  0.4732830000000  0.3863350000000  0.5649180000000 1.0
C      1  0.4772860000000  0.6222970000000  0.5621370000000 1.0
C      1  0.4051900000000  0.5575170000000  0.4307980000000 1.0
C      1  0.4034240000000  0.4408120000000  0.4327800000000 1.0
C      1  0.5005450000000  0.3904980000000  0.4917400000000 1.0
C      1  0.4982120000000  0.6080480000000  0.4912730000000 1.0
C      1  0.5686300000000  0.5140190000000  0.5521640000000 1.0
C      1  0.5696630000000  0.4847980000000  0.5510340000000 1.0
C      1  0.5116830000000  0.4680320000000  0.5696400000000 1.0
C      1  0.5095340000000  0.5281800000000  0.5650790000000 1.0
C      1  0.5202060000000  0.5399540000000  0.5898650000000 1.0
C      1  0.5253420000000  0.4544680000000  0.5917680000000 1.0
C      1  0.4318860000000  0.4142170000000  0.4639060000000 1.0
C      1  0.4308190000000  0.5812680000000  0.4644080000000 1.0
C      1  0.4615400000000  0.4567730000000  0.3970240000000 1.0
C      1  0.4663520000000  0.5585380000000  0.3924170000000 1.0
C      1  0.6048200000000  0.5310260000000  0.4387790000000 1.0
C      1  0.6064640000000  0.4642310000000  0.4365080000000 1.0
C      1  0.5809540000000  0.5788770000000  0.5138550000000 1.0
C      1  0.5835470000000  0.4178900000000  0.5109030000000 1.0
C      1  0.4443220000000  0.4756960000000  0.4476790000000 1.0
C      1  0.4548280000000  0.5183210000000  0.4328940000000 1.0
C      1  0.4489430000000  0.4056980000000  0.5302150000000 1.0
C      1  0.4451910000000  0.6119720000000  0.5294360000000 1.0
C      1  0.4467180000000  0.6019980000000  0.4523820000000 1.0
C      1  0.4469750000000  0.3955760000000  0.4476980000000 1.0
C      1  0.5695650000000  0.5232680000000  0.5796000000000 1.0
C      1  0.5717020000000  0.4745220000000  0.5784850000000 1.0
C      1  0.4635700000000  0.5739230000000  0.3699520000000 1.0
C      1  0.4532710000000  0.4502880000000  0.3715650000000 1.0
C      1  0.4168900000000  0.5939450000000  0.5679760000000 1.0
C      1  0.4370900000000  0.4399460000000  0.5643750000000 1.0
C      1  0.5970680000000  0.4279210000000  0.5328840000000 1.0
C      1  0.5945420000000  0.5713930000000  0.5365380000000 1.0
C      1  0.5798450000000  0.5724940000000  0.4855160000000 1.0
C      1  0.5807010000000  0.4244400000000  0.4823720000000 1.0
C      1  0.5464640000000  0.5284160000000  0.5975520000000 1.0
C      1  0.5507450000000  0.4678920000000  0.5983140000000 1.0
C      1  0.5278370000000  0.5347880000000  0.5198330000000 1.0
C      1  0.5280440000000  0.4657780000000  0.5217300000000 1.0
C      1  0.4331790000000  0.5571520000000  0.5204380000000 1.0
C      1  0.4292510000000  0.4464370000000  0.5154130000000 1.0
C      1  0.5641550000000  0.5086310000000  0.4424510000000 1.0
C      1  0.5669330000000  0.4863250000000  0.4249860000000 1.0
C      1  0.6076870000000  0.5563940000000  0.5552210000000 1.0
C      1  0.6097430000000  0.4440780000000  0.5511650000000 1.0
C      1  0.5073500000000  0.4116550000000  0.6069790000000 1.0
C      1  0.4962200000000  0.5801250000000  0.6056040000000 1.0
C      1  0.4056750000000  0.4233160000000  0.4556980000000 1.0
C      1  0.4050230000000  0.5735390000000  0.4545500000000 1.0
C      1  0.4576070000000  0.5077640000000  0.4823160000000 1.0
C      1  0.4907090000000  0.4773600000000  0.4881400000000 1.0
C      1  0.5585240000000  0.5570350000000  0.4404910000000 1.0
C      1  0.5597720000000  0.4383240000000  0.4341760000000 1.0
C      1  0.4798550000000  0.4112570000000  0.6092250000000 1.0
C      1  0.4704360000000  0.5903160000000  0.6021500000000 1.0
C      1  0.5402480000000  0.3993750000000  0.4611620000000 1.0
C      1  0.5382680000000  0.5942110000000  0.4667890000000 1.0
C      1  0.4727580000000  0.6148730000000  0.5351610000000 1.0
C      1  0.4726520000000  0.3918960000000  0.5369710000000 1.0
C      1  0.4542890000000  0.4350680000000  0.4197500000000 1.0
C      1  0.4556640000000  0.5678200000000  0.4189890000000 1.0
C      1  0.4479600000000  0.5499670000000  0.4976280000000 1.0
C      1  0.4506130000000  0.4492650000000  0.4966330000000 1.0
C      1  0.4690910000000  0.5099000000000  0.4063620000000 1.0
END
