TITL C-3623286-7563-1435 4957.47878933925 125000 -842.126500006834 0 0 142 (C1) n - 1
REM
REM in /home/nfs/bkarasulu/CARBON/AIRSS/Generating-Clusters/LCBOP/Higher-Symm/SD-CG/FIRE-CG
REM
REM
REM
REM
REM
REM ./C.cell (b20cbc046b6831c77cfcea5457e17084)
REM AIRSS Version 0.9.1 bugfix July 2018 build 013d7b7c2542+ Fri, 06 Jul 2018 19:26:36 +0100
REM compiler GCC version 9.2.1 20190827 (Red Hat 9.2.1-1)
REM options -cpp -mtune=generic -march=x86-64 -g -O0 -fpre-include=/usr/include/finclude/math-vector-fortran.h
REM seed -2094300969 -2021710298 1789230385 90516003 -850667083 -1704633063 988790664 -1829911952 125010227 -512174779 338018702 1749495801 -914774015 -1381851026 -391987857 509787409 -470363841 -917733925 -2121817280 -534139780 -1739306806 -1906447957 1044373049 -2086157084 -2095429611 -1832021381 -1462145789 358188752 -672279334 -1859560468 -1724470180 2026467907 1147040108
REM
CELL 1.54180   50.00000   50.00000   50.00000   90.00000   90.00000   90.00000
LATT -1
SFAC C  
C      1  0.4684520000000  0.5208660000000  0.5558800000000 1.0
C      1  0.4685430000000  0.5556230000000  0.4786750000000 1.0
C      1  0.4682000000000  0.4789410000000  0.4441570000000 1.0
C      1  0.4684740000000  0.4440370000000  0.5205350000000 1.0
C      1  0.5340280000000  0.5206520000000  0.4440190000000 1.0
C      1  0.5341440000000  0.5554450000000  0.5206140000000 1.0
C      1  0.5337650000000  0.4786890000000  0.5559850000000 1.0
C      1  0.5341530000000  0.4441060000000  0.4787730000000 1.0
C      1  0.4871930000000  0.4159980000000  0.3791790000000 1.0
C      1  0.4878570000000  0.3786700000000  0.5828890000000 1.0
C      1  0.4875120000000  0.5845020000000  0.6204540000000 1.0
C      1  0.4878920000000  0.6207090000000  0.4156310000000 1.0
C      1  0.5143900000000  0.4152330000000  0.6207200000000 1.0
C      1  0.5153200000000  0.3793080000000  0.4153690000000 1.0
C      1  0.5148120000000  0.5834030000000  0.3788930000000 1.0
C      1  0.5147940000000  0.6207700000000  0.5830090000000 1.0
C      1  0.4777110000000  0.4192380000000  0.5587700000000 1.0
C      1  0.4774410000000  0.5591080000000  0.5806590000000 1.0
C      1  0.4776540000000  0.5807070000000  0.4406370000000 1.0
C      1  0.4773580000000  0.4406490000000  0.4194680000000 1.0
C      1  0.5251600000000  0.4192740000000  0.4405450000000 1.0
C      1  0.5248770000000  0.5588840000000  0.4192340000000 1.0
C      1  0.5248440000000  0.5802240000000  0.5588380000000 1.0
C      1  0.5247210000000  0.4405630000000  0.5809350000000 1.0
C      1  0.4795690000000  0.5944430000000  0.5148840000000 1.0
C      1  0.4796210000000  0.5146330000000  0.4050310000000 1.0
C      1  0.4795360000000  0.4049090000000  0.4846360000000 1.0
C      1  0.4794530000000  0.4849220000000  0.5953730000000 1.0
C      1  0.5229570000000  0.5947810000000  0.4849470000000 1.0
C      1  0.5229330000000  0.5148540000000  0.5953020000000 1.0
C      1  0.5228090000000  0.4049950000000  0.5146410000000 1.0
C      1  0.5228830000000  0.4846120000000  0.4052120000000 1.0
C      1  0.5739670000000  0.5461570000000  0.4697720000000 1.0
C      1  0.5748200000000  0.4695920000000  0.4532870000000 1.0
C      1  0.5738460000000  0.4529390000000  0.5303780000000 1.0
C      1  0.5747100000000  0.5300880000000  0.5465250000000 1.0
C      1  0.4277810000000  0.5463840000000  0.5302540000000 1.0
C      1  0.4285880000000  0.4697350000000  0.5463070000000 1.0
C      1  0.4275880000000  0.4532210000000  0.4696870000000 1.0
C      1  0.4284580000000  0.5302800000000  0.4530200000000 1.0
C      1  0.4403470000000  0.4639210000000  0.4432730000000 1.0
C      1  0.4407720000000  0.4431960000000  0.5357910000000 1.0
C      1  0.4405900000000  0.5358750000000  0.5566520000000 1.0
C      1  0.4407900000000  0.5566280000000  0.4636560000000 1.0
C      1  0.5615250000000  0.4635820000000  0.5567730000000 1.0
C      1  0.5620480000000  0.4431870000000  0.4639010000000 1.0
C      1  0.5617670000000  0.5357700000000  0.4431910000000 1.0
C      1  0.5619210000000  0.5564070000000  0.5358150000000 1.0
C      1  0.5262500000000  0.4942710000000  0.4520260000000 1.0
C      1  0.5263000000000  0.4519620000000  0.5051060000000 1.0
C      1  0.5261440000000  0.5051440000000  0.5485730000000 1.0
C      1  0.5264120000000  0.5478800000000  0.4940960000000 1.0
C      1  0.4761680000000  0.4944320000000  0.5485400000000 1.0
C      1  0.4761660000000  0.4517110000000  0.4940350000000 1.0
C      1  0.4760750000000  0.5053510000000  0.4519790000000 1.0
C      1  0.4762440000000  0.5476190000000  0.5050210000000 1.0
C      1  0.5514830000000  0.4061090000000  0.5182580000000 1.0
C      1  0.5517380000000  0.5182600000000  0.5935060000000 1.0
C      1  0.5517040000000  0.5933390000000  0.4814500000000 1.0
C      1  0.5516130000000  0.4811800000000  0.4066030000000 1.0
C      1  0.4507710000000  0.4064310000000  0.4812930000000 1.0
C      1  0.4509190000000  0.5181610000000  0.4062100000000 1.0
C      1  0.4508480000000  0.5930550000000  0.5184260000000 1.0
C      1  0.4506830000000  0.4813870000000  0.5937120000000 1.0
C      1  0.5142230000000  0.5224460000000  0.5685660000000 1.0
C      1  0.5143860000000  0.5680640000000  0.4770670000000 1.0
C      1  0.5141850000000  0.4770440000000  0.4319950000000 1.0
C      1  0.5143420000000  0.4318280000000  0.5222950000000 1.0
C      1  0.4881280000000  0.5224350000000  0.4318110000000 1.0
C      1  0.4881980000000  0.5676120000000  0.5223630000000 1.0
C      1  0.4880520000000  0.4772150000000  0.5686340000000 1.0
C      1  0.4882460000000  0.4316280000000  0.4769290000000 1.0
C      1  0.5699820000000  0.4281960000000  0.5143380000000 1.0
C      1  0.5702030000000  0.5140780000000  0.5712750000000 1.0
C      1  0.5701830000000  0.5711720000000  0.4855100000000 1.0
C      1  0.5702940000000  0.4854460000000  0.4285170000000 1.0
C      1  0.4321360000000  0.4284210000000  0.4855300000000 1.0
C      1  0.4323500000000  0.5142610000000  0.4282630000000 1.0
C      1  0.4322510000000  0.5710420000000  0.5142030000000 1.0
C      1  0.4323610000000  0.4854610000000  0.5713710000000 1.0
C      1  0.4914960000000  0.4206160000000  0.4057800000000 1.0
C      1  0.4917080000000  0.4054150000000  0.5787960000000 1.0
C      1  0.4915420000000  0.5794530000000  0.5938980000000 1.0
C      1  0.4917720000000  0.5940790000000  0.4203940000000 1.0
C      1  0.5106300000000  0.4201770000000  0.5941100000000 1.0
C      1  0.5110200000000  0.4058430000000  0.4203430000000 1.0
C      1  0.5108460000000  0.5790000000000  0.4055740000000 1.0
C      1  0.5107520000000  0.5940680000000  0.5787910000000 1.0
C      1  0.5901940000000  0.4720270000000  0.5178950000000 1.0
C      1  0.5915720000000  0.5180070000000  0.5277070000000 1.0
C      1  0.5896020000000  0.5267740000000  0.4826320000000 1.0
C      1  0.5915080000000  0.4820790000000  0.4719760000000 1.0
C      1  0.4109030000000  0.4718800000000  0.4822370000000 1.0
C      1  0.4121770000000  0.5177700000000  0.4721630000000 1.0
C      1  0.4109310000000  0.5275470000000  0.5182200000000 1.0
C      1  0.4128700000000  0.4825570000000  0.5269680000000 1.0
C      1  0.4492060000000  0.5753110000000  0.4410440000000 1.0
C      1  0.4488760000000  0.4410870000000  0.4248250000000 1.0
C      1  0.4492940000000  0.4247110000000  0.5585100000000 1.0
C      1  0.4490090000000  0.5587080000000  0.5751080000000 1.0
C      1  0.5533010000000  0.5748790000000  0.5585460000000 1.0
C      1  0.5531440000000  0.4409310000000  0.5754240000000 1.0
C      1  0.5536300000000  0.4246980000000  0.4410590000000 1.0
C      1  0.5533060000000  0.5585490000000  0.4247340000000 1.0
C      1  0.5129590000000  0.5360380000000  0.4320730000000 1.0
C      1  0.5131550000000  0.4319840000000  0.4634040000000 1.0
C      1  0.5127660000000  0.4634240000000  0.5681870000000 1.0
C      1  0.5130110000000  0.5672750000000  0.5360160000000 1.0
C      1  0.4894400000000  0.5361820000000  0.5680700000000 1.0
C      1  0.4895660000000  0.4321740000000  0.5359520000000 1.0
C      1  0.4892790000000  0.4635080000000  0.4322720000000 1.0
C      1  0.4895850000000  0.5677830000000  0.4634200000000 1.0
C      1  0.4240800000000  0.5133370000000  0.5689680000000 1.0
C      1  0.4241990000000  0.5686250000000  0.4862870000000 1.0
C      1  0.4239000000000  0.4864480000000  0.4308890000000 1.0
C      1  0.4240750000000  0.4308500000000  0.5134590000000 1.0
C      1  0.5783920000000  0.5133650000000  0.4308840000000 1.0
C      1  0.5784990000000  0.5687740000000  0.5133680000000 1.0
C      1  0.5782060000000  0.4861410000000  0.5687910000000 1.0
C      1  0.5784070000000  0.4308320000000  0.4865180000000 1.0
C      1  0.6169690000000  0.5144350000000  0.5173490000000 1.0
C      1  0.6169340000000  0.5188800000000  0.4876850000000 1.0
C      1  0.6169360000000  0.4900200000000  0.4794760000000 1.0
C      1  0.6166540000000  0.4779800000000  0.5140350000000 1.0
C      1  0.3857390000000  0.5139860000000  0.4782420000000 1.0
C      1  0.3854930000000  0.5172380000000  0.5146280000000 1.0
C      1  0.3855320000000  0.4875430000000  0.5190830000000 1.0
C      1  0.3854960000000  0.4793340000000  0.4902590000000 1.0
C      1  0.4770030000000  0.5202940000000  0.5059150000000 1.0
C      1  0.4769580000000  0.5060160000000  0.4793880000000 1.0
C      1  0.4769370000000  0.4789430000000  0.4927140000000 1.0
C      1  0.4770160000000  0.4925240000000  0.5215100000000 1.0
C      1  0.5255510000000  0.5206450000000  0.4927570000000 1.0
C      1  0.5253850000000  0.5070550000000  0.5215480000000 1.0
C      1  0.5253860000000  0.4792970000000  0.5059660000000 1.0
C      1  0.5255390000000  0.4935830000000  0.4794290000000 1.0
C      1  0.5012870000000  0.4995990000000  0.3921050000000 1.0
C      1  0.5011370000000  0.3919380000000  0.4997290000000 1.0
C      1  0.5012070000000  0.4998940000000  0.6083600000000 1.0
C      1  0.5012460000000  0.6076230000000  0.5000340000000 1.0
C      1  0.5741060000000  0.4991210000000  0.5004300000000 1.0
C      1  0.4283280000000  0.5003220000000  0.4992430000000 1.0
END
