TITL C-3623287-7182-1449 -7.38115501852381e-07 125000 -837.463972200898 0 0 134 (C1) n - 1
REM
REM in /home/nfs/bkarasulu/CARBON/AIRSS/Generating-Clusters/LCBOP/Higher-Symm/SD-CG/FIRE-CG
REM
REM
REM
REM
REM
REM ./C.cell (b20cbc046b6831c77cfcea5457e17084)
REM AIRSS Version 0.9.1 bugfix July 2018 build 013d7b7c2542+ Fri, 06 Jul 2018 19:26:36 +0100
REM compiler GCC version 9.2.1 20190827 (Red Hat 9.2.1-1)
REM options -cpp -mtune=generic -march=x86-64 -g -O0 -fpre-include=/usr/include/finclude/math-vector-fortran.h
REM seed -1200081022 692262022 -1410818256 -768939730 -108231950 -1812662331 -1321848875 863788234 540856208 662332464 825255858 -84780667 -1320336050 29124568 -834800214 -221731975 -238155159 -61530597 -1486122526 -610932002 -1672522830 338437254 -1338350092 1287860643 663754637 1971843060 1119712122 749003984 -39176811 -1317715637 -1065203393 -618856656 -54337528
REM
CELL 1.54180   50.00000   50.00000   50.00000   90.00000   90.00000   90.00000
LATT -1
SFAC C  
C      1  0.5921640000000  0.5099740000000  0.5263110000000 1.0
C      1  0.6139260000000  0.5312150000000  0.4778890000000 1.0
C      1  0.6056090000000  0.5002560000000  0.4785660000000 1.0
C      1  0.5990490000000  0.4855460000000  0.5090250000000 1.0
C      1  0.3840360000000  0.5251770000000  0.5142250000000 1.0
C      1  0.3881170000000  0.5260500000000  0.4851610000000 1.0
C      1  0.3995380000000  0.5016980000000  0.4742670000000 1.0
C      1  0.3812450000000  0.4994510000000  0.5265130000000 1.0
C      1  0.5684430000000  0.4860990000000  0.5593970000000 1.0
C      1  0.5844900000000  0.5663530000000  0.5113310000000 1.0
C      1  0.5753040000000  0.5157100000000  0.4397510000000 1.0
C      1  0.5843940000000  0.4418790000000  0.4867570000000 1.0
C      1  0.4420740000000  0.4979830000000  0.5625000000000 1.0
C      1  0.4297990000000  0.5620170000000  0.5134850000000 1.0
C      1  0.4264460000000  0.5178910000000  0.4382920000000 1.0
C      1  0.4207600000000  0.4440390000000  0.4897160000000 1.0
C      1  0.4804720000000  0.4861840000000  0.4451720000000 1.0
C      1  0.4768810000000  0.4382190000000  0.5117680000000 1.0
C      1  0.4678510000000  0.5039420000000  0.5751880000000 1.0
C      1  0.4932060000000  0.5346910000000  0.4876460000000 1.0
C      1  0.5240770000000  0.4881080000000  0.4476260000000 1.0
C      1  0.5197650000000  0.4287900000000  0.5042050000000 1.0
C      1  0.5098620000000  0.5009420000000  0.5532410000000 1.0
C      1  0.5205510000000  0.5446390000000  0.4892380000000 1.0
C      1  0.5782130000000  0.4203820000000  0.5046030000000 1.0
C      1  0.5619240000000  0.5054130000000  0.5796100000000 1.0
C      1  0.5712170000000  0.5844090000000  0.4938130000000 1.0
C      1  0.5735640000000  0.4943570000000  0.4214040000000 1.0
C      1  0.4277800000000  0.4233730000000  0.5082400000000 1.0
C      1  0.4224850000000  0.5149050000000  0.5745650000000 1.0
C      1  0.4288680000000  0.5831740000000  0.4951150000000 1.0
C      1  0.4347870000000  0.4940890000000  0.4226730000000 1.0
C      1  0.5725300000000  0.4451320000000  0.4394710000000 1.0
C      1  0.5670950000000  0.4354490000000  0.5530690000000 1.0
C      1  0.5556690000000  0.5541050000000  0.5545270000000 1.0
C      1  0.5620840000000  0.5638420000000  0.4437280000000 1.0
C      1  0.4236690000000  0.4491190000000  0.4406070000000 1.0
C      1  0.4212660000000  0.4384490000000  0.5530330000000 1.0
C      1  0.4319320000000  0.5622170000000  0.5611340000000 1.0
C      1  0.4385730000000  0.5674160000000  0.4493820000000 1.0
C      1  0.5564700000000  0.5755440000000  0.4712440000000 1.0
C      1  0.5622980000000  0.4688100000000  0.4252000000000 1.0
C      1  0.5618790000000  0.4187290000000  0.5282910000000 1.0
C      1  0.5481250000000  0.5293440000000  0.5713380000000 1.0
C      1  0.4432950000000  0.5870730000000  0.4712090000000 1.0
C      1  0.4436740000000  0.4654200000000  0.4275130000000 1.0
C      1  0.4392930000000  0.4250850000000  0.5354240000000 1.0
C      1  0.4352610000000  0.5401880000000  0.5795170000000 1.0
C      1  0.5091560000000  0.5971340000000  0.5088720000000 1.0
C      1  0.5090360000000  0.5218530000000  0.4187300000000 1.0
C      1  0.5496060000000  0.3746680000000  0.4547780000000 1.0
C      1  0.5272850000000  0.4341590000000  0.6187560000000 1.0
C      1  0.4657850000000  0.6093340000000  0.5204590000000 1.0
C      1  0.4656680000000  0.5476390000000  0.3901770000000 1.0
C      1  0.4571720000000  0.3785940000000  0.4534330000000 1.0
C      1  0.5021100000000  0.4433590000000  0.6204470000000 1.0
C      1  0.4871330000000  0.5804220000000  0.4525060000000 1.0
C      1  0.4940210000000  0.4397120000000  0.4421430000000 1.0
C      1  0.4915960000000  0.4345350000000  0.5561780000000 1.0
C      1  0.4795420000000  0.5551000000000  0.5674830000000 1.0
C      1  0.5147360000000  0.5746530000000  0.4504370000000 1.0
C      1  0.5232330000000  0.4415800000000  0.4358000000000 1.0
C      1  0.5194720000000  0.4240590000000  0.5530220000000 1.0
C      1  0.5069190000000  0.5514140000000  0.5607590000000 1.0
C      1  0.5203720000000  0.4974850000000  0.5266440000000 1.0
C      1  0.5432590000000  0.5302990000000  0.5002100000000 1.0
C      1  0.5313550000000  0.4870330000000  0.4747380000000 1.0
C      1  0.5275200000000  0.4557980000000  0.5075860000000 1.0
C      1  0.4829590000000  0.5151150000000  0.5071270000000 1.0
C      1  0.4713340000000  0.5387540000000  0.4679300000000 1.0
C      1  0.4715320000000  0.4863580000000  0.4716060000000 1.0
C      1  0.4728320000000  0.4659300000000  0.5133570000000 1.0
C      1  0.5318360000000  0.4156190000000  0.5269070000000 1.0
C      1  0.5192950000000  0.5254620000000  0.5661440000000 1.0
C      1  0.5281850000000  0.5685260000000  0.4752790000000 1.0
C      1  0.5339320000000  0.4680780000000  0.4306440000000 1.0
C      1  0.4691250000000  0.4269730000000  0.5374330000000 1.0
C      1  0.4650110000000  0.5330720000000  0.5807380000000 1.0
C      1  0.4720360000000  0.5945120000000  0.4735070000000 1.0
C      1  0.4732440000000  0.4606260000000  0.4331660000000 1.0
C      1  0.5290430000000  0.5672420000000  0.5488700000000 1.0
C      1  0.5345840000000  0.5640830000000  0.4310130000000 1.0
C      1  0.5485520000000  0.4266690000000  0.4411640000000 1.0
C      1  0.5431630000000  0.4309120000000  0.5696780000000 1.0
C      1  0.4589680000000  0.5741600000000  0.5584480000000 1.0
C      1  0.4679680000000  0.5579130000000  0.4439400000000 1.0
C      1  0.4872080000000  0.4221450000000  0.4646730000000 1.0
C      1  0.4882000000000  0.4583030000000  0.5734340000000 1.0
C      1  0.6103960000000  0.4736660000000  0.4610310000000 1.0
C      1  0.6050920000000  0.4655460000000  0.5337400000000 1.0
C      1  0.5994820000000  0.5339840000000  0.5397250000000 1.0
C      1  0.6100340000000  0.5445530000000  0.4515700000000 1.0
C      1  0.3915490000000  0.4750610000000  0.4672040000000 1.0
C      1  0.3878980000000  0.4772920000000  0.5402090000000 1.0
C      1  0.3907850000000  0.5463670000000  0.5324680000000 1.0
C      1  0.3949010000000  0.5466090000000  0.4648450000000 1.0
C      1  0.5823010000000  0.4607150000000  0.5532260000000 1.0
C      1  0.5805210000000  0.5565590000000  0.5387290000000 1.0
C      1  0.5831280000000  0.5438570000000  0.4393080000000 1.0
C      1  0.5928130000000  0.4494190000000  0.4599500000000 1.0
C      1  0.4016780000000  0.4570210000000  0.5513270000000 1.0
C      1  0.4151460000000  0.5601940000000  0.5377440000000 1.0
C      1  0.4174270000000  0.5468980000000  0.4448520000000 1.0
C      1  0.4075450000000  0.4507800000000  0.4644490000000 1.0
C      1  0.5499110000000  0.3995330000000  0.4469900000000 1.0
C      1  0.5431450000000  0.4301860000000  0.5975660000000 1.0
C      1  0.5234520000000  0.5864660000000  0.5290420000000 1.0
C      1  0.5248480000000  0.5432170000000  0.4147850000000 1.0
C      1  0.4724930000000  0.3990330000000  0.4585850000000 1.0
C      1  0.4859090000000  0.4525150000000  0.6011260000000 1.0
C      1  0.4618190000000  0.5981830000000  0.5445240000000 1.0
C      1  0.4699610000000  0.5500670000000  0.4157900000000 1.0
C      1  0.4465160000000  0.4742420000000  0.5203110000000 1.0
C      1  0.4580350000000  0.5200530000000  0.5213330000000 1.0
C      1  0.4453870000000  0.5307570000000  0.4790360000000 1.0
C      1  0.4436790000000  0.4845280000000  0.4754280000000 1.0
C      1  0.5533520000000  0.4606490000000  0.5168280000000 1.0
C      1  0.5434610000000  0.5127560000000  0.5223590000000 1.0
C      1  0.5679790000000  0.5299220000000  0.4863080000000 1.0
C      1  0.5593190000000  0.4845680000000  0.4780350000000 1.0
C      1  0.4451790000000  0.4979580000000  0.5346140000000 1.0
C      1  0.4423020000000  0.5379840000000  0.5061980000000 1.0
C      1  0.4286040000000  0.5080490000000  0.4673870000000 1.0
C      1  0.4327740000000  0.4691620000000  0.4965360000000 1.0
C      1  0.5660930000000  0.5026140000000  0.5354180000000 1.0
C      1  0.5920230000000  0.5441960000000  0.4942180000000 1.0
C      1  0.5747690000000  0.5067640000000  0.4683970000000 1.0
C      1  0.5744550000000  0.4683950000000  0.4981050000000 1.0
C      1  0.4893920000000  0.4867680000000  0.5670600000000 1.0
C      1  0.4830490000000  0.6025250000000  0.4990610000000 1.0
C      1  0.5022250000000  0.5016780000000  0.4366670000000 1.0
C      1  0.4941280000000  0.4265300000000  0.4922920000000 1.0
C      1  0.4867980000000  0.4862550000000  0.4971320000000 1.0
C      1  0.5152670000000  0.4815610000000  0.5000100000000 1.0
END
