TITL C-3623288-6813-440 -175166.816326699 125000 -244.81887378599 0 0 46 (D2) n - 1
REM
REM in /home/nfs/bkarasulu/CARBON/AIRSS/Generating-Clusters/LCBOP/Higher-Symm/SD-CG/FIRE-CG
REM
REM
REM
REM
REM
REM ./C.cell (b20cbc046b6831c77cfcea5457e17084)
REM AIRSS Version 0.9.1 bugfix July 2018 build 013d7b7c2542+ Fri, 06 Jul 2018 19:26:36 +0100
REM compiler GCC version 9.2.1 20190827 (Red Hat 9.2.1-1)
REM options -cpp -mtune=generic -march=x86-64 -g -O0 -fpre-include=/usr/include/finclude/math-vector-fortran.h
REM seed -671373788 101165958 584183514 594564171 1100290667 1854045533 1568996532 -408266612 -591911895 261935450 1715462893 386810660 884199743 -1844574673 -513597250 314606042 -550954836 1509013260 582897722 1506360786 1586853604 -341487060 -1733601050 809746304 854335081 -2145459336 -1410222231 1201111686 -990834711 -1282597225 566877516 1363229094 2143439425
REM
CELL 1.54180   50.00000   50.00000   50.00000   90.00000   90.00000   90.00000
LATT -1
SFAC C  
C      1  0.4840890000000  0.5288800000000  0.4513460000000 1.0
C      1  0.5159100000000  0.4711230000000  0.4513420000000 1.0
C      1  0.5159090000000  0.5288740000000  0.5483350000000 1.0
C      1  0.4840890000000  0.4711230000000  0.5483320000000 1.0
C      1  0.4953250000000  0.4862610000000  0.5248010000000 1.0
C      1  0.5046770000000  0.5137440000000  0.5248020000000 1.0
C      1  0.5046780000000  0.4862510000000  0.4748790000000 1.0
C      1  0.4953250000000  0.5137450000000  0.4748800000000 1.0
C      1  0.4847620000000  0.5358990000000  0.5175480000000 1.0
C      1  0.5152440000000  0.4641010000000  0.5175450000000 1.0
C      1  0.5152430000000  0.5358980000000  0.4821320000000 1.0
C      1  0.4847640000000  0.4641030000000  0.4821290000000 1.0
C      1  0.4475810000000  0.4867190000000  0.5282910000000 1.0
C      1  0.5524180000000  0.5132800000000  0.5282910000000 1.0
C      1  0.5524160000000  0.4867170000000  0.4713910000000 1.0
C      1  0.4475840000000  0.5132840000000  0.4713900000000 1.0
C      1  0.5175620000000  0.4938400000000  0.4340990000000 1.0
C      1  0.4824390000000  0.5061610000000  0.4340970000000 1.0
C      1  0.4824380000000  0.4938400000000  0.5655830000000 1.0
C      1  0.5175610000000  0.5061590000000  0.5655820000000 1.0
C      1  0.4580020000000  0.4659940000000  0.4705510000000 1.0
C      1  0.5419960000000  0.5340070000000  0.4705540000000 1.0
C      1  0.5419900000000  0.4659920000000  0.5291240000000 1.0
C      1  0.4580070000000  0.5340070000000  0.5291250000000 1.0
C      1  0.4399980000000  0.4551690000000  0.4917310000000 1.0
C      1  0.5600010000000  0.5448310000000  0.4917340000000 1.0
C      1  0.5600010000000  0.4551700000000  0.5079440000000 1.0
C      1  0.4399990000000  0.5448300000000  0.5079460000000 1.0
C      1  0.5271130000000  0.5521770000000  0.5301960000000 1.0
C      1  0.4728830000000  0.4478180000000  0.5301930000000 1.0
C      1  0.4728480000000  0.5521810000000  0.4694550000000 1.0
C      1  0.5271460000000  0.4478240000000  0.4694550000000 1.0
C      1  0.5303640000000  0.5080990000000  0.5105450000000 1.0
C      1  0.4696370000000  0.4918990000000  0.5105400000000 1.0
C      1  0.4696380000000  0.5081030000000  0.4891390000000 1.0
C      1  0.5303630000000  0.4918970000000  0.4891360000000 1.0
C      1  0.5456250000000  0.4906680000000  0.5482910000000 1.0
C      1  0.4543740000000  0.5093300000000  0.5482910000000 1.0
C      1  0.4543770000000  0.4906700000000  0.4513890000000 1.0
C      1  0.5456230000000  0.5093330000000  0.4513900000000 1.0
C      1  0.4450320000000  0.4575830000000  0.5209330000000 1.0
C      1  0.5549710000000  0.5424150000000  0.5209340000000 1.0
C      1  0.5549740000000  0.4575840000000  0.4787470000000 1.0
C      1  0.4450290000000  0.5424180000000  0.4787460000000 1.0
C      1  0.5000210000000  0.5516680000000  0.4998640000000 1.0
C      1  0.4999760000000  0.4483310000000  0.4998640000000 1.0
END
