TITL C-3623283-6828-775 282.486510927138 125000 -655.434835244237 0 0 109 (C1) n - 1
REM
REM in /home/nfs/bkarasulu/CARBON/AIRSS/Generating-Clusters/LCBOP/Higher-Symm/SD-CG/FIRE-CG
REM
REM
REM
REM
REM
REM ./C.cell (b20cbc046b6831c77cfcea5457e17084)
REM AIRSS Version 0.9.1 bugfix July 2018 build 013d7b7c2542+ Fri, 06 Jul 2018 19:26:36 +0100
REM compiler GCC version 9.2.1 20190827 (Red Hat 9.2.1-1)
REM options -cpp -mtune=generic -march=x86-64 -g -O0 -fpre-include=/usr/include/finclude/math-vector-fortran.h
REM seed 1448828999 -1973769860 1429354355 -351769465 1963125924 -330223518 428131857 -336444740 1675109035 572924292 -80462584 696132259 1320953757 1257841789 -2063206116 -784331147 1749304653 213971850 1335293037 -2057722628 891789068 -1967467832 -1152537459 -1787081361 -812361657 1968996377 615970159 170356986 -1594962626 -2024028872 -2083421183 598758093 -12124895
REM
CELL 1.54180   50.00000   50.00000   50.00000   90.00000   90.00000   90.00000
LATT -1
SFAC C  
C      1  0.3711240000000  0.4905190000000  0.5439430000000 1.0
C      1  0.5892720000000  0.4860520000000  0.4828420000000 1.0
C      1  0.4974500000000  0.4973850000000  0.4920430000000 1.0
C      1  0.4813700000000  0.5105960000000  0.5117300000000 1.0
C      1  0.4364370000000  0.5081260000000  0.3928690000000 1.0
C      1  0.4839080000000  0.4939260000000  0.4671990000000 1.0
C      1  0.5886260000000  0.5472300000000  0.4400050000000 1.0
C      1  0.5354630000000  0.5776890000000  0.5226850000000 1.0
C      1  0.5765180000000  0.5847020000000  0.4956890000000 1.0
C      1  0.4776960000000  0.5224030000000  0.4235730000000 1.0
C      1  0.4952640000000  0.4439760000000  0.5106500000000 1.0
C      1  0.5158490000000  0.4617410000000  0.5188060000000 1.0
C      1  0.5381800000000  0.5555520000000  0.5715810000000 1.0
C      1  0.5039370000000  0.5273830000000  0.4137200000000 1.0
C      1  0.5974480000000  0.5268270000000  0.4550190000000 1.0
C      1  0.5688020000000  0.4556910000000  0.5317490000000 1.0
C      1  0.4940340000000  0.4839690000000  0.5576560000000 1.0
C      1  0.5029010000000  0.5818240000000  0.5583670000000 1.0
C      1  0.5683800000000  0.4931950000000  0.6135300000000 1.0
C      1  0.4129800000000  0.4657400000000  0.5429770000000 1.0
C      1  0.4483660000000  0.5679650000000  0.4806430000000 1.0
C      1  0.5171400000000  0.5733960000000  0.3880580000000 1.0
C      1  0.5911230000000  0.5143370000000  0.4793240000000 1.0
C      1  0.5064660000000  0.6124930000000  0.5211020000000 1.0
C      1  0.3793660000000  0.4588250000000  0.5055670000000 1.0
C      1  0.4666410000000  0.5473400000000  0.5706050000000 1.0
C      1  0.5658930000000  0.4923070000000  0.5865090000000 1.0
C      1  0.4612310000000  0.5875700000000  0.5397790000000 1.0
C      1  0.4810730000000  0.4104760000000  0.4690630000000 1.0
C      1  0.4775830000000  0.3927240000000  0.4930500000000 1.0
C      1  0.4559550000000  0.5203330000000  0.4061430000000 1.0
C      1  0.5033580000000  0.4189070000000  0.5232100000000 1.0
C      1  0.5940260000000  0.5620660000000  0.5343010000000 1.0
C      1  0.5680700000000  0.5144940000000  0.5215950000000 1.0
C      1  0.5653130000000  0.4455020000000  0.5045420000000 1.0
C      1  0.5228990000000  0.5244510000000  0.5319710000000 1.0
C      1  0.4336210000000  0.4702190000000  0.4875330000000 1.0
C      1  0.4883890000000  0.5975920000000  0.5392040000000 1.0
C      1  0.4407070000000  0.4450230000000  0.5031250000000 1.0
C      1  0.4335740000000  0.5805090000000  0.4632270000000 1.0
C      1  0.5588450000000  0.6060670000000  0.4982120000000 1.0
C      1  0.5430250000000  0.4833450000000  0.5726750000000 1.0
C      1  0.5679360000000  0.5643360000000  0.4407830000000 1.0
C      1  0.4641220000000  0.5545680000000  0.4972110000000 1.0
C      1  0.4521570000000  0.4868790000000  0.5746810000000 1.0
C      1  0.4683400000000  0.3928770000000  0.5195790000000 1.0
C      1  0.5315700000000  0.5220800000000  0.4654420000000 1.0
C      1  0.4040400000000  0.4455710000000  0.4107000000000 1.0
C      1  0.5142000000000  0.5432070000000  0.5835900000000 1.0
C      1  0.4246570000000  0.4833070000000  0.5647440000000 1.0
C      1  0.5557900000000  0.4615520000000  0.4598350000000 1.0
C      1  0.4531200000000  0.4177000000000  0.4622490000000 1.0
C      1  0.5073480000000  0.4533980000000  0.4533060000000 1.0
C      1  0.5816700000000  0.5179340000000  0.5470400000000 1.0
C      1  0.5402620000000  0.5056570000000  0.5191760000000 1.0
C      1  0.3868440000000  0.4713080000000  0.5303190000000 1.0
C      1  0.4006690000000  0.4538550000000  0.4584760000000 1.0
C      1  0.5096310000000  0.5508340000000  0.3997330000000 1.0
C      1  0.4728860000000  0.4657160000000  0.5695140000000 1.0
C      1  0.4922870000000  0.5613220000000  0.5757760000000 1.0
C      1  0.5250120000000  0.4533570000000  0.5448230000000 1.0
C      1  0.5340020000000  0.6049160000000  0.5130740000000 1.0
C      1  0.4385590000000  0.4214490000000  0.4865800000000 1.0
C      1  0.4752040000000  0.5146700000000  0.4504860000000 1.0
C      1  0.4836420000000  0.4681690000000  0.4560490000000 1.0
C      1  0.4683790000000  0.4519850000000  0.5114470000000 1.0
C      1  0.5460140000000  0.5666390000000  0.4562070000000 1.0
C      1  0.4362530000000  0.4237940000000  0.4403360000000 1.0
C      1  0.4049070000000  0.5010050000000  0.5756360000000 1.0
C      1  0.4194750000000  0.4884020000000  0.3873420000000 1.0
C      1  0.5036480000000  0.5169540000000  0.5856630000000 1.0
C      1  0.5253400000000  0.5956660000000  0.3772690000000 1.0
C      1  0.4185790000000  0.4746020000000  0.4658380000000 1.0
C      1  0.5091950000000  0.5435180000000  0.5165560000000 1.0
C      1  0.5498530000000  0.4639450000000  0.5517390000000 1.0
C      1  0.3819540000000  0.4499090000000  0.4798520000000 1.0
C      1  0.5843560000000  0.5454350000000  0.5547900000000 1.0
C      1  0.4813210000000  0.4368180000000  0.5633460000000 1.0
C      1  0.5560110000000  0.4881820000000  0.3797000000000 1.0
C      1  0.4261850000000  0.4446010000000  0.5294460000000 1.0
C      1  0.5067890000000  0.4257330000000  0.4630070000000 1.0
C      1  0.4627080000000  0.4744840000000  0.5272870000000 1.0
C      1  0.5305110000000  0.4116530000000  0.5200620000000 1.0
C      1  0.5217540000000  0.4864040000000  0.5055090000000 1.0
C      1  0.4113180000000  0.4379290000000  0.4367270000000 1.0
C      1  0.5806140000000  0.5306520000000  0.5004320000000 1.0
C      1  0.3799630000000  0.5043740000000  0.5655190000000 1.0
C      1  0.5102810000000  0.4392520000000  0.5646460000000 1.0
C      1  0.5272510000000  0.5589780000000  0.5019810000000 1.0
C      1  0.5298240000000  0.5741540000000  0.5505880000000 1.0
C      1  0.5324150000000  0.4182310000000  0.4741500000000 1.0
C      1  0.5725780000000  0.4630220000000  0.4824520000000 1.0
C      1  0.4686760000000  0.5181810000000  0.5788880000000 1.0
C      1  0.4519400000000  0.5649260000000  0.5529740000000 1.0
C      1  0.4803320000000  0.4108240000000  0.5388400000000 1.0
C      1  0.5718030000000  0.4783960000000  0.3614120000000 1.0
C      1  0.4824320000000  0.5384700000000  0.5101210000000 1.0
C      1  0.5308050000000  0.4711650000000  0.4513110000000 1.0
C      1  0.5464540000000  0.4229520000000  0.4989990000000 1.0
C      1  0.4076050000000  0.4652650000000  0.3930610000000 1.0
C      1  0.5245510000000  0.5084100000000  0.4191590000000 1.0
C      1  0.5155970000000  0.4939800000000  0.5738630000000 1.0
C      1  0.5294170000000  0.5002910000000  0.4462560000000 1.0
C      1  0.5858800000000  0.5001710000000  0.5682660000000 1.0
C      1  0.5853950000000  0.5594540000000  0.5070120000000 1.0
C      1  0.5337520000000  0.5495280000000  0.4751470000000 1.0
C      1  0.5658670000000  0.5532280000000  0.5745060000000 1.0
C      1  0.4796710000000  0.4952340000000  0.5349980000000 1.0
C      1  0.5400950000000  0.4980730000000  0.3984240000000 1.0
END
