TITL C-3623287-7182-204 4.67334474387296 125000 -422.018924149043 0 0 71 (Ci) n - 1
REM
REM in /home/nfs/bkarasulu/CARBON/AIRSS/Generating-Clusters/LCBOP/Higher-Symm/SD-CG/FIRE-CG
REM
REM
REM
REM
REM
REM ./C.cell (b20cbc046b6831c77cfcea5457e17084)
REM AIRSS Version 0.9.1 bugfix July 2018 build 013d7b7c2542+ Fri, 06 Jul 2018 19:26:36 +0100
REM compiler GCC version 9.2.1 20190827 (Red Hat 9.2.1-1)
REM options -cpp -mtune=generic -march=x86-64 -g -O0 -fpre-include=/usr/include/finclude/math-vector-fortran.h
REM seed -1081579945 2032369234 -2022043153 1457318891 2480783 -1553547927 -633064954 23845121 14867764 -139781188 546837175 -605604799 939300864 2085288047 1614318891 -1008391801 462022612 612921802 -1813399582 -419641400 635997690 1692276367 355916848 456826773 -545378364 -1206894196 -999864474 -58026164 765604534 -1418380896 -658364580 -1775985935 737617252
REM
CELL 1.54180   50.00000   50.00000   50.00000   90.00000   90.00000   90.00000
LATT -1
SFAC C  
C      1  0.5585960000000  0.5675720000000  0.5007900000000 1.0
C      1  0.4412810000000  0.4326300000000  0.4987090000000 1.0
C      1  0.5613210000000  0.5425310000000  0.4888400000000 1.0
C      1  0.4385560000000  0.4576710000000  0.5106600000000 1.0
C      1  0.5267590000000  0.4181470000000  0.5266640000000 1.0
C      1  0.4731180000000  0.5820550000000  0.4728350000000 1.0
C      1  0.5910530000000  0.3414770000000  0.5238290000000 1.0
C      1  0.4088260000000  0.6587260000000  0.4756690000000 1.0
C      1  0.4974790000000  0.6141240000000  0.4950380000000 1.0
C      1  0.5023980000000  0.3860780000000  0.5044610000000 1.0
C      1  0.5490470000000  0.4958760000000  0.4823970000000 1.0
C      1  0.4508300000000  0.5043250000000  0.5171030000000 1.0
C      1  0.4868500000000  0.4104020000000  0.5054530000000 1.0
C      1  0.5130270000000  0.5898000000000  0.4940470000000 1.0
C      1  0.5699620000000  0.4522970000000  0.4898570000000 1.0
C      1  0.4299150000000  0.5479050000000  0.5096430000000 1.0
C      1  0.5806100000000  0.4295300000000  0.4814760000000 1.0
C      1  0.4192670000000  0.5706720000000  0.5180230000000 1.0
C      1  0.4094030000000  0.5935080000000  0.5258230000000 1.0
C      1  0.5904750000000  0.4066940000000  0.4736760000000 1.0
C      1  0.5485170000000  0.3729520000000  0.5213510000000 1.0
C      1  0.4513610000000  0.6272500000000  0.4781480000000 1.0
C      1  0.5500120000000  0.4769540000000  0.5271500000000 1.0
C      1  0.4498650000000  0.5232480000000  0.4723490000000 1.0
C      1  0.4976270000000  0.5688270000000  0.4805560000000 1.0
C      1  0.5022500000000  0.4313750000000  0.5189440000000 1.0
C      1  0.7640300000000  0.2197620000000  0.5291100000000 1.0
C      1  0.2358580000000  0.7804550000000  0.4703760000000 1.0
C      1  0.6343720000000  0.3109730000000  0.5251680000000 1.0
C      1  0.3655080000000  0.6892330000000  0.4743270000000 1.0
C      1  0.4960010000000  0.4583330000000  0.5223720000000 1.0
C      1  0.5038760000000  0.5418690000000  0.4771270000000 1.0
C      1  0.4721770000000  0.6094600000000  0.4815810000000 1.0
C      1  0.5277000000000  0.3907420000000  0.5179180000000 1.0
C      1  0.4550360000000  0.4981920000000  0.5456840000000 1.0
C      1  0.5448410000000  0.5020100000000  0.4538150000000 1.0
C      1  0.5031430000000  0.4744320000000  0.5454650000000 1.0
C      1  0.4967340000000  0.5257700000000  0.4540340000000 1.0
C      1  0.4851580000000  0.4758200000000  0.5025230000000 1.0
C      1  0.5147190000000  0.5243820000000  0.4969770000000 1.0
C      1  0.5656190000000  0.5199960000000  0.4454280000000 1.0
C      1  0.4342580000000  0.4802060000000  0.5540710000000 1.0
C      1  0.5430660000000  0.5212900000000  0.4956690000000 1.0
C      1  0.4568110000000  0.4789120000000  0.5038310000000 1.0
C      1  0.3221770000000  0.7197210000000  0.4730060000000 1.0
C      1  0.6777060000000  0.2804880000000  0.5264860000000 1.0
C      1  0.7427140000000  0.2347580000000  0.5284620000000 1.0
C      1  0.2571730000000  0.7654580000000  0.4710250000000 1.0
C      1  0.2788450000000  0.7502100000000  0.4716860000000 1.0
C      1  0.7210410000000  0.2500040000000  0.5278030000000 1.0
C      1  0.4947160000000  0.3627400000000  0.4928540000000 1.0
C      1  0.5051610000000  0.6374620000000  0.5066450000000 1.0
C      1  0.5739550000000  0.5389080000000  0.4634130000000 1.0
C      1  0.4259220000000  0.4612930000000  0.5360870000000 1.0
C      1  0.4607130000000  0.4144190000000  0.4969700000000 1.0
C      1  0.5391640000000  0.5857830000000  0.5025300000000 1.0
C      1  0.6560390000000  0.2957310000000  0.5258270000000 1.0
C      1  0.3438430000000  0.7044770000000  0.4736670000000 1.0
C      1  0.6993730000000  0.2652460000000  0.5271440000000 1.0
C      1  0.3005110000000  0.7349660000000  0.4723460000000 1.0
C      1  0.5180140000000  0.5085120000000  0.4452140000000 1.0
C      1  0.4818630000000  0.4916900000000  0.5542860000000 1.0
C      1  0.5695150000000  0.3568910000000  0.5229810000000 1.0
C      1  0.4303630000000  0.6433110000000  0.4765170000000 1.0
C      1  0.5566460000000  0.4747470000000  0.4995580000000 1.0
C      1  0.4432310000000  0.5254540000000  0.4999410000000 1.0
C      1  0.4688390000000  0.5211460000000  0.4532140000000 1.0
C      1  0.5310380000000  0.4790560000000  0.5462850000000 1.0
C      1  0.3871740000000  0.6739880000000  0.4749880000000 1.0
C      1  0.6127060000000  0.3262170000000  0.5245080000000 1.0
C      1  0.4999390000000  0.5001010000000  0.4997500000000 1.0
END
