TITL C-3623285-6872-384 -184.728213379376 125000 -1102.73070951357 0 0 181 (C1) n - 1
REM
REM in /home/nfs/bkarasulu/CARBON/AIRSS/Generating-Clusters/LCBOP/Higher-Symm/SD-CG/FIRE-CG
REM
REM
REM
REM
REM
REM ./C.cell (b20cbc046b6831c77cfcea5457e17084)
REM AIRSS Version 0.9.1 bugfix July 2018 build 013d7b7c2542+ Fri, 06 Jul 2018 19:26:36 +0100
REM compiler GCC version 9.2.1 20190827 (Red Hat 9.2.1-1)
REM options -cpp -mtune=generic -march=x86-64 -g -O0 -fpre-include=/usr/include/finclude/math-vector-fortran.h
REM seed -2071628196 2060475844 -941953370 1897474451 15804059 -1567729366 514585199 1066449783 -1456379768 1758587413 -1554019694 -1072975887 -950099643 1988942679 1377679591 -474062410 1112222150 161685963 -1702439483 -312985890 300701092 1918961927 1171381507 -2143682964 327339833 1090096519 -1518842006 -1466252516 1764499309 2116550848 59495861 558731901 1026576027
REM
CELL 1.54180   50.00000   50.00000   50.00000   90.00000   90.00000   90.00000
LATT -1
SFAC C  
C      1  0.4317580000000  0.4641010000000  0.5841890000000 1.0
C      1  0.5399680000000  0.4651390000000  0.5993000000000 1.0
C      1  0.6070420000000  0.4671220000000  0.5138910000000 1.0
C      1  0.5668270000000  0.4639300000000  0.4157960000000 1.0
C      1  0.4605320000000  0.4653050000000  0.4016080000000 1.0
C      1  0.3936470000000  0.4652600000000  0.4838360000000 1.0
C      1  0.5385540000000  0.5714850000000  0.4269190000000 1.0
C      1  0.4564020000000  0.5731310000000  0.4302060000000 1.0
C      1  0.4176580000000  0.5725760000000  0.5021560000000 1.0
C      1  0.4630490000000  0.5696880000000  0.5700810000000 1.0
C      1  0.5449000000000  0.5733090000000  0.5690910000000 1.0
C      1  0.5822900000000  0.5725520000000  0.4954570000000 1.0
C      1  0.5335930000000  0.5074610000000  0.5604110000000 1.0
C      1  0.5673150000000  0.5072830000000  0.5005500000000 1.0
C      1  0.5354400000000  0.5061590000000  0.4412240000000 1.0
C      1  0.4678100000000  0.5094000000000  0.4392310000000 1.0
C      1  0.4258230000000  0.5093610000000  0.5007740000000 1.0
C      1  0.4639340000000  0.5032060000000  0.5594770000000 1.0
C      1  0.4711220000000  0.5957490000000  0.5574650000000 1.0
C      1  0.5374200000000  0.5969800000000  0.5543610000000 1.0
C      1  0.5661830000000  0.5966230000000  0.4945590000000 1.0
C      1  0.5291860000000  0.5968850000000  0.4408480000000 1.0
C      1  0.4632360000000  0.5967270000000  0.4449720000000 1.0
C      1  0.4353620000000  0.5961560000000  0.5040340000000 1.0
C      1  0.5272800000000  0.5276340000000  0.5791410000000 1.0
C      1  0.5811520000000  0.5269410000000  0.5155550000000 1.0
C      1  0.5553720000000  0.5259940000000  0.4383820000000 1.0
C      1  0.4744140000000  0.5285260000000  0.4198360000000 1.0
C      1  0.4151450000000  0.5287330000000  0.4825130000000 1.0
C      1  0.4457030000000  0.5246700000000  0.5599570000000 1.0
C      1  0.4579550000000  0.3966570000000  0.4343790000000 1.0
C      1  0.4226540000000  0.3964650000000  0.5017740000000 1.0
C      1  0.4646220000000  0.3958920000000  0.5689780000000 1.0
C      1  0.5437770000000  0.3965500000000  0.5652130000000 1.0
C      1  0.5797340000000  0.3968600000000  0.4962070000000 1.0
C      1  0.5363790000000  0.3950380000000  0.4295780000000 1.0
C      1  0.4627130000000  0.4374750000000  0.4108050000000 1.0
C      1  0.4046630000000  0.4381160000000  0.4877580000000 1.0
C      1  0.4412230000000  0.4365690000000  0.5771020000000 1.0
C      1  0.5384100000000  0.4373940000000  0.5888870000000 1.0
C      1  0.5971670000000  0.4389550000000  0.5102240000000 1.0
C      1  0.5591050000000  0.4360440000000  0.4218020000000 1.0
C      1  0.4875550000000  0.4779790000000  0.3987190000000 1.0
C      1  0.4060810000000  0.4799840000000  0.4607600000000 1.0
C      1  0.4159180000000  0.4773350000000  0.5620210000000 1.0
C      1  0.5128190000000  0.4779270000000  0.6026950000000 1.0
C      1  0.5951530000000  0.4793470000000  0.5391150000000 1.0
C      1  0.5820450000000  0.4767700000000  0.4383700000000 1.0
C      1  0.6193710000000  0.5342360000000  0.4835900000000 1.0
C      1  0.5441530000000  0.5329380000000  0.3896040000000 1.0
C      1  0.4260230000000  0.5338440000000  0.4067990000000 1.0
C      1  0.3806100000000  0.5341980000000  0.5167700000000 1.0
C      1  0.4552410000000  0.5340240000000  0.6092540000000 1.0
C      1  0.5747310000000  0.5344730000000  0.5929120000000 1.0
C      1  0.4558360000000  0.5488310000000  0.5506690000000 1.0
C      1  0.5239380000000  0.5530870000000  0.5689150000000 1.0
C      1  0.5710920000000  0.5526320000000  0.5135060000000 1.0
C      1  0.5483480000000  0.5517140000000  0.4459250000000 1.0
C      1  0.4781830000000  0.5538920000000  0.4298150000000 1.0
C      1  0.4282410000000  0.5535450000000  0.4826490000000 1.0
C      1  0.5356480000000  0.5589240000000  0.4006970000000 1.0
C      1  0.4321910000000  0.5597800000000  0.4199440000000 1.0
C      1  0.3962960000000  0.5595990000000  0.5178440000000 1.0
C      1  0.4647930000000  0.5587280000000  0.5968750000000 1.0
C      1  0.5691430000000  0.5604570000000  0.5797710000000 1.0
C      1  0.6040530000000  0.5594810000000  0.4801860000000 1.0
C      1  0.5127550000000  0.4965270000000  0.5455700000000 1.0
C      1  0.5435370000000  0.4958960000000  0.5096530000000 1.0
C      1  0.5303630000000  0.4946540000000  0.4662050000000 1.0
C      1  0.4877190000000  0.4984880000000  0.4552530000000 1.0
C      1  0.4538130000000  0.5058150000000  0.4962210000000 1.0
C      1  0.4686680000000  0.4901460000000  0.5355070000000 1.0
C      1  0.4513330000000  0.4820230000000  0.5996470000000 1.0
C      1  0.5619030000000  0.4829310000000  0.5893560000000 1.0
C      1  0.6085320000000  0.4858980000000  0.4890610000000 1.0
C      1  0.5472850000000  0.4815960000000  0.4019180000000 1.0
C      1  0.4391150000000  0.4828940000000  0.4122710000000 1.0
C      1  0.3889960000000  0.4820430000000  0.5081670000000 1.0
C      1  0.4862770000000  0.4523130000000  0.4658490000000 1.0
C      1  0.4687850000000  0.4584460000000  0.4864670000000 1.0
C      1  0.4646160000000  0.4492110000000  0.5121940000000 1.0
C      1  0.5082870000000  0.4499730000000  0.5374540000000 1.0
C      1  0.5297480000000  0.4502470000000  0.5216290000000 1.0
C      1  0.5302640000000  0.4465880000000  0.4759850000000 1.0
C      1  0.5436880000000  0.4036460000000  0.4563970000000 1.0
C      1  0.4848180000000  0.4052800000000  0.4416390000000 1.0
C      1  0.4432010000000  0.4068350000000  0.4840510000000 1.0
C      1  0.4580650000000  0.4050610000000  0.5422170000000 1.0
C      1  0.5167480000000  0.4046100000000  0.5580860000000 1.0
C      1  0.5594490000000  0.4063100000000  0.5147280000000 1.0
C      1  0.4946960000000  0.4728880000000  0.5808080000000 1.0
C      1  0.5667030000000  0.4747930000000  0.5427160000000 1.0
C      1  0.5698230000000  0.4727530000000  0.4643520000000 1.0
C      1  0.5047120000000  0.4733240000000  0.4215950000000 1.0
C      1  0.4351390000000  0.4806920000000  0.4599770000000 1.0
C      1  0.4266150000000  0.4724650000000  0.5353650000000 1.0
C      1  0.5723380000000  0.5265200000000  0.3967750000000 1.0
C      1  0.4458330000000  0.5271290000000  0.3854810000000 1.0
C      1  0.3711970000000  0.5280600000000  0.4890240000000 1.0
C      1  0.4273410000000  0.5282780000000  0.6014410000000 1.0
C      1  0.5549770000000  0.5282380000000  0.6142780000000 1.0
C      1  0.6264550000000  0.5300130000000  0.5120750000000 1.0
C      1  0.4016040000000  0.5042380000000  0.5602220000000 1.0
C      1  0.5058150000000  0.5041500000000  0.6149680000000 1.0
C      1  0.6016760000000  0.5051210000000  0.5533530000000 1.0
C      1  0.5977600000000  0.5026750000000  0.4391830000000 1.0
C      1  0.4958870000000  0.5036070000000  0.3851520000000 1.0
C      1  0.3969640000000  0.5047010000000  0.4457140000000 1.0
C      1  0.5454030000000  0.6005710000000  0.5218360000000 1.0
C      1  0.5418400000000  0.6002130000000  0.4719070000000 1.0
C      1  0.4974500000000  0.6004770000000  0.4497010000000 1.0
C      1  0.4555110000000  0.5993740000000  0.4772930000000 1.0
C      1  0.4591220000000  0.5984670000000  0.5269240000000 1.0
C      1  0.5032370000000  0.6000000000000  0.5492320000000 1.0
C      1  0.4739180000000  0.5750030000000  0.4857890000000 1.0
C      1  0.4767270000000  0.5746140000000  0.5155210000000 1.0
C      1  0.5028410000000  0.5752800000000  0.5288650000000 1.0
C      1  0.5265640000000  0.5751970000000  0.5126890000000 1.0
C      1  0.5244910000000  0.5749480000000  0.4837250000000 1.0
C      1  0.4985420000000  0.5748740000000  0.4702900000000 1.0
C      1  0.5271820000000  0.5225740000000  0.6074600000000 1.0
C      1  0.6054500000000  0.5233530000000  0.5307470000000 1.0
C      1  0.5801540000000  0.5210920000000  0.4243990000000 1.0
C      1  0.4739440000000  0.5222330000000  0.3919020000000 1.0
C      1  0.3910010000000  0.5232270000000  0.4680490000000 1.0
C      1  0.4205140000000  0.5223330000000  0.5739000000000 1.0
C      1  0.5244630000000  0.6237900000000  0.4835480000000 1.0
C      1  0.4982900000000  0.6236690000000  0.4706240000000 1.0
C      1  0.4739280000000  0.6231790000000  0.4866070000000 1.0
C      1  0.4758190000000  0.6228620000000  0.5157420000000 1.0
C      1  0.5019860000000  0.6234960000000  0.5286950000000 1.0
C      1  0.5263930000000  0.6238800000000  0.5126540000000 1.0
C      1  0.4537550000000  0.4669270000000  0.5306330000000 1.0
C      1  0.5039830000000  0.4710670000000  0.5546120000000 1.0
C      1  0.5481150000000  0.4708550000000  0.5219430000000 1.0
C      1  0.5424150000000  0.4692710000000  0.4689320000000 1.0
C      1  0.4944820000000  0.4716680000000  0.4477230000000 1.0
C      1  0.4535970000000  0.4814770000000  0.4813840000000 1.0
C      1  0.4662520000000  0.5476710000000  0.5244880000000 1.0
C      1  0.5050280000000  0.5536820000000  0.5487330000000 1.0
C      1  0.5445410000000  0.5537910000000  0.5210640000000 1.0
C      1  0.5406180000000  0.5532060000000  0.4724630000000 1.0
C      1  0.4970620000000  0.5538910000000  0.4501470000000 1.0
C      1  0.4565900000000  0.5507190000000  0.4814030000000 1.0
C      1  0.5083260000000  0.4018020000000  0.5293230000000 1.0
C      1  0.5304850000000  0.4020920000000  0.5079250000000 1.0
C      1  0.5230410000000  0.4012650000000  0.4782340000000 1.0
C      1  0.4936750000000  0.4022530000000  0.4700340000000 1.0
C      1  0.4719010000000  0.4029490000000  0.4912430000000 1.0
C      1  0.4790090000000  0.4023850000000  0.5208520000000 1.0
C      1  0.4054060000000  0.4185470000000  0.5101280000000 1.0
C      1  0.4625680000000  0.4184750000000  0.5874360000000 1.0
C      1  0.5582120000000  0.4196810000000  0.5756410000000 1.0
C      1  0.5962530000000  0.4194820000000  0.4878270000000 1.0
C      1  0.5381330000000  0.4178930000000  0.4114810000000 1.0
C      1  0.4433100000000  0.4194460000000  0.4235480000000 1.0
C      1  0.5904860000000  0.4262390000000  0.4612830000000 1.0
C      1  0.5126570000000  0.4265080000000  0.4037550000000 1.0
C      1  0.4245300000000  0.4291950000000  0.4417700000000 1.0
C      1  0.4106950000000  0.4254220000000  0.5367920000000 1.0
C      1  0.4881820000000  0.4263390000000  0.5957000000000 1.0
C      1  0.5775890000000  0.4284390000000  0.5573890000000 1.0
C      1  0.6165510000000  0.5078710000000  0.4690040000000 1.0
C      1  0.5267320000000  0.5098330000000  0.3838660000000 1.0
C      1  0.4119710000000  0.5107750000000  0.4189180000000 1.0
C      1  0.3839390000000  0.5107420000000  0.5347280000000 1.0
C      1  0.4717270000000  0.5111650000000  0.6166790000000 1.0
C      1  0.5879180000000  0.5111300000000  0.5806270000000 1.0
C      1  0.4264320000000  0.4276310000000  0.4697820000000 1.0
C      1  0.4357680000000  0.4242870000000  0.5497830000000 1.0
C      1  0.5121100000000  0.4244300000000  0.5807700000000 1.0
C      1  0.5763590000000  0.4269770000000  0.5291930000000 1.0
C      1  0.5654070000000  0.4235590000000  0.4486450000000 1.0
C      1  0.4891030000000  0.4251880000000  0.4191630000000 1.0
C      1  0.5546830000000  0.4890580000000  0.5636630000000 1.0
C      1  0.5804900000000  0.4884570000000  0.4845860000000 1.0
C      1  0.5287520000000  0.4876070000000  0.4210570000000 1.0
C      1  0.4463700000000  0.4915820000000  0.4369280000000 1.0
C      1  0.4149800000000  0.4879280000000  0.5150390000000 1.0
C      1  0.4705020000000  0.4865810000000  0.5810520000000 1.0
C      1  0.4654160000000  0.5307830000000  0.5008960000000 1.0
END
