TITL C-3623289-7120-1177 6.71892868192941e-09 125000 -163.952823842087 0 0 28 (C4h) n - 1
REM
REM in /home/nfs/bkarasulu/CARBON/AIRSS/Generating-Clusters/LCBOP/Higher-Symm/SD-CG/FIRE-CG
REM
REM
REM
REM
REM
REM ./C.cell (b20cbc046b6831c77cfcea5457e17084)
REM AIRSS Version 0.9.1 bugfix July 2018 build 013d7b7c2542+ Fri, 06 Jul 2018 19:26:36 +0100
REM compiler GCC version 9.2.1 20190827 (Red Hat 9.2.1-1)
REM options -cpp -mtune=generic -march=x86-64 -g -O0 -fpre-include=/usr/include/finclude/math-vector-fortran.h
REM seed 151485887 -1973472060 -2088545190 929839097 1174326557 1366674069 380530477 -580128390 -1275232108 1756662432 247753383 1974588780 411386526 2016754296 -833699283 -1139184874 874847196 -2089978726 -1254615123 2090242993 1126815323 -1225384278 -2094237722 221012487 -1687365291 1935717536 1078714681 1516352236 973529492 2084778428 -511796722 772894701 -1282392636
REM
CELL 1.54180   50.00000   50.00000   50.00000   90.00000   90.00000   90.00000
LATT -1
SFAC C  
C      1  0.5384900000000  0.5252680000000  0.4689570000000 1.0
C      1  0.5252940000000  0.4615060000000  0.4689840000000 1.0
C      1  0.4615320000000  0.4747020000000  0.4689550000000 1.0
C      1  0.4747280000000  0.5384640000000  0.4689280000000 1.0
C      1  0.5384680000000  0.5252980000000  0.5301220000000 1.0
C      1  0.5252720000000  0.4615360000000  0.5301490000000 1.0
C      1  0.4615100000000  0.4747320000000  0.5301190000000 1.0
C      1  0.4747060000000  0.5384940000000  0.5300930000000 1.0
C      1  0.4966100000000  0.5547340000000  0.4763330000000 1.0
C      1  0.5547530000000  0.5033870000000  0.4763790000000 1.0
C      1  0.5034070000000  0.4452440000000  0.4763890000000 1.0
C      1  0.4452630000000  0.4965900000000  0.4763440000000 1.0
C      1  0.4965930000000  0.5547560000000  0.5226870000000 1.0
C      1  0.5547370000000  0.5034100000000  0.5227330000000 1.0
C      1  0.5033900000000  0.4452660000000  0.5227430000000 1.0
C      1  0.4452470000000  0.4966130000000  0.5226970000000 1.0
C      1  0.4590270000000  0.5212230000000  0.5144360000000 1.0
C      1  0.5212100000000  0.5409750000000  0.5144480000000 1.0
C      1  0.5409620000000  0.4787920000000  0.5144860000000 1.0
C      1  0.4787790000000  0.4590400000000  0.5144730000000 1.0
C      1  0.4590380000000  0.5212080000000  0.4845910000000 1.0
C      1  0.5212210000000  0.5409600000000  0.4846030000000 1.0
C      1  0.5409730000000  0.4787770000000  0.4846410000000 1.0
C      1  0.4787900000000  0.4590250000000  0.4846280000000 1.0
C      1  0.4909100000000  0.5719130000000  0.4995000000000 1.0
C      1  0.5719130000000  0.5090900000000  0.4995590000000 1.0
C      1  0.5090900000000  0.4280870000000  0.4995770000000 1.0
C      1  0.4280870000000  0.4909100000000  0.4995170000000 1.0
END
