TITL C-3623286-7563-87 -4.11083950421592e-07 125000 -186.54803638369 0 0 30 (D5) n - 1
REM
REM in /home/nfs/bkarasulu/CARBON/AIRSS/Generating-Clusters/LCBOP/Higher-Symm/SD-CG/FIRE-CG
REM
REM
REM
REM
REM
REM ./C.cell (b20cbc046b6831c77cfcea5457e17084)
REM AIRSS Version 0.9.1 bugfix July 2018 build 013d7b7c2542+ Fri, 06 Jul 2018 19:26:36 +0100
REM compiler GCC version 9.2.1 20190827 (Red Hat 9.2.1-1)
REM options -cpp -mtune=generic -march=x86-64 -g -O0 -fpre-include=/usr/include/finclude/math-vector-fortran.h
REM seed -105038338 2021757614 -356556116 1615317487 408096600 -1259147081 -1493436043 1409383683 -855559177 1696872715 184629954 -1029490072 2037326864 -345813585 -386094541 -780634796 -287242469 -1876782719 -163237355 -1769104804 1810101690 -1198533147 -831207968 -881975585 -591957114 2048709793 -1208187607 1275031149 934683046 379479066 -79302250 2083618070 -1103981780
REM
CELL 1.54180   50.00000   50.00000   50.00000   90.00000   90.00000   90.00000
LATT -1
SFAC C  
C      1  0.4958090000000  0.5278640000000  0.5249720000000 1.0
C      1  0.4749550000000  0.5278640000000  0.5037310000000 1.0
C      1  0.4887120000000  0.5278640000000  0.4773340000000 1.0
C      1  0.5180680000000  0.5278640000000  0.4822600000000 1.0
C      1  0.5224550000000  0.5278640000000  0.5117020000000 1.0
C      1  0.5041910000000  0.4721360000000  0.5249720000000 1.0
C      1  0.5250450000000  0.4721360000000  0.5037310000000 1.0
C      1  0.5112880000000  0.4721360000000  0.4773340000000 1.0
C      1  0.4819320000000  0.4721360000000  0.4822600000000 1.0
C      1  0.4775450000000  0.4721360000000  0.5117020000000 1.0
C      1  0.5631800000000  0.5088450000000  0.4685420000000 1.0
C      1  0.5494420000000  0.5088450000000  0.5503660000000 1.0
C      1  0.4673770000000  0.5088450000000  0.5625860000000 1.0
C      1  0.4303960000000  0.5088450000000  0.4883140000000 1.0
C      1  0.4896050000000  0.5088450000000  0.4301920000000 1.0
C      1  0.4368200000000  0.4911550000000  0.4685420000000 1.0
C      1  0.4505580000000  0.4911550000000  0.5503660000000 1.0
C      1  0.5326230000000  0.4911550000000  0.5625860000000 1.0
C      1  0.5696040000000  0.4911550000000  0.4883140000000 1.0
C      1  0.5103950000000  0.4911550000000  0.4301920000000 1.0
C      1  0.4557550000000  0.4877370000000  0.5226860000000 1.0
C      1  0.4647520000000  0.4877370000000  0.4649310000000 1.0
C      1  0.5224600000000  0.4877370000000  0.4556400000000 1.0
C      1  0.5491290000000  0.4877370000000  0.5076530000000 1.0
C      1  0.5079040000000  0.4877370000000  0.5490900000000 1.0
C      1  0.5442450000000  0.5122630000000  0.5226860000000 1.0
C      1  0.5352480000000  0.5122630000000  0.4649310000000 1.0
C      1  0.4775400000000  0.5122630000000  0.4556400000000 1.0
C      1  0.4508710000000  0.5122630000000  0.5076530000000 1.0
C      1  0.4920960000000  0.5122630000000  0.5490900000000 1.0
END
