TITL C-3623286-7563-531 3.56419701642455e-06 125000 -917.68375731382 0 0 155 (D3) n - 1
REM
REM in /home/nfs/bkarasulu/CARBON/AIRSS/Generating-Clusters/LCBOP/Higher-Symm/SD-CG/FIRE-CG
REM
REM
REM
REM
REM
REM ./C.cell (b20cbc046b6831c77cfcea5457e17084)
REM AIRSS Version 0.9.1 bugfix July 2018 build 013d7b7c2542+ Fri, 06 Jul 2018 19:26:36 +0100
REM compiler GCC version 9.2.1 20190827 (Red Hat 9.2.1-1)
REM options -cpp -mtune=generic -march=x86-64 -g -O0 -fpre-include=/usr/include/finclude/math-vector-fortran.h
REM seed -420794398 832848098 -1256793646 -727563681 573472869 -2102957776 -294010261 -1571025876 1485362435 -758212142 -421345266 938429526 -1490843711 1080796492 581907088 -1787433824 125805822 -1580723699 -1323457722 -1289763364 -281012585 1028308605 1134941922 -764900264 -1575608985 -101694874 774991284 -1797956383 309182606 -370840797 -167939134 1913481156 1039064488
REM
CELL 1.54180   50.00000   50.00000   50.00000   90.00000   90.00000   90.00000
LATT -1
SFAC C  
C      1  0.4221910000000  0.3974140000000  0.5415470000000 1.0
C      1  0.4504400000000  0.6186770000000  0.5415240000000 1.0
C      1  0.6279350000000  0.4835810000000  0.5415340000000 1.0
C      1  0.4221880000000  0.6023580000000  0.4591570000000 1.0
C      1  0.4504390000000  0.3810960000000  0.4591790000000 1.0
C      1  0.6279330000000  0.5161930000000  0.4591620000000 1.0
C      1  0.6447780000000  0.5428480000000  0.5002560000000 1.0
C      1  0.4650980000000  0.3531870000000  0.5002790000000 1.0
C      1  0.3906870000000  0.6036250000000  0.5002550000000 1.0
C      1  0.6447790000000  0.4569270000000  0.5004400000000 1.0
C      1  0.4650960000000  0.6465860000000  0.5004240000000 1.0
C      1  0.3906880000000  0.3961470000000  0.5004510000000 1.0
C      1  0.6069430000000  0.4860240000000  0.5575880000000 1.0
C      1  0.4348010000000  0.4143750000000  0.5575980000000 1.0
C      1  0.4588220000000  0.5992780000000  0.5575790000000 1.0
C      1  0.6069400000000  0.5137510000000  0.4431100000000 1.0
C      1  0.4347980000000  0.5853970000000  0.4431060000000 1.0
C      1  0.4588210000000  0.4004940000000  0.4431240000000 1.0
C      1  0.5222710000000  0.6241860000000  0.4561160000000 1.0
C      1  0.5967950000000  0.4186040000000  0.4561350000000 1.0
C      1  0.3814940000000  0.4568560000000  0.4561350000000 1.0
C      1  0.5222740000000  0.3755870000000  0.5445850000000 1.0
C      1  0.5967950000000  0.5811700000000  0.5445630000000 1.0
C      1  0.3814950000000  0.5429160000000  0.5445710000000 1.0
C      1  0.5551190000000  0.4943700000000  0.5671740000000 1.0
C      1  0.4679410000000  0.4550840000000  0.5671800000000 1.0
C      1  0.4775070000000  0.5502250000000  0.5671700000000 1.0
C      1  0.5551160000000  0.5054030000000  0.4335250000000 1.0
C      1  0.4679380000000  0.5446890000000  0.4335230000000 1.0
C      1  0.4775050000000  0.4495470000000  0.4335320000000 1.0
C      1  0.5822100000000  0.4788560000000  0.5673170000000 1.0
C      1  0.4409590000000  0.4393800000000  0.5673240000000 1.0
C      1  0.4773980000000  0.5814440000000  0.5673090000000 1.0
C      1  0.5822070000000  0.5209180000000  0.4333810000000 1.0
C      1  0.4409560000000  0.5603920000000  0.4333800000000 1.0
C      1  0.4773960000000  0.4183290000000  0.4333940000000 1.0
C      1  0.5723440000000  0.5474710000000  0.4251760000000 1.0
C      1  0.5053230000000  0.4135920000000  0.4251900000000 1.0
C      1  0.4228910000000  0.5385730000000  0.4251790000000 1.0
C      1  0.5723470000000  0.4523030000000  0.5755230000000 1.0
C      1  0.5053250000000  0.5861810000000  0.5755110000000 1.0
C      1  0.4228940000000  0.4611990000000  0.5755250000000 1.0
C      1  0.5040700000000  0.5473760000000  0.5497670000000 1.0
C      1  0.5393700000000  0.4727880000000  0.5497740000000 1.0
C      1  0.4571250000000  0.4795110000000  0.5497740000000 1.0
C      1  0.5040690000000  0.4523970000000  0.4509350000000 1.0
C      1  0.5393680000000  0.5269860000000  0.4509260000000 1.0
C      1  0.4571230000000  0.5202610000000  0.4509290000000 1.0
C      1  0.5147330000000  0.4387120000000  0.5761600000000 1.0
C      1  0.4399320000000  0.5178890000000  0.5761530000000 1.0
C      1  0.5459020000000  0.5430810000000  0.5761490000000 1.0
C      1  0.5147300000000  0.5610610000000  0.4245410000000 1.0
C      1  0.4399290000000  0.4818830000000  0.4245510000000 1.0
C      1  0.5458990000000  0.4566930000000  0.4245510000000 1.0
C      1  0.4179020000000  0.4921330000000  0.4405130000000 1.0
C      1  0.5346190000000  0.5750150000000  0.4405020000000 1.0
C      1  0.5480380000000  0.4324930000000  0.4405170000000 1.0
C      1  0.4179040000000  0.5076390000000  0.5601920000000 1.0
C      1  0.5346220000000  0.4247580000000  0.5601980000000 1.0
C      1  0.5480400000000  0.5672800000000  0.5601830000000 1.0
C      1  0.5119970000000  0.5292190000000  0.4602690000000 1.0
C      1  0.5196870000000  0.4749860000000  0.4602740000000 1.0
C      1  0.4688760000000  0.4954430000000  0.4602730000000 1.0
C      1  0.5119990000000  0.4705540000000  0.5404320000000 1.0
C      1  0.5196890000000  0.5247870000000  0.5404260000000 1.0
C      1  0.4688770000000  0.5043300000000  0.5404290000000 1.0
C      1  0.5333720000000  0.3982660000000  0.5527100000000 1.0
C      1  0.3955860000000  0.5219670000000  0.5527000000000 1.0
C      1  0.5716080000000  0.5794420000000  0.5526910000000 1.0
C      1  0.5333690000000  0.6015080000000  0.4479900000000 1.0
C      1  0.3955840000000  0.4778050000000  0.4480060000000 1.0
C      1  0.5716070000000  0.4203310000000  0.4480080000000 1.0
C      1  0.4781820000000  0.4340770000000  0.5012110000000 1.0
C      1  0.4541980000000  0.5518480000000  0.5011990000000 1.0
C      1  0.5681830000000  0.5137340000000  0.5012010000000 1.0
C      1  0.4781820000000  0.5656960000000  0.4994910000000 1.0
C      1  0.4541980000000  0.4479240000000  0.4995040000000 1.0
C      1  0.5681830000000  0.4860400000000  0.4994980000000 1.0
C      1  0.6369900000000  0.4398910000000  0.4816340000000 1.0
C      1  0.3798300000000  0.4114070000000  0.4816410000000 1.0
C      1  0.4837420000000  0.6483560000000  0.4816150000000 1.0
C      1  0.6369900000000  0.5598830000000  0.5190630000000 1.0
C      1  0.3798300000000  0.5883650000000  0.5190650000000 1.0
C      1  0.4837440000000  0.3514170000000  0.5190870000000 1.0
C      1  0.4698380000000  0.5092300000000  0.5119700000000 1.0
C      1  0.5234530000000  0.5215010000000  0.5119680000000 1.0
C      1  0.5072720000000  0.4689330000000  0.5119730000000 1.0
C      1  0.4698370000000  0.4905430000000  0.4887330000000 1.0
C      1  0.5234530000000  0.4782730000000  0.4887330000000 1.0
C      1  0.5072720000000  0.5308400000000  0.4887280000000 1.0
C      1  0.4619490000000  0.4738730000000  0.4418520000000 1.0
C      1  0.4967820000000  0.5459990000000  0.4418440000000 1.0
C      1  0.5418280000000  0.4797700000000  0.4418500000000 1.0
C      1  0.4619510000000  0.5258990000000  0.5588510000000 1.0
C      1  0.4967850000000  0.4537740000000  0.5588570000000 1.0
C      1  0.5418300000000  0.5200040000000  0.5588500000000 1.0
C      1  0.5269990000000  0.4522770000000  0.5993400000000 1.0
C      1  0.4455440000000  0.5004880000000  0.5993370000000 1.0
C      1  0.5280240000000  0.5469250000000  0.5993300000000 1.0
C      1  0.5269950000000  0.5474970000000  0.4013610000000 1.0
C      1  0.4455410000000  0.4992840000000  0.4013670000000 1.0
C      1  0.5280210000000  0.4528490000000  0.4013700000000 1.0
C      1  0.5043720000000  0.3592040000000  0.5338550000000 1.0
C      1  0.3762590000000  0.5666090000000  0.5338360000000 1.0
C      1  0.6199330000000  0.5738560000000  0.5338310000000 1.0
C      1  0.5043700000000  0.6405690000000  0.4668470000000 1.0
C      1  0.3762580000000  0.4331630000000  0.4668700000000 1.0
C      1  0.6199330000000  0.4259180000000  0.4668660000000 1.0
C      1  0.5205250000000  0.4271080000000  0.4468420000000 1.0
C      1  0.4269940000000  0.5186540000000  0.4468340000000 1.0
C      1  0.5530400000000  0.5538810000000  0.4468280000000 1.0
C      1  0.5205260000000  0.5726650000000  0.5538590000000 1.0
C      1  0.4269960000000  0.4811190000000  0.5538700000000 1.0
C      1  0.5530430000000  0.4458920000000  0.5538710000000 1.0
C      1  0.4739710000000  0.4522690000000  0.4028780000000 1.0
C      1  0.4720640000000  0.5463830000000  0.4028690000000 1.0
C      1  0.5545220000000  0.5009780000000  0.4028720000000 1.0
C      1  0.4739740000000  0.5475030000000  0.5978240000000 1.0
C      1  0.4720680000000  0.4533900000000  0.5978340000000 1.0
C      1  0.5545260000000  0.4987960000000  0.5978280000000 1.0
C      1  0.5160790000000  0.5737510000000  0.5997940000000 1.0
C      1  0.5562050000000  0.4492090000000  0.5998050000000 1.0
C      1  0.4282850000000  0.4767300000000  0.5998050000000 1.0
C      1  0.5160760000000  0.4260220000000  0.4009070000000 1.0
C      1  0.5562010000000  0.5505650000000  0.4008940000000 1.0
C      1  0.4282810000000  0.5230430000000  0.4008990000000 1.0
C      1  0.5150660000000  0.5243720000000  0.6111300000000 1.0
C      1  0.5139460000000  0.4747770000000  0.6111350000000 1.0
C      1  0.4715560000000  0.5005440000000  0.6111340000000 1.0
C      1  0.5150620000000  0.4754010000000  0.3895710000000 1.0
C      1  0.5139420000000  0.5249960000000  0.3895660000000 1.0
C      1  0.4715520000000  0.4992280000000  0.3895690000000 1.0
C      1  0.4703760000000  0.4424770000000  0.6215340000000 1.0
C      1  0.4653680000000  0.5544290000000  0.6215230000000 1.0
C      1  0.5648260000000  0.5027900000000  0.6215260000000 1.0
C      1  0.4703710000000  0.5572960000000  0.3791690000000 1.0
C      1  0.4653640000000  0.4453430000000  0.3791800000000 1.0
C      1  0.5648210000000  0.4969840000000  0.3791730000000 1.0
C      1  0.4060730000000  0.6088060000000  0.4792480000000 1.0
C      1  0.6415730000000  0.5269290000000  0.4792520000000 1.0
C      1  0.4529150000000  0.3639180000000  0.4792720000000 1.0
C      1  0.4060750000000  0.3909660000000  0.5214570000000 1.0
C      1  0.6415740000000  0.4728460000000  0.5214440000000 1.0
C      1  0.4529150000000  0.6358540000000  0.5214310000000 1.0
C      1  0.5064300000000  0.4395430000000  0.5051000000000 1.0
C      1  0.4448070000000  0.5246530000000  0.5050930000000 1.0
C      1  0.5493260000000  0.5354650000000  0.5050900000000 1.0
C      1  0.5064290000000  0.5602300000000  0.4956010000000 1.0
C      1  0.4448070000000  0.4751190000000  0.4956110000000 1.0
C      1  0.5493260000000  0.4643090000000  0.4956100000000 1.0
C      1  0.5368350000000  0.4364130000000  0.5003570000000 1.0
C      1  0.5368340000000  0.5633610000000  0.5003440000000 1.0
C      1  0.4268940000000  0.4998860000000  0.5003520000000 1.0
C      1  0.5001900000000  0.4998980000000  0.6121140000000 1.0
C      1  0.5001850000000  0.4998750000000  0.3885880000000 1.0
END
