TITL C-3623287-7182-13 -208554.624650943 125000 -575.386967982554 0 0 103 (C4) n - 1
REM
REM in /home/nfs/bkarasulu/CARBON/AIRSS/Generating-Clusters/LCBOP/Higher-Symm/SD-CG/FIRE-CG
REM
REM
REM
REM
REM
REM ./C.cell (b20cbc046b6831c77cfcea5457e17084)
REM AIRSS Version 0.9.1 bugfix July 2018 build 013d7b7c2542+ Fri, 06 Jul 2018 19:26:36 +0100
REM compiler GCC version 9.2.1 20190827 (Red Hat 9.2.1-1)
REM options -cpp -mtune=generic -march=x86-64 -g -O0 -fpre-include=/usr/include/finclude/math-vector-fortran.h
REM seed -503724104 2030317875 2032417351 83554413 1077160174 -922263102 -956865951 1547908453 -833142206 1128597461 696158092 -42006202 -1418756435 -465018612 -1711217664 733179864 622772347 -1084771156 -1535832861 276904116 1208399763 1559914112 -313165622 -1309950956 -990956167 -2072608324 -470139641 79761583 -1668518413 -791120955 -1153339642 -1412589275 -1322022240
REM
CELL 1.54180   50.00000   50.00000   50.00000   90.00000   90.00000   90.00000
LATT -1
SFAC C  
C      1  0.4496250000000  0.4532350000000  0.5583380000000 1.0
C      1  0.4496160000000  0.5574360000000  0.5459530000000 1.0
C      1  0.4496120000000  0.5451590000000  0.4418260000000 1.0
C      1  0.4496170000000  0.4409260000000  0.4540530000000 1.0
C      1  0.5519810000000  0.4532610000000  0.4417730000000 1.0
C      1  0.5519830000000  0.5573870000000  0.4540530000000 1.0
C      1  0.5519770000000  0.5451600000000  0.5582880000000 1.0
C      1  0.5519760000000  0.4408770000000  0.5459790000000 1.0
C      1  0.5381660000000  0.4784300000000  0.5294700000000 1.0
C      1  0.5381670000000  0.5285690000000  0.5207730000000 1.0
C      1  0.5381310000000  0.5198860000000  0.4706390000000 1.0
C      1  0.5381280000000  0.4697490000000  0.4793190000000 1.0
C      1  0.4634300000000  0.4784390000000  0.4706420000000 1.0
C      1  0.4634650000000  0.5285730000000  0.4793260000000 1.0
C      1  0.4634720000000  0.5198930000000  0.5294630000000 1.0
C      1  0.4634330000000  0.4697430000000  0.5207830000000 1.0
C      1  0.4149740000000  0.5147460000000  0.4678610000000 1.0
C      1  0.4149080000000  0.4669070000000  0.4845840000000 1.0
C      1  0.4149400000000  0.4837750000000  0.5323120000000 1.0
C      1  0.4149980000000  0.5314230000000  0.5154930000000 1.0
C      1  0.5866900000000  0.5146270000000  0.5323070000000 1.0
C      1  0.5866600000000  0.4669020000000  0.5154400000000 1.0
C      1  0.5866010000000  0.4837240000000  0.4677870000000 1.0
C      1  0.5866230000000  0.5313480000000  0.4844640000000 1.0
C      1  0.4904520000000  0.4708310000000  0.5830100000000 1.0
C      1  0.4904550000000  0.5821260000000  0.5283710000000 1.0
C      1  0.4904310000000  0.5275510000000  0.4170900000000 1.0
C      1  0.4904420000000  0.4162100000000  0.4716590000000 1.0
C      1  0.5111440000000  0.4708430000000  0.4170830000000 1.0
C      1  0.5111660000000  0.5821200000000  0.4716630000000 1.0
C      1  0.5111570000000  0.5275540000000  0.5830050000000 1.0
C      1  0.5111460000000  0.4162050000000  0.5283830000000 1.0
C      1  0.5121580000000  0.4552540000000  0.4762520000000 1.0
C      1  0.5121980000000  0.4753720000000  0.5439720000000 1.0
C      1  0.5122020000000  0.5430790000000  0.5238430000000 1.0
C      1  0.5121620000000  0.5229710000000  0.4561370000000 1.0
C      1  0.4894030000000  0.4552430000000  0.5238390000000 1.0
C      1  0.4893950000000  0.4753680000000  0.4561310000000 1.0
C      1  0.4894360000000  0.5430720000000  0.4762430000000 1.0
C      1  0.4894400000000  0.5229620000000  0.5439610000000 1.0
C      1  0.4455080000000  0.4866810000000  0.5699990000000 1.0
C      1  0.4455190000000  0.5691180000000  0.5125440000000 1.0
C      1  0.4455070000000  0.5117780000000  0.4301020000000 1.0
C      1  0.4455120000000  0.4292020000000  0.4874670000000 1.0
C      1  0.5560800000000  0.4866710000000  0.4300910000000 1.0
C      1  0.5560910000000  0.5691080000000  0.4874360000000 1.0
C      1  0.5560870000000  0.5117460000000  0.5700130000000 1.0
C      1  0.5560890000000  0.4292170000000  0.5125340000000 1.0
C      1  0.5165450000000  0.4796090000000  0.5738500000000 1.0
C      1  0.5165520000000  0.5729610000000  0.5196000000000 1.0
C      1  0.5165220000000  0.5187710000000  0.4262540000000 1.0
C      1  0.5165250000000  0.4253780000000  0.4804470000000 1.0
C      1  0.4850450000000  0.4796120000000  0.4262480000000 1.0
C      1  0.4850770000000  0.5729550000000  0.4804430000000 1.0
C      1  0.4850730000000  0.5187680000000  0.5738380000000 1.0
C      1  0.4850540000000  0.4253660000000  0.5196030000000 1.0
C      1  0.5168410000000  0.5520440000000  0.5669380000000 1.0
C      1  0.5168500000000  0.5660740000000  0.4471700000000 1.0
C      1  0.5168450000000  0.4463490000000  0.4331260000000 1.0
C      1  0.5168290000000  0.4322540000000  0.5528820000000 1.0
C      1  0.4847510000000  0.5520430000000  0.4331370000000 1.0
C      1  0.4847570000000  0.5660860000000  0.5528650000000 1.0
C      1  0.4847640000000  0.4463330000000  0.5669580000000 1.0
C      1  0.4847650000000  0.4322740000000  0.4471670000000 1.0
C      1  0.5766260000000  0.4667980000000  0.5451180000000 1.0
C      1  0.5766400000000  0.5442450000000  0.5323130000000 1.0
C      1  0.5766500000000  0.5313550000000  0.4550560000000 1.0
C      1  0.5766600000000  0.4542500000000  0.4677590000000 1.0
C      1  0.4249630000000  0.4668990000000  0.4549640000000 1.0
C      1  0.4249460000000  0.5441560000000  0.4678570000000 1.0
C      1  0.4249390000000  0.5314500000000  0.5449630000000 1.0
C      1  0.4249700000000  0.4540990000000  0.5324160000000 1.0
C      1  0.4712500000000  0.4180500000000  0.4944480000000 1.0
C      1  0.4712580000000  0.4936280000000  0.5811610000000 1.0
C      1  0.4712630000000  0.5802790000000  0.5055790000000 1.0
C      1  0.4712370000000  0.5047690000000  0.4189410000000 1.0
C      1  0.5303390000000  0.4180550000000  0.5055860000000 1.0
C      1  0.5303360000000  0.4936350000000  0.4189300000000 1.0
C      1  0.5303610000000  0.5802690000000  0.4944450000000 1.0
C      1  0.5303490000000  0.5047650000000  0.5811650000000 1.0
C      1  0.5760490000000  0.4969290000000  0.5543030000000 1.0
C      1  0.5760890000000  0.5533680000000  0.5021820000000 1.0
C      1  0.5760620000000  0.5014120000000  0.4458820000000 1.0
C      1  0.5760450000000  0.4449980000000  0.4977330000000 1.0
C      1  0.4255090000000  0.4970300000000  0.4458390000000 1.0
C      1  0.4255340000000  0.5533290000000  0.4978040000000 1.0
C      1  0.4255540000000  0.5014810000000  0.5542150000000 1.0
C      1  0.4255490000000  0.4449120000000  0.5022850000000 1.0
C      1  0.5411960000000  0.5049140000000  0.5312900000000 1.0
C      1  0.5411890000000  0.5303890000000  0.4942920000000 1.0
C      1  0.5411460000000  0.4934070000000  0.4688110000000 1.0
C      1  0.5411540000000  0.4679340000000  0.5057990000000 1.0
C      1  0.4604120000000  0.5049210000000  0.4688220000000 1.0
C      1  0.4604510000000  0.5303980000000  0.5058050000000 1.0
C      1  0.4604470000000  0.4934130000000  0.5312800000000 1.0
C      1  0.4604020000000  0.4679250000000  0.4942990000000 1.0
C      1  0.5007790000000  0.4991670000000  0.4648370000000 1.0
C      1  0.5008200000000  0.4991640000000  0.5352420000000 1.0
C      1  0.5008180000000  0.5343650000000  0.5000460000000 1.0
C      1  0.5007800000000  0.4639820000000  0.5000490000000 1.0
C      1  0.5892300000000  0.4992800000000  0.5005090000000 1.0
C      1  0.4123670000000  0.4987050000000  0.4999200000000 1.0
C      1  0.5007990000000  0.4991530000000  0.5000590000000 1.0
END
