TITL C-3623288-6813-1640 -8.40171691349524e-07 125000 -693.916620300108 0 0 112 (C1) n - 1
REM
REM in /home/nfs/bkarasulu/CARBON/AIRSS/Generating-Clusters/LCBOP/Higher-Symm/SD-CG/FIRE-CG
REM
REM
REM
REM
REM
REM ./C.cell (b20cbc046b6831c77cfcea5457e17084)
REM AIRSS Version 0.9.1 bugfix July 2018 build 013d7b7c2542+ Fri, 06 Jul 2018 19:26:36 +0100
REM compiler GCC version 9.2.1 20190827 (Red Hat 9.2.1-1)
REM options -cpp -mtune=generic -march=x86-64 -g -O0 -fpre-include=/usr/include/finclude/math-vector-fortran.h
REM seed -557500868 -2022081048 1349545977 -1879929035 731111867 -1091848956 652053251 599252210 -1408683235 1958276803 1618642484 5042523 -272388627 2083415439 -635724922 1055066595 1465074344 -660982523 512574175 1419232963 228688457 -2112348937 1425015826 394494945 -57983096 -1052618803 807778774 631376367 1937598102 -1223056293 -1017283618 -1625600055 -1307189774
REM
CELL 1.54180   50.00000   50.00000   50.00000   90.00000   90.00000   90.00000
LATT -1
SFAC C  
C      1  0.5311420000000  0.4110360000000  0.4847830000000 1.0
C      1  0.5328910000000  0.4119150000000  0.5132750000000 1.0
C      1  0.5111320000000  0.4091340000000  0.5321440000000 1.0
C      1  0.4825790000000  0.4127200000000  0.5290790000000 1.0
C      1  0.4680890000000  0.4137470000000  0.5044220000000 1.0
C      1  0.4810240000000  0.4169660000000  0.4790260000000 1.0
C      1  0.5068640000000  0.4084420000000  0.4698890000000 1.0
C      1  0.5188690000000  0.5228770000000  0.4207780000000 1.0
C      1  0.5742280000000  0.5154020000000  0.4628600000000 1.0
C      1  0.5791200000000  0.5145340000000  0.5464190000000 1.0
C      1  0.5151450000000  0.5215020000000  0.5769540000000 1.0
C      1  0.4397880000000  0.5152410000000  0.5705940000000 1.0
C      1  0.4166180000000  0.5170690000000  0.4997090000000 1.0
C      1  0.4476460000000  0.5161470000000  0.4213970000000 1.0
C      1  0.5149130000000  0.4287090000000  0.4232640000000 1.0
C      1  0.5701380000000  0.4373500000000  0.4580610000000 1.0
C      1  0.5767820000000  0.4388390000000  0.5298850000000 1.0
C      1  0.5199580000000  0.4290690000000  0.5779240000000 1.0
C      1  0.4564090000000  0.4384380000000  0.5694170000000 1.0
C      1  0.4204630000000  0.4389550000000  0.5071130000000 1.0
C      1  0.4475100000000  0.4412450000000  0.4441040000000 1.0
C      1  0.4934950000000  0.5927790000000  0.4686920000000 1.0
C      1  0.5207820000000  0.5933310000000  0.4765760000000 1.0
C      1  0.5320660000000  0.5924640000000  0.5024380000000 1.0
C      1  0.5182390000000  0.5927020000000  0.5269620000000 1.0
C      1  0.4901940000000  0.5927730000000  0.5314660000000 1.0
C      1  0.4688800000000  0.5919220000000  0.5129750000000 1.0
C      1  0.4702730000000  0.5921180000000  0.4847380000000 1.0
C      1  0.5015890000000  0.4686570000000  0.3971890000000 1.0
C      1  0.5810120000000  0.4896550000000  0.4444360000000 1.0
C      1  0.5932020000000  0.4914510000000  0.5329950000000 1.0
C      1  0.5408170000000  0.4701460000000  0.5936460000000 1.0
C      1  0.4490660000000  0.4908060000000  0.5861480000000 1.0
C      1  0.4033850000000  0.4906830000000  0.5131620000000 1.0
C      1  0.4291130000000  0.4929090000000  0.4280950000000 1.0
C      1  0.5494570000000  0.4772360000000  0.5363990000000 1.0
C      1  0.5039450000000  0.4735470000000  0.5628120000000 1.0
C      1  0.4534910000000  0.4765630000000  0.5413390000000 1.0
C      1  0.4386150000000  0.4782260000000  0.4869820000000 1.0
C      1  0.4704800000000  0.4800600000000  0.4430700000000 1.0
C      1  0.5226430000000  0.4744960000000  0.4401110000000 1.0
C      1  0.5601140000000  0.4760530000000  0.4837890000000 1.0
C      1  0.4752680000000  0.5028700000000  0.4235410000000 1.0
C      1  0.5363130000000  0.5011230000000  0.4316680000000 1.0
C      1  0.5751550000000  0.5022310000000  0.4903530000000 1.0
C      1  0.5531030000000  0.5010720000000  0.5556510000000 1.0
C      1  0.4941420000000  0.5004230000000  0.5748260000000 1.0
C      1  0.4395630000000  0.5034810000000  0.5428230000000 1.0
C      1  0.4278690000000  0.5040980000000  0.4744890000000 1.0
C      1  0.4886190000000  0.5236940000000  0.5285540000000 1.0
C      1  0.4694400000000  0.5261870000000  0.5086190000000 1.0
C      1  0.4738200000000  0.5265870000000  0.4809270000000 1.0
C      1  0.4967630000000  0.5250750000000  0.4649630000000 1.0
C      1  0.5224020000000  0.5235060000000  0.4761920000000 1.0
C      1  0.5303120000000  0.5253230000000  0.5032090000000 1.0
C      1  0.5165600000000  0.5251480000000  0.5275430000000 1.0
C      1  0.5120320000000  0.5480390000000  0.5851210000000 1.0
C      1  0.4446650000000  0.5438760000000  0.5680010000000 1.0
C      1  0.4118790000000  0.5464730000000  0.4961430000000 1.0
C      1  0.4490010000000  0.5446350000000  0.4285590000000 1.0
C      1  0.5254940000000  0.5499560000000  0.4172640000000 1.0
C      1  0.5779410000000  0.5454100000000  0.4650280000000 1.0
C      1  0.5750650000000  0.5431210000000  0.5416340000000 1.0
C      1  0.5371220000000  0.5766920000000  0.4582570000000 1.0
C      1  0.5555620000000  0.5738650000000  0.5034430000000 1.0
C      1  0.5320810000000  0.5749850000000  0.5466040000000 1.0
C      1  0.4836180000000  0.5756920000000  0.5547600000000 1.0
C      1  0.4471890000000  0.5736210000000  0.5226150000000 1.0
C      1  0.4494910000000  0.5743030000000  0.4728350000000 1.0
C      1  0.4898410000000  0.5756650000000  0.4444300000000 1.0
C      1  0.5319660000000  0.4709650000000  0.4905100000000 1.0
C      1  0.5266020000000  0.4714240000000  0.5192460000000 1.0
C      1  0.5014000000000  0.4700540000000  0.5332870000000 1.0
C      1  0.4745110000000  0.4715300000000  0.5216980000000 1.0
C      1  0.4666750000000  0.4731830000000  0.4934610000000 1.0
C      1  0.4824100000000  0.4658690000000  0.4681430000000 1.0
C      1  0.5129650000000  0.4695270000000  0.4677800000000 1.0
C      1  0.5198460000000  0.4568670000000  0.5801930000000 1.0
C      1  0.4501700000000  0.4659780000000  0.5684660000000 1.0
C      1  0.4166720000000  0.4663900000000  0.5019710000000 1.0
C      1  0.4446540000000  0.4681220000000  0.4338560000000 1.0
C      1  0.5152200000000  0.4563870000000  0.4187390000000 1.0
C      1  0.5738150000000  0.4651500000000  0.4603450000000 1.0
C      1  0.5766340000000  0.4665480000000  0.5344150000000 1.0
C      1  0.4751010000000  0.4958950000000  0.5969980000000 1.0
C      1  0.4098710000000  0.4949160000000  0.5406980000000 1.0
C      1  0.4119940000000  0.4990150000000  0.4501270000000 1.0
C      1  0.4848850000000  0.4900110000000  0.3983780000000 1.0
C      1  0.5637510000000  0.4941730000000  0.4215990000000 1.0
C      1  0.5996850000000  0.4973420000000  0.5058710000000 1.0
C      1  0.5557190000000  0.4901650000000  0.5833140000000 1.0
C      1  0.4699560000000  0.4375310000000  0.4626190000000 1.0
C      1  0.5103850000000  0.4096550000000  0.4416230000000 1.0
C      1  0.5543810000000  0.4186710000000  0.4696620000000 1.0
C      1  0.5584460000000  0.4200170000000  0.5236160000000 1.0
C      1  0.5191800000000  0.4098590000000  0.5593640000000 1.0
C      1  0.4679110000000  0.4203590000000  0.5527860000000 1.0
C      1  0.4401760000000  0.4204180000000  0.5061160000000 1.0
C      1  0.5575090000000  0.5200230000000  0.5056820000000 1.0
C      1  0.5301370000000  0.5190840000000  0.5525570000000 1.0
C      1  0.4786070000000  0.5122370000000  0.5513380000000 1.0
C      1  0.4427540000000  0.5188420000000  0.5176180000000 1.0
C      1  0.4501370000000  0.5215960000000  0.4674960000000 1.0
C      1  0.4949250000000  0.5201730000000  0.4363960000000 1.0
C      1  0.5432250000000  0.5149270000000  0.4583080000000 1.0
C      1  0.4561430000000  0.5641700000000  0.5505730000000 1.0
C      1  0.4330900000000  0.5657990000000  0.4968680000000 1.0
C      1  0.4610300000000  0.5649850000000  0.4458770000000 1.0
C      1  0.5182960000000  0.5691260000000  0.4367790000000 1.0
C      1  0.5598550000000  0.5657980000000  0.4745170000000 1.0
C      1  0.5568820000000  0.5639450000000  0.5322960000000 1.0
C      1  0.5099560000000  0.5682110000000  0.5656500000000 1.0
END
