TITL C-3623289-7120-97 0.0293848790519749 125000 -176.809359601813 0 0 31 (C1) n - 1
REM
REM in /home/nfs/bkarasulu/CARBON/AIRSS/Generating-Clusters/LCBOP/Higher-Symm/SD-CG/FIRE-CG
REM
REM
REM
REM
REM
REM ./C.cell (b20cbc046b6831c77cfcea5457e17084)
REM AIRSS Version 0.9.1 bugfix July 2018 build 013d7b7c2542+ Fri, 06 Jul 2018 19:26:36 +0100
REM compiler GCC version 9.2.1 20190827 (Red Hat 9.2.1-1)
REM options -cpp -mtune=generic -march=x86-64 -g -O0 -fpre-include=/usr/include/finclude/math-vector-fortran.h
REM seed 1394211929 1786200032 2101107467 697010357 1072052063 -2145076024 1126850121 1620203334 -577280913 -931592252 -436162696 -464803558 -1177568061 -1717933444 511201979 -2141479869 -1680812858 -917160183 643917632 -1273121118 -110000576 -1402522396 1652050981 -2063344341 1427653362 1021191066 -1070379223 -1233143899 -287206409 758816144 -338572971 -2119010438 808020924
REM
CELL 1.54180   50.00000   50.00000   50.00000   90.00000   90.00000   90.00000
LATT -1
SFAC C  
C      1  0.4929030000000  0.5852850000000  0.5436080000000 1.0
C      1  0.4881870000000  0.4216760000000  0.4552520000000 1.0
C      1  0.5257440000000  0.4685950000000  0.4807180000000 1.0
C      1  0.5302100000000  0.5274250000000  0.5178340000000 1.0
C      1  0.5047530000000  0.5104120000000  0.4465090000000 1.0
C      1  0.5007080000000  0.4908880000000  0.5523200000000 1.0
C      1  0.5288660000000  0.5003930000000  0.4329870000000 1.0
C      1  0.5260680000000  0.4949460000000  0.5667290000000 1.0
C      1  0.5514650000000  0.5070670000000  0.4481200000000 1.0
C      1  0.5471530000000  0.4840750000000  0.5518300000000 1.0
C      1  0.4546760000000  0.4663450000000  0.5047620000000 1.0
C      1  0.4639370000000  0.4452350000000  0.4909180000000 1.0
C      1  0.4657150000000  0.5032300000000  0.4759600000000 1.0
C      1  0.4632310000000  0.5101940000000  0.5258180000000 1.0
C      1  0.5424330000000  0.5111540000000  0.4981510000000 1.0
C      1  0.5396800000000  0.4824180000000  0.5011840000000 1.0
C      1  0.4414800000000  0.5233540000000  0.5359970000000 1.0
C      1  0.4489790000000  0.5215860000000  0.4643970000000 1.0
C      1  0.5063470000000  0.5341040000000  0.5313610000000 1.0
C      1  0.5000090000000  0.4675340000000  0.4690090000000 1.0
C      1  0.4841300000000  0.4439950000000  0.4712940000000 1.0
C      1  0.5001710000000  0.5605040000000  0.5376990000000 1.0
C      1  0.5366960000000  0.4718110000000  0.5273880000000 1.0
C      1  0.5432550000000  0.5220820000000  0.4718910000000 1.0
C      1  0.4923700000000  0.4009260000000  0.4400490000000 1.0
C      1  0.4855610000000  0.6096140000000  0.5494270000000 1.0
C      1  0.4880650000000  0.4926810000000  0.4613240000000 1.0
C      1  0.4886390000000  0.5126510000000  0.5385110000000 1.0
C      1  0.5165980000000  0.5318840000000  0.4630460000000 1.0
C      1  0.5082190000000  0.4682630000000  0.5349980000000 1.0
C      1  0.4604790000000  0.4938710000000  0.5026010000000 1.0
END
