TITL C-3623287-7182-556 -10679.784033532 125000 -849.478160094746 0 0 141 (C1) n - 1
REM
REM in /home/nfs/bkarasulu/CARBON/AIRSS/Generating-Clusters/LCBOP/Higher-Symm/SD-CG/FIRE-CG
REM
REM
REM
REM
REM
REM ./C.cell (b20cbc046b6831c77cfcea5457e17084)
REM AIRSS Version 0.9.1 bugfix July 2018 build 013d7b7c2542+ Fri, 06 Jul 2018 19:26:36 +0100
REM compiler GCC version 9.2.1 20190827 (Red Hat 9.2.1-1)
REM options -cpp -mtune=generic -march=x86-64 -g -O0 -fpre-include=/usr/include/finclude/math-vector-fortran.h
REM seed -755662831 190378599 2096287154 1161366012 -1312212169 97203261 -479575470 151618665 -1299704315 -124799638 -1128003236 -1976406341 -937048835 -718087679 -1073408228 931332666 1182906176 -1784971920 -902959347 1717493556 -137464269 1895249656 -961337409 -1171901175 -625097124 417124635 71766146 -1315080033 -1429229448 -1052085340 -1822298560 -1825676677 1793832962
REM
CELL 1.54180   50.00000   50.00000   50.00000   90.00000   90.00000   90.00000
LATT -1
SFAC C  
C      1  0.6102730000000  0.4900900000000  0.4889710000000 1.0
C      1  0.5626700000000  0.5625690000000  0.4458970000000 1.0
C      1  0.4385380000000  0.4280100000000  0.4327920000000 1.0
C      1  0.4530560000000  0.4885770000000  0.5997370000000 1.0
C      1  0.6090890000000  0.4968690000000  0.4345310000000 1.0
C      1  0.5221630000000  0.5019440000000  0.4191400000000 1.0
C      1  0.4784880000000  0.5909450000000  0.4558530000000 1.0
C      1  0.4403090000000  0.5747000000000  0.4834930000000 1.0
C      1  0.4842490000000  0.5800370000000  0.5717680000000 1.0
C      1  0.5766450000000  0.4584630000000  0.4881630000000 1.0
C      1  0.5386220000000  0.5516700000000  0.4866730000000 1.0
C      1  0.4356220000000  0.5065780000000  0.4703660000000 1.0
C      1  0.3981320000000  0.5087180000000  0.4312760000000 1.0
C      1  0.4678450000000  0.4191920000000  0.5047810000000 1.0
C      1  0.4002060000000  0.5228290000000  0.4997910000000 1.0
C      1  0.4462240000000  0.5115490000000  0.5164540000000 1.0
C      1  0.4733160000000  0.5571940000000  0.4132420000000 1.0
C      1  0.4533370000000  0.5267990000000  0.4606010000000 1.0
C      1  0.5748340000000  0.5338030000000  0.5141120000000 1.0
C      1  0.5651030000000  0.5563200000000  0.5285050000000 1.0
C      1  0.4604700000000  0.4146270000000  0.4497330000000 1.0
C      1  0.5397420000000  0.3774240000000  0.5053910000000 1.0
C      1  0.4587040000000  0.5156750000000  0.5576660000000 1.0
C      1  0.6093110000000  0.4834490000000  0.5165650000000 1.0
C      1  0.4978530000000  0.5522250000000  0.4628370000000 1.0
C      1  0.5251390000000  0.5023380000000  0.5070570000000 1.0
C      1  0.5276600000000  0.5626520000000  0.4078880000000 1.0
C      1  0.4592680000000  0.5383470000000  0.5746650000000 1.0
C      1  0.5209450000000  0.4559490000000  0.4944270000000 1.0
C      1  0.5563780000000  0.4541040000000  0.4440430000000 1.0
C      1  0.4204900000000  0.4828150000000  0.4631640000000 1.0
C      1  0.3881080000000  0.5308060000000  0.4751630000000 1.0
C      1  0.5078290000000  0.4644330000000  0.4449820000000 1.0
C      1  0.5987080000000  0.4972590000000  0.4624560000000 1.0
C      1  0.4851970000000  0.5007940000000  0.4900960000000 1.0
C      1  0.5564790000000  0.5125200000000  0.5882980000000 1.0
C      1  0.4553400000000  0.5767690000000  0.4310060000000 1.0
C      1  0.4932120000000  0.5540050000000  0.4903040000000 1.0
C      1  0.4392100000000  0.5589070000000  0.5324720000000 1.0
C      1  0.4293970000000  0.4894240000000  0.5839320000000 1.0
C      1  0.5875680000000  0.4604940000000  0.4092630000000 1.0
C      1  0.4221680000000  0.4575400000000  0.4878510000000 1.0
C      1  0.5298920000000  0.5099860000000  0.5524230000000 1.0
C      1  0.5317200000000  0.4145500000000  0.5317270000000 1.0
C      1  0.4103660000000  0.4712220000000  0.5424320000000 1.0
C      1  0.5742670000000  0.5143860000000  0.4586890000000 1.0
C      1  0.4591180000000  0.4113870000000  0.5314570000000 1.0
C      1  0.4563630000000  0.4192430000000  0.4783290000000 1.0
C      1  0.5624850000000  0.4835210000000  0.5864990000000 1.0
C      1  0.5731140000000  0.5072900000000  0.5085740000000 1.0
C      1  0.4895700000000  0.5263700000000  0.4513260000000 1.0
C      1  0.5267760000000  0.4822620000000  0.5473090000000 1.0
C      1  0.4791790000000  0.4644740000000  0.5313270000000 1.0
C      1  0.4946840000000  0.5595500000000  0.5915640000000 1.0
C      1  0.5360950000000  0.4361680000000  0.5497650000000 1.0
C      1  0.4844290000000  0.5094360000000  0.5428120000000 1.0
C      1  0.6217340000000  0.5217820000000  0.4286370000000 1.0
C      1  0.5806960000000  0.5407650000000  0.4464780000000 1.0
C      1  0.4837490000000  0.5478230000000  0.5155600000000 1.0
C      1  0.4764180000000  0.4413730000000  0.4132250000000 1.0
C      1  0.4818690000000  0.3984780000000  0.5439520000000 1.0
C      1  0.5016860000000  0.4663730000000  0.5495940000000 1.0
C      1  0.5736330000000  0.4736800000000  0.5594910000000 1.0
C      1  0.4672150000000  0.4626170000000  0.5926550000000 1.0
C      1  0.5496620000000  0.4623880000000  0.5472740000000 1.0
C      1  0.4569120000000  0.5385310000000  0.5209830000000 1.0
C      1  0.4525340000000  0.5843730000000  0.5298220000000 1.0
C      1  0.4221270000000  0.4646110000000  0.5701540000000 1.0
C      1  0.6066630000000  0.5436030000000  0.4348920000000 1.0
C      1  0.5965080000000  0.4785250000000  0.5412460000000 1.0
C      1  0.5905490000000  0.4880570000000  0.4137400000000 1.0
C      1  0.5337680000000  0.4806200000000  0.4406800000000 1.0
C      1  0.5064130000000  0.5253650000000  0.5526790000000 1.0
C      1  0.5014880000000  0.5091860000000  0.4701320000000 1.0
C      1  0.4961750000000  0.5166720000000  0.4238430000000 1.0
C      1  0.4756740000000  0.5376520000000  0.5977560000000 1.0
C      1  0.5355300000000  0.5283500000000  0.6027910000000 1.0
C      1  0.4095250000000  0.5015080000000  0.5426990000000 1.0
C      1  0.4526240000000  0.5038650000000  0.4067550000000 1.0
C      1  0.4633620000000  0.4649480000000  0.4693070000000 1.0
C      1  0.5191750000000  0.5117190000000  0.6191710000000 1.0
C      1  0.4314420000000  0.5068200000000  0.5613790000000 1.0
C      1  0.4998990000000  0.5943280000000  0.5244340000000 1.0
C      1  0.5678190000000  0.4440090000000  0.4204450000000 1.0
C      1  0.5647570000000  0.4799160000000  0.5023070000000 1.0
C      1  0.5129220000000  0.4443550000000  0.5665650000000 1.0
C      1  0.4206990000000  0.4527430000000  0.5222980000000 1.0
C      1  0.4274670000000  0.5728290000000  0.4311890000000 1.0
C      1  0.5182410000000  0.4555350000000  0.5927130000000 1.0
C      1  0.4063160000000  0.5568430000000  0.4365570000000 1.0
C      1  0.4581840000000  0.4835100000000  0.5191580000000 1.0
C      1  0.5284570000000  0.5124130000000  0.4792270000000 1.0
C      1  0.5460880000000  0.4213370000000  0.4816600000000 1.0
C      1  0.4549310000000  0.5911700000000  0.5013770000000 1.0
C      1  0.5094200000000  0.3944720000000  0.5372010000000 1.0
C      1  0.5637750000000  0.4415870000000  0.4694300000000 1.0
C      1  0.4123710000000  0.5503250000000  0.5372820000000 1.0
C      1  0.5015180000000  0.5681460000000  0.4185140000000 1.0
C      1  0.5454140000000  0.4638520000000  0.6008190000000 1.0
C      1  0.5560210000000  0.4521640000000  0.6234910000000 1.0
C      1  0.4382430000000  0.4794730000000  0.4169090000000 1.0
C      1  0.4153840000000  0.4858840000000  0.4349340000000 1.0
C      1  0.3946460000000  0.5328910000000  0.4468720000000 1.0
C      1  0.5602090000000  0.4204010000000  0.4091950000000 1.0
C      1  0.4776620000000  0.5893320000000  0.5445090000000 1.0
C      1  0.5498520000000  0.5722750000000  0.4228440000000 1.0
C      1  0.4948890000000  0.4681030000000  0.6034000000000 1.0
C      1  0.5343430000000  0.5395890000000  0.3927240000000 1.0
C      1  0.5566850000000  0.5498000000000  0.5550710000000 1.0
C      1  0.4422580000000  0.4323550000000  0.5428940000000 1.0
C      1  0.4663500000000  0.4811320000000  0.4912030000000 1.0
C      1  0.5422500000000  0.5140750000000  0.4023480000000 1.0
C      1  0.4485850000000  0.4509160000000  0.4165360000000 1.0
C      1  0.5478680000000  0.5026330000000  0.4604800000000 1.0
C      1  0.5368160000000  0.4766400000000  0.5049140000000 1.0
C      1  0.4453180000000  0.5523590000000  0.4693110000000 1.0
C      1  0.5076090000000  0.4359670000000  0.4516050000000 1.0
C      1  0.4811800000000  0.5975070000000  0.4922280000000 1.0
C      1  0.5535750000000  0.5227620000000  0.5616560000000 1.0
C      1  0.4971830000000  0.5036270000000  0.5154860000000 1.0
C      1  0.4264760000000  0.5124990000000  0.4961350000000 1.0
C      1  0.5201060000000  0.4330590000000  0.4767810000000 1.0
C      1  0.5459060000000  0.4059440000000  0.5059610000000 1.0
C      1  0.5691860000000  0.5044830000000  0.4033820000000 1.0
C      1  0.5507150000000  0.5677740000000  0.4704170000000 1.0
C      1  0.5027540000000  0.5483690000000  0.5367500000000 1.0
C      1  0.4443590000000  0.4451020000000  0.4771700000000 1.0
C      1  0.5359010000000  0.5667150000000  0.5659250000000 1.0
C      1  0.4456580000000  0.4466060000000  0.5694710000000 1.0
C      1  0.5233260000000  0.5540780000000  0.5898330000000 1.0
C      1  0.4968790000000  0.4953770000000  0.6141870000000 1.0
C      1  0.3997450000000  0.5255060000000  0.5287050000000 1.0
C      1  0.4857450000000  0.4241840000000  0.4365890000000 1.0
C      1  0.4828330000000  0.4427020000000  0.5120850000000 1.0
C      1  0.5189040000000  0.3711260000000  0.5225210000000 1.0
C      1  0.5270100000000  0.5863500000000  0.5358310000000 1.0
C      1  0.5506500000000  0.5804000000000  0.5208690000000 1.0
C      1  0.4720820000000  0.5260350000000  0.4091240000000 1.0
C      1  0.5002450000000  0.5754590000000  0.4470600000000 1.0
C      1  0.4724950000000  0.5100010000000  0.6084470000000 1.0
C      1  0.4807360000000  0.4720370000000  0.4484370000000 1.0
END
