TITL C-3623287-7182-246 -2.51252820496466e-07 125000 -505.53671147097 0 0 83 (C1) n - 1
REM
REM in /home/nfs/bkarasulu/CARBON/AIRSS/Generating-Clusters/LCBOP/Higher-Symm/SD-CG/FIRE-CG
REM
REM
REM
REM
REM
REM ./C.cell (b20cbc046b6831c77cfcea5457e17084)
REM AIRSS Version 0.9.1 bugfix July 2018 build 013d7b7c2542+ Fri, 06 Jul 2018 19:26:36 +0100
REM compiler GCC version 9.2.1 20190827 (Red Hat 9.2.1-1)
REM options -cpp -mtune=generic -march=x86-64 -g -O0 -fpre-include=/usr/include/finclude/math-vector-fortran.h
REM seed 256676250 -51918682 -1649054533 965905068 -1913209275 -123851279 -706553677 1548462468 -1152011344 -38530229 -709436585 -1114338870 -1307289489 -763993385 996332076 1076346456 -1780199164 1462696196 -279780098 -676176135 -761612135 -1372442808 817742100 -2038958946 -860045553 869992817 991791478 1100741654 -1903064234 1522935515 -1728113842 -1247029437 -1397553782
REM
CELL 1.54180   50.00000   50.00000   50.00000   90.00000   90.00000   90.00000
LATT -1
SFAC C  
C      1  0.4528410000000  0.5080030000000  0.4493290000000 1.0
C      1  0.5259120000000  0.5312170000000  0.4418130000000 1.0
C      1  0.5134390000000  0.4539270000000  0.4444600000000 1.0
C      1  0.4565180000000  0.5103870000000  0.5529140000000 1.0
C      1  0.5272160000000  0.5329310000000  0.5518820000000 1.0
C      1  0.5157340000000  0.4605710000000  0.5591280000000 1.0
C      1  0.5540780000000  0.5582900000000  0.5194660000000 1.0
C      1  0.5254710000000  0.4236550000000  0.5128860000000 1.0
C      1  0.4262340000000  0.5190760000000  0.5157010000000 1.0
C      1  0.5568550000000  0.5570380000000  0.4892160000000 1.0
C      1  0.5266230000000  0.4253270000000  0.4827290000000 1.0
C      1  0.4236380000000  0.5184660000000  0.4857880000000 1.0
C      1  0.4846100000000  0.5087790000000  0.5174300000000 1.0
C      1  0.5290410000000  0.5119040000000  0.5103570000000 1.0
C      1  0.5012380000000  0.4674400000000  0.5141070000000 1.0
C      1  0.4781910000000  0.5109770000000  0.4903490000000 1.0
C      1  0.5315180000000  0.5131600000000  0.4838220000000 1.0
C      1  0.5015220000000  0.4713890000000  0.4868100000000 1.0
C      1  0.5141090000000  0.5258810000000  0.4670930000000 1.0
C      1  0.5192530000000  0.4751470000000  0.4668570000000 1.0
C      1  0.4662010000000  0.4927730000000  0.4723040000000 1.0
C      1  0.5076660000000  0.5262750000000  0.5268170000000 1.0
C      1  0.5184140000000  0.4749350000000  0.5343390000000 1.0
C      1  0.4697430000000  0.4905160000000  0.5335480000000 1.0
C      1  0.5525710000000  0.4877450000000  0.4746110000000 1.0
C      1  0.4751230000000  0.4666010000000  0.4753440000000 1.0
C      1  0.4879110000000  0.5341180000000  0.4759110000000 1.0
C      1  0.5428850000000  0.4879100000000  0.5237010000000 1.0
C      1  0.4751430000000  0.4627350000000  0.5259270000000 1.0
C      1  0.4931010000000  0.5539150000000  0.5228310000000 1.0
C      1  0.5745900000000  0.5360330000000  0.4803930000000 1.0
C      1  0.5022200000000  0.4305610000000  0.4640790000000 1.0
C      1  0.4414890000000  0.5318900000000  0.4659420000000 1.0
C      1  0.5556050000000  0.5340960000000  0.5372540000000 1.0
C      1  0.4993180000000  0.4198840000000  0.5251920000000 1.0
C      1  0.4474360000000  0.5330770000000  0.5320090000000 1.0
C      1  0.4685130000000  0.4645270000000  0.5802390000000 1.0
C      1  0.4819450000000  0.5466180000000  0.5806460000000 1.0
C      1  0.5553810000000  0.4953030000000  0.5676080000000 1.0
C      1  0.4649590000000  0.4601060000000  0.4234950000000 1.0
C      1  0.4810410000000  0.5454420000000  0.4242840000000 1.0
C      1  0.5452100000000  0.4912030000000  0.4174760000000 1.0
C      1  0.5355440000000  0.5695130000000  0.4709310000000 1.0
C      1  0.5501580000000  0.4391210000000  0.4690670000000 1.0
C      1  0.4141330000000  0.4933450000000  0.4717500000000 1.0
C      1  0.5324970000000  0.5745700000000  0.5326070000000 1.0
C      1  0.5460510000000  0.4386950000000  0.5291180000000 1.0
C      1  0.4163480000000  0.4960690000000  0.5325680000000 1.0
C      1  0.4393070000000  0.4669710000000  0.4303750000000 1.0
C      1  0.4998210000000  0.5653720000000  0.4298870000000 1.0
C      1  0.5544650000000  0.4661240000000  0.4230790000000 1.0
C      1  0.4424910000000  0.4716340000000  0.5744440000000 1.0
C      1  0.5008970000000  0.5655280000000  0.5755020000000 1.0
C      1  0.5590170000000  0.4664820000000  0.5719490000000 1.0
C      1  0.5610660000000  0.4612610000000  0.4851120000000 1.0
C      1  0.4020120000000  0.4750800000000  0.4898220000000 1.0
C      1  0.5157920000000  0.5827490000000  0.4876040000000 1.0
C      1  0.5568600000000  0.4615600000000  0.5135240000000 1.0
C      1  0.4028430000000  0.4764710000000  0.5170360000000 1.0
C      1  0.5100350000000  0.5760860000000  0.5145110000000 1.0
C      1  0.5647920000000  0.5039790000000  0.5383090000000 1.0
C      1  0.4734570000000  0.4333320000000  0.5215640000000 1.0
C      1  0.4642210000000  0.5542890000000  0.5213910000000 1.0
C      1  0.5780380000000  0.5088280000000  0.4880770000000 1.0
C      1  0.4747570000000  0.4376230000000  0.4734550000000 1.0
C      1  0.4627390000000  0.5498770000000  0.4737170000000 1.0
C      1  0.4778250000000  0.5190940000000  0.5738670000000 1.0
C      1  0.5283960000000  0.5100690000000  0.5719090000000 1.0
C      1  0.4960540000000  0.4724100000000  0.5764800000000 1.0
C      1  0.4744480000000  0.5170140000000  0.4285760000000 1.0
C      1  0.5236960000000  0.5088290000000  0.4238600000000 1.0
C      1  0.4923770000000  0.4687120000000  0.4266400000000 1.0
C      1  0.4288080000000  0.4887720000000  0.4460900000000 1.0
C      1  0.5256430000000  0.5604500000000  0.4432150000000 1.0
C      1  0.5430020000000  0.4463650000000  0.4403950000000 1.0
C      1  0.4313510000000  0.4931280000000  0.5582210000000 1.0
C      1  0.5232790000000  0.5625580000000  0.5582650000000 1.0
C      1  0.5418750000000  0.4466830000000  0.5586600000000 1.0
C      1  0.4622400000000  0.4259580000000  0.4961370000000 1.0
C      1  0.5855770000000  0.5037870000000  0.5153990000000 1.0
C      1  0.4563350000000  0.5656180000000  0.4964190000000 1.0
C      1  0.5010430000000  0.5010100000000  0.5788720000000 1.0
C      1  0.4964590000000  0.4977460000000  0.4228920000000 1.0
END
