TITL C-3623288-6813-1668 -2.87441293652705e-07 125000 -562.862345766065 0 0 92 (C1) n - 1
REM
REM in /home/nfs/bkarasulu/CARBON/AIRSS/Generating-Clusters/LCBOP/Higher-Symm/SD-CG/FIRE-CG
REM
REM
REM
REM
REM
REM ./C.cell (b20cbc046b6831c77cfcea5457e17084)
REM AIRSS Version 0.9.1 bugfix July 2018 build 013d7b7c2542+ Fri, 06 Jul 2018 19:26:36 +0100
REM compiler GCC version 9.2.1 20190827 (Red Hat 9.2.1-1)
REM options -cpp -mtune=generic -march=x86-64 -g -O0 -fpre-include=/usr/include/finclude/math-vector-fortran.h
REM seed 821588235 -983933074 -1782622593 -1141379573 167568047 364809397 -1634177544 1325115350 1538587853 1534429965 -265774684 -699388857 440656121 1715079593 2089741322 -206769504 -1720629565 -2026782660 -10246933 966402130 593705041 -712910761 536186053 57471072 174119566 1764155691 -1289938028 -1146767500 -357838287 -1387164856 -1350396699 1824766154 -411760384
REM
CELL 1.54180   50.00000   50.00000   50.00000   90.00000   90.00000   90.00000
LATT -1
SFAC C  
C      1  0.4109780000000  0.4743920000000  0.5166770000000 1.0
C      1  0.5894870000000  0.5241590000000  0.4829560000000 1.0
C      1  0.4923590000000  0.4480890000000  0.5353400000000 1.0
C      1  0.5101950000000  0.5568770000000  0.4628970000000 1.0
C      1  0.4074900000000  0.5047690000000  0.4488650000000 1.0
C      1  0.5924080000000  0.4968110000000  0.5517540000000 1.0
C      1  0.4283970000000  0.4863290000000  0.5359160000000 1.0
C      1  0.5704790000000  0.5128810000000  0.4646980000000 1.0
C      1  0.5660570000000  0.5408720000000  0.5487710000000 1.0
C      1  0.4334280000000  0.4602400000000  0.4503730000000 1.0
C      1  0.3950510000000  0.5123300000000  0.3999320000000 1.0
C      1  0.6035590000000  0.4908660000000  0.6012150000000 1.0
C      1  0.4682380000000  0.4562900000000  0.5203900000000 1.0
C      1  0.5349990000000  0.5498030000000  0.4778730000000 1.0
C      1  0.4803390000000  0.4181420000000  0.4949220000000 1.0
C      1  0.5196120000000  0.5847290000000  0.5058340000000 1.0
C      1  0.4882880000000  0.4763930000000  0.4441250000000 1.0
C      1  0.5116990000000  0.5233330000000  0.5534340000000 1.0
C      1  0.4465840000000  0.6241960000000  0.5419110000000 1.0
C      1  0.5454110000000  0.3693320000000  0.4585490000000 1.0
C      1  0.4263450000000  0.5253980000000  0.4893270000000 1.0
C      1  0.5750850000000  0.4750300000000  0.5114800000000 1.0
C      1  0.5249870000000  0.5050590000000  0.4111040000000 1.0
C      1  0.4775100000000  0.4937240000000  0.5924620000000 1.0
C      1  0.4123990000000  0.5059060000000  0.4203270000000 1.0
C      1  0.5867140000000  0.4962260000000  0.5801060000000 1.0
C      1  0.4626210000000  0.6186800000000  0.5184720000000 1.0
C      1  0.5316400000000  0.3778180000000  0.4825610000000 1.0
C      1  0.4565050000000  0.4803260000000  0.5311940000000 1.0
C      1  0.5443960000000  0.5243090000000  0.4682410000000 1.0
C      1  0.5197670000000  0.5480780000000  0.5460940000000 1.0
C      1  0.4798910000000  0.4517000000000  0.4514180000000 1.0
C      1  0.4748390000000  0.4995220000000  0.4528370000000 1.0
C      1  0.5250360000000  0.4999710000000  0.5452880000000 1.0
C      1  0.5164890000000  0.5294590000000  0.4181640000000 1.0
C      1  0.4855720000000  0.4701390000000  0.5829080000000 1.0
C      1  0.4712290000000  0.5054820000000  0.5255380000000 1.0
C      1  0.5240120000000  0.5048760000000  0.4718660000000 1.0
C      1  0.4273430000000  0.5154730000000  0.5397780000000 1.0
C      1  0.5702520000000  0.4840180000000  0.4617570000000 1.0
C      1  0.5082690000000  0.4189330000000  0.5003770000000 1.0
C      1  0.4919120000000  0.5820830000000  0.4998680000000 1.0
C      1  0.4614150000000  0.5511170000000  0.5488470000000 1.0
C      1  0.5438530000000  0.4438280000000  0.4524410000000 1.0
C      1  0.4392470000000  0.4991480000000  0.4890270000000 1.0
C      1  0.5606470000000  0.5001810000000  0.5102210000000 1.0
C      1  0.5259290000000  0.4062020000000  0.4828330000000 1.0
C      1  0.4728430000000  0.5916160000000  0.5179680000000 1.0
C      1  0.5815600000000  0.4724350000000  0.5392530000000 1.0
C      1  0.4194180000000  0.5287350000000  0.4616590000000 1.0
C      1  0.5327880000000  0.4998180000000  0.5176810000000 1.0
C      1  0.4669770000000  0.4992210000000  0.4802990000000 1.0
C      1  0.4618070000000  0.5782960000000  0.5418280000000 1.0
C      1  0.5382560000000  0.4170390000000  0.4583700000000 1.0
C      1  0.4557040000000  0.4487870000000  0.4671760000000 1.0
C      1  0.5444290000000  0.5526680000000  0.5315610000000 1.0
C      1  0.4609710000000  0.5515560000000  0.4752180000000 1.0
C      1  0.5420200000000  0.4474310000000  0.5245160000000 1.0
C      1  0.5419930000000  0.4851020000000  0.5630370000000 1.0
C      1  0.4579400000000  0.5153780000000  0.4359520000000 1.0
C      1  0.5868450000000  0.5233500000000  0.5375970000000 1.0
C      1  0.4124010000000  0.4774090000000  0.4620280000000 1.0
C      1  0.4659490000000  0.5409600000000  0.5747700000000 1.0
C      1  0.5369020000000  0.4570340000000  0.4284450000000 1.0
C      1  0.5320560000000  0.4794590000000  0.4145740000000 1.0
C      1  0.4705920000000  0.5193830000000  0.5898600000000 1.0
C      1  0.4856940000000  0.5031290000000  0.5012770000000 1.0
C      1  0.5131440000000  0.5005590000000  0.4973760000000 1.0
C      1  0.5383390000000  0.5627720000000  0.5044440000000 1.0
C      1  0.4629610000000  0.4412500000000  0.4949790000000 1.0
C      1  0.4920670000000  0.4535830000000  0.5629720000000 1.0
C      1  0.5099110000000  0.5485650000000  0.4358140000000 1.0
C      1  0.5585270000000  0.4545140000000  0.5001200000000 1.0
C      1  0.4467600000000  0.5428840000000  0.5005310000000 1.0
C      1  0.5579980000000  0.4593070000000  0.4715160000000 1.0
C      1  0.4525300000000  0.5308950000000  0.5287960000000 1.0
C      1  0.4179960000000  0.4796280000000  0.4899740000000 1.0
C      1  0.5820100000000  0.5201220000000  0.5097130000000 1.0
C      1  0.6194950000000  0.4857600000000  0.6211920000000 1.0
C      1  0.3786380000000  0.5184520000000  0.3806380000000 1.0
C      1  0.5532460000000  0.3444430000000  0.4514580000000 1.0
C      1  0.4343690000000  0.6472520000000  0.5489980000000 1.0
C      1  0.5584200000000  0.5027340000000  0.5803950000000 1.0
C      1  0.4403870000000  0.4985520000000  0.4189590000000 1.0
C      1  0.4864530000000  0.5646720000000  0.4774830000000 1.0
C      1  0.5153340000000  0.4372030000000  0.5215230000000 1.0
C      1  0.5547140000000  0.4622200000000  0.5491900000000 1.0
C      1  0.4463670000000  0.5380750000000  0.4510790000000 1.0
C      1  0.5569430000000  0.5312200000000  0.5746810000000 1.0
C      1  0.4417070000000  0.4700020000000  0.4242300000000 1.0
C      1  0.4468900000000  0.5988520000000  0.5558760000000 1.0
C      1  0.5486920000000  0.3941630000000  0.4440280000000 1.0
END
