TITL C-3623286-7563-294 292760.864482219 125000 -715.770208313144 0 0 118 (C1) n - 1
REM
REM in /home/nfs/bkarasulu/CARBON/AIRSS/Generating-Clusters/LCBOP/Higher-Symm/SD-CG/FIRE-CG
REM
REM
REM
REM
REM
REM ./C.cell (b20cbc046b6831c77cfcea5457e17084)
REM AIRSS Version 0.9.1 bugfix July 2018 build 013d7b7c2542+ Fri, 06 Jul 2018 19:26:36 +0100
REM compiler GCC version 9.2.1 20190827 (Red Hat 9.2.1-1)
REM options -cpp -mtune=generic -march=x86-64 -g -O0 -fpre-include=/usr/include/finclude/math-vector-fortran.h
REM seed -384334412 480780211 -1060498440 2108714870 -748010396 -812352949 -1070392943 682759943 2081050253 -644483945 1747577066 2007647656 -1974688102 -1783585895 628302439 -2007028205 -1632207091 2057168928 -942920448 1585798091 -1141372818 -1326890272 1839481678 -343039811 1899980539 1858850667 720798805 -1800826915 406805694 -1377257240 -408335566 -908502224 1951773944
REM
CELL 1.54180   50.00000   50.00000   50.00000   90.00000   90.00000   90.00000
LATT -1
SFAC C  
C      1  0.5447990000000  0.5100720000000  0.4594450000000 1.0
C      1  0.5464150000000  0.5439740000000  0.5019330000000 1.0
C      1  0.5820220000000  0.4702310000000  0.5447350000000 1.0
C      1  0.4354590000000  0.5400090000000  0.4617380000000 1.0
C      1  0.4402700000000  0.5159360000000  0.5508520000000 1.0
C      1  0.4378120000000  0.4486850000000  0.4872850000000 1.0
C      1  0.4892510000000  0.5351300000000  0.4402670000000 1.0
C      1  0.4979220000000  0.5233780000000  0.5530580000000 1.0
C      1  0.4932450000000  0.4395130000000  0.4983180000000 1.0
C      1  0.4966280000000  0.4974900000000  0.4661320000000 1.0
C      1  0.5036210000000  0.5055600000000  0.5119050000000 1.0
C      1  0.4993720000000  0.4872290000000  0.4918130000000 1.0
C      1  0.4837380000000  0.5041200000000  0.5341820000000 1.0
C      1  0.4832950000000  0.4657340000000  0.4965880000000 1.0
C      1  0.4811610000000  0.5236610000000  0.4670890000000 1.0
C      1  0.5182580000000  0.4514920000000  0.5689850000000 1.0
C      1  0.5126740000000  0.4659500000000  0.4215090000000 1.0
C      1  0.5302840000000  0.5902900000000  0.5072980000000 1.0
C      1  0.4685740000000  0.4233560000000  0.4563580000000 1.0
C      1  0.4738210000000  0.5751730000000  0.4545810000000 1.0
C      1  0.4727550000000  0.5042890000000  0.5882300000000 1.0
C      1  0.5660380000000  0.4231910000000  0.5517460000000 1.0
C      1  0.5655170000000  0.4859570000000  0.4106660000000 1.0
C      1  0.5678500000000  0.5539420000000  0.5406800000000 1.0
C      1  0.4716520000000  0.4212950000000  0.5050920000000 1.0
C      1  0.4655270000000  0.5389660000000  0.4246790000000 1.0
C      1  0.4777670000000  0.5425920000000  0.5621140000000 1.0
C      1  0.4505250000000  0.5128870000000  0.4672930000000 1.0
C      1  0.4558160000000  0.5165750000000  0.5239800000000 1.0
C      1  0.4539930000000  0.4684550000000  0.5040730000000 1.0
C      1  0.3984160000000  0.4998710000000  0.5325890000000 1.0
C      1  0.3962000000000  0.4740640000000  0.4898450000000 1.0
C      1  0.3973920000000  0.5243770000000  0.4883270000000 1.0
C      1  0.4106380000000  0.5452940000000  0.4743990000000 1.0
C      1  0.4174340000000  0.4990510000000  0.5535280000000 1.0
C      1  0.4112200000000  0.4529310000000  0.4785660000000 1.0
C      1  0.5116130000000  0.4178860000000  0.4334640000000 1.0
C      1  0.5157960000000  0.5967050000000  0.4600220000000 1.0
C      1  0.5114060000000  0.4822690000000  0.6077000000000 1.0
C      1  0.5410890000000  0.4170410000000  0.5395340000000 1.0
C      1  0.5433820000000  0.5039830000000  0.4046580000000 1.0
C      1  0.5448010000000  0.5658310000000  0.5532300000000 1.0
C      1  0.5255880000000  0.5802990000000  0.5346850000000 1.0
C      1  0.5174290000000  0.4235090000000  0.5561820000000 1.0
C      1  0.5154120000000  0.4920640000000  0.4040930000000 1.0
C      1  0.4521170000000  0.4949430000000  0.4375960000000 1.0
C      1  0.4653820000000  0.5450160000000  0.5166290000000 1.0
C      1  0.4584170000000  0.4571870000000  0.5334200000000 1.0
C      1  0.5400950000000  0.4518530000000  0.4243750000000 1.0
C      1  0.5535740000000  0.5971440000000  0.4893520000000 1.0
C      1  0.5417260000000  0.4709420000000  0.5766100000000 1.0
C      1  0.4707450000000  0.4747550000000  0.5782400000000 1.0
C      1  0.4687370000000  0.4425090000000  0.4337130000000 1.0
C      1  0.4828050000000  0.5727830000000  0.4827900000000 1.0
C      1  0.5083210000000  0.5320890000000  0.5040940000000 1.0
C      1  0.5062380000000  0.4659330000000  0.5454070000000 1.0
C      1  0.4947280000000  0.4790370000000  0.4445770000000 1.0
C      1  0.3927430000000  0.5959730000000  0.4770140000000 1.0
C      1  0.4426990000000  0.4656580000000  0.5819790000000 1.0
C      1  0.3924190000000  0.4248850000000  0.4366560000000 1.0
C      1  0.5656260000000  0.5358740000000  0.5193780000000 1.0
C      1  0.5825760000000  0.4442640000000  0.5509930000000 1.0
C      1  0.5736510000000  0.5180040000000  0.4668890000000 1.0
C      1  0.4579700000000  0.5244430000000  0.5728180000000 1.0
C      1  0.4540570000000  0.4251280000000  0.4815910000000 1.0
C      1  0.4516510000000  0.5570500000000  0.4435390000000 1.0
C      1  0.5018040000000  0.5062170000000  0.5941560000000 1.0
C      1  0.4979070000000  0.4169860000000  0.4586720000000 1.0
C      1  0.5020990000000  0.5782860000000  0.4419690000000 1.0
C      1  0.5545510000000  0.5081550000000  0.6087670000000 1.0
C      1  0.5593860000000  0.4270250000000  0.4594310000000 1.0
C      1  0.5819110000000  0.5414400000000  0.4524010000000 1.0
C      1  0.5772580000000  0.5067670000000  0.6251690000000 1.0
C      1  0.5745180000000  0.4536910000000  0.4554840000000 1.0
C      1  0.5876990000000  0.5646790000000  0.4676420000000 1.0
C      1  0.5316700000000  0.5363420000000  0.4557050000000 1.0
C      1  0.5425050000000  0.4949620000000  0.5583760000000 1.0
C      1  0.5264580000000  0.4577670000000  0.4717540000000 1.0
C      1  0.4623810000000  0.5118050000000  0.4150290000000 1.0
C      1  0.4756050000000  0.5604390000000  0.5399380000000 1.0
C      1  0.4678240000000  0.4280420000000  0.5332840000000 1.0
C      1  0.5658090000000  0.4642170000000  0.4284540000000 1.0
C      1  0.5778270000000  0.5832290000000  0.4847220000000 1.0
C      1  0.6003890000000  0.5049660000000  0.6370420000000 1.0
C      1  0.5106480000000  0.4345000000000  0.4776490000000 1.0
C      1  0.5126700000000  0.5505160000000  0.4396290000000 1.0
C      1  0.5180070000000  0.5116290000000  0.5690720000000 1.0
C      1  0.5417850000000  0.6072850000000  0.4646410000000 1.0
C      1  0.5401140000000  0.4831310000000  0.6035770000000 1.0
C      1  0.5393190000000  0.4252170000000  0.4366630000000 1.0
C      1  0.5651150000000  0.4924280000000  0.5394470000000 1.0
C      1  0.5420610000000  0.4818530000000  0.4697800000000 1.0
C      1  0.5361900000000  0.5493720000000  0.4796520000000 1.0
C      1  0.5798180000000  0.4989970000000  0.4890770000000 1.0
C      1  0.5727460000000  0.5083380000000  0.5166470000000 1.0
C      1  0.5706040000000  0.4738500000000  0.4765260000000 1.0
C      1  0.4875160000000  0.5028380000000  0.4006160000000 1.0
C      1  0.4972840000000  0.5787340000000  0.5397750000000 1.0
C      1  0.4894510000000  0.4174800000000  0.5497250000000 1.0
C      1  0.4971290000000  0.4609730000000  0.5912790000000 1.0
C      1  0.4950060000000  0.4389240000000  0.4189620000000 1.0
C      1  0.5063570000000  0.5894700000000  0.4880290000000 1.0
C      1  0.3999890000000  0.5710830000000  0.4743330000000 1.0
C      1  0.4204760000000  0.4775600000000  0.5717610000000 1.0
C      1  0.4003170000000  0.4373420000000  0.4581420000000 1.0
C      1  0.5479920000000  0.5341320000000  0.5970380000000 1.0
C      1  0.5548420000000  0.4158970000000  0.4859020000000 1.0
C      1  0.5717590000000  0.5422650000000  0.4253670000000 1.0
C      1  0.3928310000000  0.4989130000000  0.4762940000000 1.0
C      1  0.3949060000000  0.5235470000000  0.5168030000000 1.0
C      1  0.3923210000000  0.4761480000000  0.5179890000000 1.0
C      1  0.4839810000000  0.5441080000000  0.4916570000000 1.0
C      1  0.4784310000000  0.4765370000000  0.5473710000000 1.0
C      1  0.4664050000000  0.4705620000000  0.4397940000000 1.0
C      1  0.5439610000000  0.4130340000000  0.5109310000000 1.0
C      1  0.5531750000000  0.5307330000000  0.4088300000000 1.0
C      1  0.5418200000000  0.5547420000000  0.5799190000000 1.0
C      1  0.4482460000000  0.4991740000000  0.4983430000000 1.0
END
