TITL C-3623284-6838-1301 52.2810111652843 125000 -1023.23632954426 0 0 169 (C1) n - 1
REM
REM in /home/nfs/bkarasulu/CARBON/AIRSS/Generating-Clusters/LCBOP/Higher-Symm/SD-CG/FIRE-CG
REM
REM
REM
REM
REM
REM ./C.cell (b20cbc046b6831c77cfcea5457e17084)
REM AIRSS Version 0.9.1 bugfix July 2018 build 013d7b7c2542+ Fri, 06 Jul 2018 19:26:36 +0100
REM compiler GCC version 9.2.1 20190827 (Red Hat 9.2.1-1)
REM options -cpp -mtune=generic -march=x86-64 -g -O0 -fpre-include=/usr/include/finclude/math-vector-fortran.h
REM seed -816934407 -575624535 355472758 2013657894 -1740933538 1773089788 -1320046375 -455541740 2063485583 248165319 2116872626 1666403733 -2091599255 1339166185 -555704025 1597485230 -2043359892 -1488267585 -1536896571 -316091987 -1022588244 1531713093 -2094091490 -166000690 -146155783 1033512435 931658871 1849726454 -1657043662 1675318891 1317283880 -1604033048 1179554196
REM
CELL 1.54180   50.00000   50.00000   50.00000   90.00000   90.00000   90.00000
LATT -1
SFAC C  
C      1  0.5595210000000  0.5126660000000  0.4869870000000 1.0
C      1  0.3847340000000  0.4218740000000  0.4553740000000 1.0
C      1  0.6715660000000  0.5162900000000  0.5449230000000 1.0
C      1  0.4654590000000  0.5634720000000  0.5150820000000 1.0
C      1  0.5286700000000  0.5130560000000  0.5782980000000 1.0
C      1  0.5120520000000  0.5346200000000  0.5892450000000 1.0
C      1  0.4692250000000  0.5839740000000  0.5677400000000 1.0
C      1  0.5550420000000  0.4451510000000  0.5135760000000 1.0
C      1  0.5508430000000  0.5885540000000  0.4404890000000 1.0
C      1  0.4131850000000  0.4534080000000  0.4300030000000 1.0
C      1  0.5527670000000  0.6245840000000  0.4903740000000 1.0
C      1  0.5317490000000  0.3911900000000  0.4636260000000 1.0
C      1  0.4683150000000  0.3983480000000  0.4513320000000 1.0
C      1  0.4504420000000  0.4353400000000  0.4765710000000 1.0
C      1  0.5415160000000  0.4617200000000  0.4893160000000 1.0
C      1  0.5732050000000  0.4311840000000  0.4309320000000 1.0
C      1  0.5994070000000  0.4380490000000  0.4982910000000 1.0
C      1  0.5019370000000  0.5409600000000  0.4895400000000 1.0
C      1  0.4303480000000  0.4402680000000  0.5689090000000 1.0
C      1  0.5697640000000  0.5455900000000  0.4530740000000 1.0
C      1  0.5310450000000  0.4313200000000  0.5248580000000 1.0
C      1  0.4396860000000  0.4614680000000  0.4233360000000 1.0
C      1  0.5171990000000  0.5527080000000  0.4449510000000 1.0
C      1  0.5299170000000  0.4151060000000  0.4780480000000 1.0
C      1  0.5601260000000  0.4700780000000  0.5315970000000 1.0
C      1  0.4309580000000  0.5399240000000  0.4116000000000 1.0
C      1  0.4086130000000  0.5543910000000  0.6020990000000 1.0
C      1  0.5168950000000  0.5623080000000  0.5838610000000 1.0
C      1  0.6013690000000  0.5676510000000  0.4972730000000 1.0
C      1  0.6954310000000  0.5063150000000  0.5481750000000 1.0
C      1  0.4666070000000  0.5107690000000  0.6048780000000 1.0
C      1  0.4973080000000  0.6023990000000  0.5322100000000 1.0
C      1  0.4810530000000  0.3939480000000  0.5294730000000 1.0
C      1  0.4532370000000  0.4999370000000  0.5239680000000 1.0
C      1  0.4879920000000  0.4467090000000  0.4335150000000 1.0
C      1  0.4887550000000  0.5165200000000  0.4931280000000 1.0
C      1  0.4809240000000  0.5843410000000  0.4362700000000 1.0
C      1  0.4941650000000  0.5053520000000  0.4028140000000 1.0
C      1  0.3918040000000  0.4516450000000  0.5331280000000 1.0
C      1  0.5974300000000  0.5123570000000  0.5834480000000 1.0
C      1  0.6169870000000  0.5140950000000  0.6029280000000 1.0
C      1  0.5165450000000  0.4938460000000  0.4154010000000 1.0
C      1  0.5289760000000  0.4425010000000  0.4679110000000 1.0
C      1  0.4434300000000  0.5967100000000  0.4678240000000 1.0
C      1  0.5160040000000  0.4827190000000  0.4410100000000 1.0
C      1  0.4546430000000  0.5900120000000  0.5185920000000 1.0
C      1  0.5434040000000  0.5703450000000  0.5802840000000 1.0
C      1  0.5171900000000  0.4549430000000  0.3914570000000 1.0
C      1  0.5055160000000  0.6203330000000  0.4714020000000 1.0
C      1  0.4154770000000  0.5466460000000  0.4847410000000 1.0
C      1  0.5272590000000  0.6299070000000  0.4840740000000 1.0
C      1  0.4593620000000  0.4895240000000  0.4631320000000 1.0
C      1  0.5287840000000  0.4767940000000  0.5380590000000 1.0
C      1  0.3813390000000  0.4922120000000  0.4422070000000 1.0
C      1  0.5660100000000  0.5331790000000  0.5289840000000 1.0
C      1  0.4587440000000  0.5453390000000  0.5350630000000 1.0
C      1  0.5824810000000  0.4668460000000  0.5905660000000 1.0
C      1  0.4704300000000  0.4759290000000  0.5607220000000 1.0
C      1  0.5025000000000  0.4914310000000  0.4867030000000 1.0
C      1  0.5516560000000  0.5355310000000  0.4732300000000 1.0
C      1  0.5797050000000  0.4286830000000  0.5159930000000 1.0
C      1  0.4475980000000  0.4909280000000  0.4152850000000 1.0
C      1  0.5194270000000  0.6019130000000  0.3996370000000 1.0
C      1  0.4407530000000  0.4542820000000  0.5919280000000 1.0
C      1  0.3754020000000  0.5407410000000  0.5443120000000 1.0
C      1  0.5243870000000  0.4292150000000  0.4041360000000 1.0
C      1  0.4398840000000  0.5183230000000  0.5931770000000 1.0
C      1  0.4328340000000  0.4883510000000  0.4723510000000 1.0
C      1  0.4917660000000  0.5632290000000  0.5039500000000 1.0
C      1  0.5226210000000  0.4953760000000  0.4645330000000 1.0
C      1  0.5239090000000  0.5413420000000  0.4713360000000 1.0
C      1  0.6010900000000  0.5290250000000  0.5599270000000 1.0
C      1  0.3948180000000  0.4976360000000  0.5353380000000 1.0
C      1  0.6133900000000  0.5530980000000  0.5171970000000 1.0
C      1  0.3858500000000  0.5609710000000  0.6129480000000 1.0
C      1  0.4329980000000  0.5465460000000  0.5904950000000 1.0
C      1  0.3926460000000  0.4477560000000  0.4490790000000 1.0
C      1  0.5097110000000  0.5818880000000  0.5167310000000 1.0
C      1  0.5909240000000  0.4667810000000  0.4630910000000 1.0
C      1  0.5738350000000  0.6080870000000  0.4891790000000 1.0
C      1  0.5036910000000  0.4792560000000  0.6172630000000 1.0
C      1  0.5121120000000  0.4545690000000  0.4459850000000 1.0
C      1  0.5441350000000  0.5995860000000  0.4147130000000 1.0
C      1  0.3846110000000  0.4755380000000  0.5176960000000 1.0
C      1  0.5132770000000  0.3799210000000  0.4475890000000 1.0
C      1  0.4718300000000  0.4006550000000  0.5025460000000 1.0
C      1  0.5725110000000  0.5742000000000  0.4544510000000 1.0
C      1  0.5773490000000  0.5264830000000  0.4331880000000 1.0
C      1  0.4482470000000  0.5673160000000  0.5778910000000 1.0
C      1  0.4605890000000  0.5195770000000  0.5440280000000 1.0
C      1  0.4620790000000  0.5121080000000  0.5003810000000 1.0
C      1  0.4228390000000  0.4737660000000  0.6025060000000 1.0
C      1  0.4624690000000  0.5064810000000  0.4407690000000 1.0
C      1  0.3920940000000  0.5251800000000  0.5291470000000 1.0
C      1  0.5174660000000  0.4138990000000  0.5054070000000 1.0
C      1  0.4443110000000  0.6008610000000  0.4946210000000 1.0
C      1  0.4767810000000  0.4463970000000  0.4842740000000 1.0
C      1  0.4701710000000  0.5988000000000  0.5422730000000 1.0
C      1  0.3976670000000  0.5113300000000  0.4296640000000 1.0
C      1  0.4796100000000  0.4740090000000  0.4772080000000 1.0
C      1  0.5304300000000  0.4834450000000  0.6140980000000 1.0
C      1  0.4729830000000  0.4868090000000  0.3961420000000 1.0
C      1  0.4059810000000  0.5367530000000  0.5076090000000 1.0
C      1  0.4205850000000  0.4969800000000  0.5851890000000 1.0
C      1  0.5846250000000  0.5836740000000  0.4796080000000 1.0
C      1  0.4772170000000  0.4833630000000  0.6072080000000 1.0
C      1  0.4087310000000  0.4870700000000  0.5595880000000 1.0
C      1  0.5612680000000  0.4861440000000  0.4049930000000 1.0
C      1  0.4947370000000  0.5791830000000  0.5796340000000 1.0
C      1  0.3950210000000  0.5367290000000  0.4426030000000 1.0
C      1  0.5720800000000  0.4986250000000  0.4287170000000 1.0
C      1  0.4935080000000  0.5939480000000  0.4099970000000 1.0
C      1  0.4667820000000  0.3867100000000  0.4780490000000 1.0
C      1  0.6472500000000  0.5263410000000  0.5418320000000 1.0
C      1  0.3794270000000  0.3975180000000  0.4629700000000 1.0
C      1  0.5775090000000  0.5423060000000  0.5528600000000 1.0
C      1  0.5878620000000  0.4217990000000  0.5659600000000 1.0
C      1  0.5347510000000  0.5706820000000  0.5216090000000 1.0
C      1  0.4885450000000  0.4630100000000  0.3863020000000 1.0
C      1  0.5747740000000  0.4941650000000  0.5893090000000 1.0
C      1  0.4225320000000  0.5109640000000  0.4129720000000 1.0
C      1  0.6023760000000  0.4242810000000  0.4731710000000 1.0
C      1  0.4096530000000  0.4563340000000  0.5556500000000 1.0
C      1  0.5912510000000  0.4395220000000  0.4514230000000 1.0
C      1  0.4881930000000  0.5538330000000  0.4396940000000 1.0
C      1  0.5176420000000  0.4449620000000  0.5449150000000 1.0
C      1  0.4449890000000  0.4516030000000  0.5213200000000 1.0
C      1  0.4767890000000  0.5042690000000  0.5610790000000 1.0
C      1  0.4890900000000  0.4247760000000  0.4977730000000 1.0
C      1  0.4528190000000  0.4229170000000  0.4508830000000 1.0
C      1  0.5955610000000  0.4672810000000  0.4934680000000 1.0
C      1  0.3805900000000  0.4710950000000  0.4610880000000 1.0
C      1  0.5249340000000  0.5815790000000  0.4507640000000 1.0
C      1  0.5344930000000  0.4784580000000  0.3986400000000 1.0
C      1  0.5204680000000  0.5250570000000  0.5335840000000 1.0
C      1  0.4488400000000  0.4208670000000  0.5582650000000 1.0
C      1  0.6211450000000  0.5359730000000  0.5398320000000 1.0
C      1  0.5189050000000  0.4771290000000  0.5076250000000 1.0
C      1  0.4880520000000  0.5293340000000  0.6033620000000 1.0
C      1  0.5244740000000  0.5035040000000  0.5515420000000 1.0
C      1  0.5053090000000  0.4256420000000  0.5871750000000 1.0
C      1  0.5710160000000  0.4835010000000  0.4528870000000 1.0
C      1  0.4565320000000  0.4732140000000  0.5348580000000 1.0
C      1  0.4925830000000  0.3945240000000  0.4344910000000 1.0
C      1  0.5462800000000  0.4983520000000  0.5952860000000 1.0
C      1  0.4405820000000  0.5531030000000  0.4387110000000 1.0
C      1  0.5852330000000  0.4157100000000  0.5401090000000 1.0
C      1  0.5037680000000  0.4102030000000  0.4125270000000 1.0
C      1  0.5206540000000  0.6121800000000  0.3741680000000 1.0
C      1  0.5096020000000  0.3897800000000  0.5232540000000 1.0
C      1  0.5310470000000  0.5421780000000  0.4206370000000 1.0
C      1  0.5502120000000  0.4876610000000  0.4735950000000 1.0
C      1  0.4167460000000  0.5480980000000  0.4568290000000 1.0
C      1  0.4664980000000  0.4657740000000  0.5872160000000 1.0
C      1  0.5012730000000  0.5975970000000  0.4558210000000 1.0
C      1  0.4202900000000  0.4693220000000  0.4860330000000 1.0
C      1  0.4757460000000  0.4139660000000  0.5502930000000 1.0
C      1  0.4660480000000  0.5355020000000  0.4421550000000 1.0
C      1  0.4517140000000  0.5823550000000  0.4444060000000 1.0
C      1  0.4602040000000  0.4425720000000  0.4314390000000 1.0
C      1  0.3766430000000  0.4747110000000  0.4898410000000 1.0
C      1  0.5660220000000  0.5620290000000  0.5689230000000 1.0
C      1  0.5400060000000  0.5435050000000  0.5257230000000 1.0
C      1  0.4988790000000  0.4296850000000  0.5605820000000 1.0
C      1  0.5815060000000  0.4842600000000  0.5161940000000 1.0
C      1  0.5867230000000  0.4415170000000  0.5838080000000 1.0
C      1  0.5510690000000  0.4272250000000  0.4155600000000 1.0
C      1  0.4331500000000  0.4467460000000  0.4960030000000 1.0
C      1  0.5734250000000  0.5116070000000  0.5113250000000 1.0
END
