TITL C-3623286-7563-2007 1.06676789185151e-06 125000 -47.4318351714126 0 0 10 (C2) n - 1
REM
REM in /home/nfs/bkarasulu/CARBON/AIRSS/Generating-Clusters/LCBOP/Higher-Symm/SD-CG/FIRE-CG
REM
REM
REM
REM
REM
REM ./C.cell (b20cbc046b6831c77cfcea5457e17084)
REM AIRSS Version 0.9.1 bugfix July 2018 build 013d7b7c2542+ Fri, 06 Jul 2018 19:26:36 +0100
REM compiler GCC version 9.2.1 20190827 (Red Hat 9.2.1-1)
REM options -cpp -mtune=generic -march=x86-64 -g -O0 -fpre-include=/usr/include/finclude/math-vector-fortran.h
REM seed 1576715649 1719187494 -46463773 -553651325 -844201375 -1178312590 -883454156 -403116484 274676535 2110658942 -1548373212 -1944728755 -1160744189 -1291196415 319357237 -1240965156 135239415 -1862645937 1044450328 -62341069 -507871538 1196324103 1587008142 -1790545101 1702574155 1813991999 -717989982 1864280245 1968304959 1730978457 2121351565 -1538143960 783806300
REM
CELL 1.54180   50.00000   50.00000   50.00000   90.00000   90.00000   90.00000
LATT -1
SFAC C  
C      1  0.4724040000000  0.4680990000000  0.4934290000000 1.0
C      1  0.4724040000000  0.5319010000000  0.5065710000000 1.0
C      1  0.5071290000000  0.4907950000000  0.4683660000000 1.0
C      1  0.5071290000000  0.5092050000000  0.5316340000000 1.0
C      1  0.4893020000000  0.5105680000000  0.5095060000000 1.0
C      1  0.4893020000000  0.4894320000000  0.4904940000000 1.0
C      1  0.4992380000000  0.5035560000000  0.4454520000000 1.0
C      1  0.4992380000000  0.4964440000000  0.5545480000000 1.0
C      1  0.5319270000000  0.5206780000000  0.5297090000000 1.0
C      1  0.5319270000000  0.4793220000000  0.4702910000000 1.0
END
