TITL C-3623289-7120-275 322560.403593595 125000 -600.228028144517 0 0 103 (C1) n - 1
REM
REM in /home/nfs/bkarasulu/CARBON/AIRSS/Generating-Clusters/LCBOP/Higher-Symm/SD-CG/FIRE-CG
REM
REM
REM
REM
REM
REM ./C.cell (b20cbc046b6831c77cfcea5457e17084)
REM AIRSS Version 0.9.1 bugfix July 2018 build 013d7b7c2542+ Fri, 06 Jul 2018 19:26:36 +0100
REM compiler GCC version 9.2.1 20190827 (Red Hat 9.2.1-1)
REM options -cpp -mtune=generic -march=x86-64 -g -O0 -fpre-include=/usr/include/finclude/math-vector-fortran.h
REM seed -1076730982 -458494750 -519401066 1372431588 2050682023 1595865917 1183851071 -1082915426 -861704675 434278726 1900784037 1469117006 1988460289 -1161904065 -340645235 -2045518435 2066784333 -1359568718 2051233628 -1753177420 -200436511 1910722792 -481000918 -974818323 125835001 -1297680167 469151490 1430029450 -60936897 823632419 855788634 145096299 1689482868
REM
CELL 1.54180   50.00000   50.00000   50.00000   90.00000   90.00000   90.00000
LATT -1
SFAC C  
C      1  0.4407460000000  0.4529960000000  0.4490770000000 1.0
C      1  0.4384860000000  0.5448930000000  0.5528100000000 1.0
C      1  0.5575950000000  0.4512200000000  0.4418630000000 1.0
C      1  0.5592250000000  0.5509960000000  0.5561210000000 1.0
C      1  0.5174640000000  0.4505300000000  0.5467180000000 1.0
C      1  0.5170680000000  0.5508850000000  0.4499610000000 1.0
C      1  0.4904670000000  0.4485250000000  0.5474890000000 1.0
C      1  0.4899060000000  0.5491610000000  0.4491750000000 1.0
C      1  0.4020500000000  0.4569310000000  0.5081820000000 1.0
C      1  0.4023680000000  0.5398860000000  0.4935550000000 1.0
C      1  0.6021740000000  0.4647790000000  0.5103050000000 1.0
C      1  0.5997280000000  0.5466000000000  0.4989130000000 1.0
C      1  0.4797420000000  0.4905710000000  0.5262100000000 1.0
C      1  0.4805450000000  0.5096150000000  0.4773770000000 1.0
C      1  0.5229440000000  0.4942930000000  0.5257490000000 1.0
C      1  0.5238250000000  0.5108100000000  0.4749860000000 1.0
C      1  0.5127520000000  0.4578350000000  0.4121130000000 1.0
C      1  0.5115310000000  0.5482560000000  0.5863650000000 1.0
C      1  0.4853700000000  0.4542700000000  0.4142420000000 1.0
C      1  0.4838730000000  0.5464750000000  0.5857290000000 1.0
C      1  0.5302620000000  0.4514750000000  0.4879850000000 1.0
C      1  0.5257540000000  0.5445750000000  0.5162110000000 1.0
C      1  0.4753030000000  0.4577440000000  0.4878350000000 1.0
C      1  0.4749930000000  0.5424520000000  0.5151280000000 1.0
C      1  0.4423230000000  0.5302350000000  0.4650530000000 1.0
C      1  0.4417370000000  0.4673210000000  0.5364790000000 1.0
C      1  0.5629910000000  0.5309970000000  0.4679350000000 1.0
C      1  0.5620810000000  0.4766260000000  0.5365930000000 1.0
C      1  0.5144550000000  0.4510990000000  0.4631930000000 1.0
C      1  0.5133030000000  0.5573480000000  0.5393120000000 1.0
C      1  0.4903630000000  0.4646570000000  0.4652390000000 1.0
C      1  0.4851750000000  0.5558320000000  0.5389440000000 1.0
C      1  0.5663500000000  0.5272590000000  0.5397380000000 1.0
C      1  0.5668680000000  0.4709530000000  0.4626940000000 1.0
C      1  0.4343830000000  0.5205770000000  0.5356990000000 1.0
C      1  0.4350060000000  0.4770120000000  0.4660660000000 1.0
C      1  0.4613770000000  0.5044310000000  0.5697930000000 1.0
C      1  0.4636680000000  0.4934400000000  0.4337860000000 1.0
C      1  0.5381810000000  0.5086850000000  0.5712110000000 1.0
C      1  0.5405050000000  0.4957400000000  0.4316400000000 1.0
C      1  0.5371580000000  0.4925230000000  0.5962240000000 1.0
C      1  0.5424130000000  0.5145730000000  0.4086060000000 1.0
C      1  0.4622700000000  0.4885670000000  0.5949850000000 1.0
C      1  0.4667160000000  0.5102710000000  0.4093470000000 1.0
C      1  0.5482730000000  0.4242380000000  0.4505300000000 1.0
C      1  0.5549140000000  0.5757470000000  0.5383290000000 1.0
C      1  0.4393100000000  0.4275570000000  0.4647890000000 1.0
C      1  0.4421310000000  0.5704700000000  0.5359000000000 1.0
C      1  0.4589330000000  0.5355920000000  0.5741870000000 1.0
C      1  0.4602900000000  0.4624590000000  0.4275130000000 1.0
C      1  0.5379640000000  0.5399300000000  0.5760400000000 1.0
C      1  0.5388120000000  0.4658260000000  0.4231000000000 1.0
C      1  0.4752460000000  0.3989530000000  0.4423310000000 1.0
C      1  0.4831220000000  0.6022960000000  0.5525950000000 1.0
C      1  0.5003120000000  0.4079450000000  0.4405450000000 1.0
C      1  0.5102900000000  0.6038210000000  0.5526810000000 1.0
C      1  0.4397720000000  0.5719440000000  0.5040760000000 1.0
C      1  0.4393730000000  0.4260780000000  0.4958330000000 1.0
C      1  0.5594820000000  0.5764120000000  0.5062760000000 1.0
C      1  0.5509900000000  0.4076980000000  0.4744200000000 1.0
C      1  0.4738810000000  0.6069090000000  0.4824000000000 1.0
C      1  0.4714450000000  0.3886960000000  0.5133620000000 1.0
C      1  0.5239460000000  0.6084440000000  0.4826630000000 1.0
C      1  0.5197870000000  0.3811570000000  0.5055330000000 1.0
C      1  0.5626710000000  0.5016690000000  0.5523330000000 1.0
C      1  0.5645060000000  0.4995420000000  0.4533790000000 1.0
C      1  0.4387230000000  0.4949930000000  0.5492860000000 1.0
C      1  0.4398820000000  0.5025070000000  0.4529400000000 1.0
C      1  0.5312460000000  0.4049200000000  0.4958980000000 1.0
C      1  0.5343140000000  0.5840220000000  0.4918410000000 1.0
C      1  0.4646350000000  0.4148200000000  0.5059860000000 1.0
C      1  0.4648860000000  0.5818120000000  0.4911650000000 1.0
C      1  0.5527910000000  0.5319210000000  0.5148470000000 1.0
C      1  0.5572220000000  0.4636170000000  0.4890970000000 1.0
C      1  0.4489930000000  0.5277370000000  0.5118850000000 1.0
C      1  0.4484800000000  0.4703100000000  0.4905130000000 1.0
C      1  0.4711370000000  0.5340350000000  0.4639060000000 1.0
C      1  0.4708730000000  0.4645640000000  0.5352360000000 1.0
C      1  0.5351590000000  0.5356220000000  0.4655630000000 1.0
C      1  0.5345300000000  0.4691890000000  0.5345760000000 1.0
C      1  0.4316410000000  0.5432260000000  0.4916680000000 1.0
C      1  0.4314240000000  0.4539940000000  0.5097990000000 1.0
C      1  0.5705400000000  0.5476660000000  0.4952860000000 1.0
C      1  0.5746300000000  0.4684860000000  0.5120880000000 1.0
C      1  0.5164820000000  0.4295390000000  0.5017270000000 1.0
C      1  0.5147200000000  0.5625640000000  0.4951100000000 1.0
C      1  0.4862650000000  0.4334610000000  0.5011750000000 1.0
C      1  0.4857360000000  0.5616410000000  0.4947050000000 1.0
C      1  0.5190430000000  0.4271300000000  0.4477710000000 1.0
C      1  0.5271330000000  0.5825200000000  0.5456640000000 1.0
C      1  0.4508460000000  0.4052120000000  0.4514660000000 1.0
C      1  0.4687340000000  0.5793560000000  0.5452280000000 1.0
C      1  0.3766650000000  0.4610060000000  0.5040050000000 1.0
C      1  0.3769490000000  0.5360050000000  0.4977110000000 1.0
C      1  0.6274130000000  0.4600360000000  0.5058790000000 1.0
C      1  0.6250260000000  0.5415260000000  0.5025060000000 1.0
C      1  0.5165070000000  0.4988370000000  0.4502260000000 1.0
C      1  0.5143600000000  0.5057410000000  0.5520540000000 1.0
C      1  0.4877160000000  0.4913610000000  0.4530030000000 1.0
C      1  0.4861010000000  0.5034030000000  0.5517220000000 1.0
C      1  0.4986400000000  0.6171760000000  0.4791790000000 1.0
C      1  0.4946060000000  0.3749660000000  0.5128280000000 1.0
C      1  0.5021050000000  0.5014830000000  0.5013660000000 1.0
END
