TITL C-3623284-6838-370 -6.60968846692014e-07 125000 -529.860093522342 0 0 87 (C1) n - 1
REM
REM in /home/nfs/bkarasulu/CARBON/AIRSS/Generating-Clusters/LCBOP/Higher-Symm/SD-CG/FIRE-CG
REM
REM
REM
REM
REM
REM ./C.cell (b20cbc046b6831c77cfcea5457e17084)
REM AIRSS Version 0.9.1 bugfix July 2018 build 013d7b7c2542+ Fri, 06 Jul 2018 19:26:36 +0100
REM compiler GCC version 9.2.1 20190827 (Red Hat 9.2.1-1)
REM options -cpp -mtune=generic -march=x86-64 -g -O0 -fpre-include=/usr/include/finclude/math-vector-fortran.h
REM seed 667694628 1755563590 1926529983 65220757 -636481963 2084505425 -1989354443 -368968350 773246028 1096440976 1686587685 1599320216 -1703509888 -1072693240 1565768789 2064262594 1075465423 230134199 253186121 574052239 215948005 -1118391633 191207961 -1298696604 221178616 -332561211 -458421749 337210846 1158430650 -1165214748 -1518578226 1158633744 -954030916
REM
CELL 1.54180   50.00000   50.00000   50.00000   90.00000   90.00000   90.00000
LATT -1
SFAC C  
C      1  0.5127080000000  0.4719180000000  0.5640780000000 1.0
C      1  0.4659590000000  0.4101540000000  0.4770440000000 1.0
C      1  0.5132430000000  0.5243030000000  0.4234100000000 1.0
C      1  0.4562990000000  0.5793410000000  0.5243550000000 1.0
C      1  0.6042980000000  0.4841980000000  0.5337090000000 1.0
C      1  0.3948410000000  0.4663380000000  0.4989020000000 1.0
C      1  0.6020630000000  0.5164120000000  0.4674020000000 1.0
C      1  0.3976890000000  0.5362250000000  0.4962080000000 1.0
C      1  0.4938420000000  0.5722360000000  0.4957760000000 1.0
C      1  0.4989260000000  0.5171940000000  0.5721920000000 1.0
C      1  0.4982840000000  0.4269820000000  0.5069280000000 1.0
C      1  0.4962640000000  0.4799590000000  0.4300200000000 1.0
C      1  0.5727730000000  0.4321020000000  0.4569460000000 1.0
C      1  0.4609890000000  0.5154240000000  0.4228770000000 1.0
C      1  0.5734720000000  0.5670490000000  0.5474810000000 1.0
C      1  0.4620940000000  0.4819080000000  0.5718410000000 1.0
C      1  0.5908460000000  0.5091990000000  0.5378030000000 1.0
C      1  0.4121190000000  0.4726410000000  0.5211390000000 1.0
C      1  0.5895700000000  0.4908610000000  0.4639250000000 1.0
C      1  0.4098660000000  0.5290010000000  0.4709500000000 1.0
C      1  0.5554590000000  0.4564650000000  0.5483580000000 1.0
C      1  0.4370250000000  0.4434550000000  0.4611690000000 1.0
C      1  0.5485710000000  0.5413640000000  0.4565070000000 1.0
C      1  0.4542180000000  0.5742110000000  0.5864730000000 1.0
C      1  0.5482220000000  0.5050800000000  0.5627910000000 1.0
C      1  0.4466320000000  0.4393860000000  0.5104300000000 1.0
C      1  0.5468670000000  0.4938460000000  0.4384090000000 1.0
C      1  0.4447360000000  0.5615330000000  0.4805640000000 1.0
C      1  0.5199280000000  0.4621250000000  0.4651300000000 1.0
C      1  0.4864860000000  0.5420590000000  0.4616210000000 1.0
C      1  0.5185920000000  0.5372420000000  0.5359270000000 1.0
C      1  0.4836710000000  0.4665390000000  0.5265510000000 1.0
C      1  0.5051960000000  0.4563650000000  0.5422320000000 1.0
C      1  0.4979810000000  0.4433260000000  0.4614360000000 1.0
C      1  0.5057670000000  0.5611040000000  0.4515850000000 1.0
C      1  0.4952560000000  0.5540380000000  0.5418300000000 1.0
C      1  0.4742440000000  0.4425940000000  0.5149220000000 1.0
C      1  0.5240920000000  0.4765110000000  0.4402420000000 1.0
C      1  0.4725220000000  0.5590310000000  0.4796250000000 1.0
C      1  0.5253320000000  0.5217450000000  0.5595490000000 1.0
C      1  0.5467700000000  0.4374640000000  0.5283600000000 1.0
C      1  0.4520570000000  0.4554220000000  0.4403650000000 1.0
C      1  0.5441850000000  0.5618670000000  0.4768120000000 1.0
C      1  0.4602190000000  0.5483990000000  0.5800730000000 1.0
C      1  0.4470970000000  0.4633760000000  0.5548310000000 1.0
C      1  0.5739230000000  0.4530570000000  0.4401010000000 1.0
C      1  0.4464980000000  0.5354010000000  0.4380160000000 1.0
C      1  0.5753670000000  0.5457510000000  0.5638140000000 1.0
C      1  0.4894530000000  0.5075760000000  0.4234040000000 1.0
C      1  0.4842860000000  0.5722620000000  0.5230890000000 1.0
C      1  0.4910700000000  0.4893820000000  0.5727850000000 1.0
C      1  0.4923400000000  0.4216830000000  0.4792580000000 1.0
C      1  0.4924480000000  0.5168610000000  0.4723750000000 1.0
C      1  0.5202480000000  0.5235210000000  0.5115220000000 1.0
C      1  0.4841260000000  0.4912450000000  0.5138960000000 1.0
C      1  0.5208910000000  0.4793600000000  0.4873910000000 1.0
C      1  0.5995250000000  0.5303350000000  0.4910920000000 1.0
C      1  0.4047570000000  0.5230820000000  0.5194480000000 1.0
C      1  0.6011810000000  0.4700590000000  0.5101850000000 1.0
C      1  0.3970320000000  0.4795520000000  0.4747360000000 1.0
C      1  0.5184550000000  0.4355070000000  0.5266190000000 1.0
C      1  0.4805540000000  0.4575680000000  0.4419410000000 1.0
C      1  0.5173230000000  0.5721710000000  0.4767620000000 1.0
C      1  0.4833210000000  0.5412530000000  0.5654620000000 1.0
C      1  0.5622250000000  0.4265010000000  0.5077220000000 1.0
C      1  0.4396070000000  0.4702950000000  0.4199980000000 1.0
C      1  0.5612990000000  0.5707890000000  0.4970540000000 1.0
C      1  0.4442520000000  0.5268230000000  0.5885440000000 1.0
C      1  0.5738180000000  0.5177840000000  0.5590230000000 1.0
C      1  0.4321830000000  0.4547470000000  0.5307650000000 1.0
C      1  0.5723620000000  0.4813140000000  0.4433280000000 1.0
C      1  0.4312940000000  0.5451990000000  0.4608450000000 1.0
C      1  0.4437500000000  0.4277850000000  0.4837380000000 1.0
C      1  0.5388150000000  0.5216520000000  0.4376180000000 1.0
C      1  0.4374490000000  0.5744440000000  0.5049360000000 1.0
C      1  0.5414280000000  0.4772030000000  0.5627740000000 1.0
C      1  0.5831190000000  0.4793370000000  0.4900110000000 1.0
C      1  0.4162040000000  0.5005430000000  0.4712290000000 1.0
C      1  0.5827940000000  0.5203560000000  0.5120470000000 1.0
C      1  0.4217390000000  0.5000830000000  0.5185040000000 1.0
C      1  0.5689340000000  0.5749420000000  0.5223190000000 1.0
C      1  0.4456630000000  0.5001810000000  0.5861480000000 1.0
C      1  0.5691390000000  0.4235470000000  0.4820550000000 1.0
C      1  0.4441670000000  0.4954310000000  0.4116380000000 1.0
C      1  0.5654310000000  0.4994680000000  0.5014660000000 1.0
C      1  0.4360380000000  0.4992140000000  0.4928700000000 1.0
C      1  0.5047280000000  0.5034810000000  0.4959350000000 1.0
END
