TITL C-3623283-6828-1340 -8.76350808320888e-07 125000 -853.885848159392 0 0 135 (C1) n - 1
REM
REM in /home/nfs/bkarasulu/CARBON/AIRSS/Generating-Clusters/LCBOP/Higher-Symm/SD-CG/FIRE-CG
REM
REM
REM
REM
REM
REM ./C.cell (b20cbc046b6831c77cfcea5457e17084)
REM AIRSS Version 0.9.1 bugfix July 2018 build 013d7b7c2542+ Fri, 06 Jul 2018 19:26:36 +0100
REM compiler GCC version 9.2.1 20190827 (Red Hat 9.2.1-1)
REM options -cpp -mtune=generic -march=x86-64 -g -O0 -fpre-include=/usr/include/finclude/math-vector-fortran.h
REM seed 1689305595 1917998929 1178019686 1979219511 -1015032317 1521422345 1637947494 810730200 -118933748 -73832942 647361198 -177148562 -793722791 838893757 -371427333 316087638 -329837452 -850415947 -1395132173 -299567910 1776990573 -1684325945 -1245992401 111441421 1488883820 446117595 1578059748 -104558581 1960727198 -1230996594 -1973094312 357256467 -710617069
REM
CELL 1.54180   50.00000   50.00000   50.00000   90.00000   90.00000   90.00000
LATT -1
SFAC C  
C      1  0.5058400000000  0.4605070000000  0.4104260000000 1.0
C      1  0.4898650000000  0.5280510000000  0.4196500000000 1.0
C      1  0.5618870000000  0.4945320000000  0.4280260000000 1.0
C      1  0.4370490000000  0.5021980000000  0.4256710000000 1.0
C      1  0.4956420000000  0.5239080000000  0.5444070000000 1.0
C      1  0.5032930000000  0.4466700000000  0.5701220000000 1.0
C      1  0.4549280000000  0.4355460000000  0.5282180000000 1.0
C      1  0.5442110000000  0.5649980000000  0.5386120000000 1.0
C      1  0.4782430000000  0.4569290000000  0.4897590000000 1.0
C      1  0.5318460000000  0.5528180000000  0.4969570000000 1.0
C      1  0.4946460000000  0.5897790000000  0.5824740000000 1.0
C      1  0.4945800000000  0.3944600000000  0.5875840000000 1.0
C      1  0.4507080000000  0.3880900000000  0.4883280000000 1.0
C      1  0.5558270000000  0.6237870000000  0.4811370000000 1.0
C      1  0.4759000000000  0.5056030000000  0.5864470000000 1.0
C      1  0.5526480000000  0.4839870000000  0.5902170000000 1.0
C      1  0.4277850000000  0.5466490000000  0.4538250000000 1.0
C      1  0.5681830000000  0.4497960000000  0.4535510000000 1.0
C      1  0.4178190000000  0.4704800000000  0.4632560000000 1.0
C      1  0.5851770000000  0.5318830000000  0.4631850000000 1.0
C      1  0.4282800000000  0.4281240000000  0.5350520000000 1.0
C      1  0.5694480000000  0.5793770000000  0.5383010000000 1.0
C      1  0.5353350000000  0.4843620000000  0.5182100000000 1.0
C      1  0.4849000000000  0.5057020000000  0.5248820000000 1.0
C      1  0.5195760000000  0.5133910000000  0.5544620000000 1.0
C      1  0.5026940000000  0.4659670000000  0.5883430000000 1.0
C      1  0.5628760000000  0.6209250000000  0.5071310000000 1.0
C      1  0.4323610000000  0.3856990000000  0.5097510000000 1.0
C      1  0.4417810000000  0.5729140000000  0.4532060000000 1.0
C      1  0.5492430000000  0.4281950000000  0.4604440000000 1.0
C      1  0.5139840000000  0.3859790000000  0.5710410000000 1.0
C      1  0.4762260000000  0.6002060000000  0.5658300000000 1.0
C      1  0.4819280000000  0.5288540000000  0.4708640000000 1.0
C      1  0.5508210000000  0.5006790000000  0.4988470000000 1.0
C      1  0.5864690000000  0.4572790000000  0.4744970000000 1.0
C      1  0.4149830000000  0.5405570000000  0.4795510000000 1.0
C      1  0.4808740000000  0.5038550000000  0.4319190000000 1.0
C      1  0.5267150000000  0.4951580000000  0.4544000000000 1.0
C      1  0.5589950000000  0.5565040000000  0.4294450000000 1.0
C      1  0.4366250000000  0.4415450000000  0.4288790000000 1.0
C      1  0.4367840000000  0.4763150000000  0.5746780000000 1.0
C      1  0.5712390000000  0.5232750000000  0.5748270000000 1.0
C      1  0.4358590000000  0.5910720000000  0.4742380000000 1.0
C      1  0.5471810000000  0.4195230000000  0.4877940000000 1.0
C      1  0.5375910000000  0.4962280000000  0.5448860000000 1.0
C      1  0.4587620000000  0.5059360000000  0.5136720000000 1.0
C      1  0.5384150000000  0.4550660000000  0.5197070000000 1.0
C      1  0.4708200000000  0.5461310000000  0.4902750000000 1.0
C      1  0.4197980000000  0.4211490000000  0.4695150000000 1.0
C      1  0.5759260000000  0.5813330000000  0.4683770000000 1.0
C      1  0.5349120000000  0.5065760000000  0.4290830000000 1.0
C      1  0.4621860000000  0.4876020000000  0.4180460000000 1.0
C      1  0.4382440000000  0.6010330000000  0.4992970000000 1.0
C      1  0.5261220000000  0.4002760000000  0.4938770000000 1.0
C      1  0.5742550000000  0.4935830000000  0.5726750000000 1.0
C      1  0.4490100000000  0.5028340000000  0.5737330000000 1.0
C      1  0.4108020000000  0.4516240000000  0.5355390000000 1.0
C      1  0.5909180000000  0.5581690000000  0.5375890000000 1.0
C      1  0.4518270000000  0.5322330000000  0.5053100000000 1.0
C      1  0.5577830000000  0.4392680000000  0.5067310000000 1.0
C      1  0.4783940000000  0.3926810000000  0.4922690000000 1.0
C      1  0.4893450000000  0.6179710000000  0.4811730000000 1.0
C      1  0.4886800000000  0.5913330000000  0.4720570000000 1.0
C      1  0.5020140000000  0.3992700000000  0.4749650000000 1.0
C      1  0.4186320000000  0.4900310000000  0.4432710000000 1.0
C      1  0.5812480000000  0.5092530000000  0.4447190000000 1.0
C      1  0.4867640000000  0.3972550000000  0.5196420000000 1.0
C      1  0.4768580000000  0.6278190000000  0.5030270000000 1.0
C      1  0.4742620000000  0.4100300000000  0.5956870000000 1.0
C      1  0.5144130000000  0.5741350000000  0.5919650000000 1.0
C      1  0.5103860000000  0.4736340000000  0.4599910000000 1.0
C      1  0.5057120000000  0.5397600000000  0.4614230000000 1.0
C      1  0.5138830000000  0.4427960000000  0.5224290000000 1.0
C      1  0.4867450000000  0.5707500000000  0.4924270000000 1.0
C      1  0.5026450000000  0.4941450000000  0.5929050000000 1.0
C      1  0.5308570000000  0.5039810000000  0.5958520000000 1.0
C      1  0.5910930000000  0.4679080000000  0.5264050000000 1.0
C      1  0.4192730000000  0.5322970000000  0.5359620000000 1.0
C      1  0.4768620000000  0.4623890000000  0.4129980000000 1.0
C      1  0.5190740000000  0.5302420000000  0.4193900000000 1.0
C      1  0.4469910000000  0.4550280000000  0.5903300000000 1.0
C      1  0.5454920000000  0.5296210000000  0.5896610000000 1.0
C      1  0.5570910000000  0.4649770000000  0.4304500000000 1.0
C      1  0.4404430000000  0.5310250000000  0.4308770000000 1.0
C      1  0.4659170000000  0.5709780000000  0.4358860000000 1.0
C      1  0.5263690000000  0.4281260000000  0.4422380000000 1.0
C      1  0.4159020000000  0.4697090000000  0.5563620000000 1.0
C      1  0.5883730000000  0.5396780000000  0.5590720000000 1.0
C      1  0.5874880000000  0.5809720000000  0.4949940000000 1.0
C      1  0.4071390000000  0.4254870000000  0.4951600000000 1.0
C      1  0.5147510000000  0.5689540000000  0.5358360000000 1.0
C      1  0.4773600000000  0.4196190000000  0.5355070000000 1.0
C      1  0.5173040000000  0.5802980000000  0.4338240000000 1.0
C      1  0.4766110000000  0.4161230000000  0.4351850000000 1.0
C      1  0.5300340000000  0.4510940000000  0.4232520000000 1.0
C      1  0.4659910000000  0.5453440000000  0.4221290000000 1.0
C      1  0.5309010000000  0.5563520000000  0.4237400000000 1.0
C      1  0.4643020000000  0.4391090000000  0.4230030000000 1.0
C      1  0.4220230000000  0.4439780000000  0.4528530000000 1.0
C      1  0.5760100000000  0.5574280000000  0.4522360000000 1.0
C      1  0.4842980000000  0.4769120000000  0.4708180000000 1.0
C      1  0.5290220000000  0.5362250000000  0.4753920000000 1.0
C      1  0.4578720000000  0.4312750000000  0.5964080000000 1.0
C      1  0.5327860000000  0.5545590000000  0.5937640000000 1.0
C      1  0.4335980000000  0.5221810000000  0.5576360000000 1.0
C      1  0.5867080000000  0.4796940000000  0.5507730000000 1.0
C      1  0.4992430000000  0.4354850000000  0.5452140000000 1.0
C      1  0.4950430000000  0.5518810000000  0.5473600000000 1.0
C      1  0.4567430000000  0.6134510000000  0.5170990000000 1.0
C      1  0.5159830000000  0.3920540000000  0.5206040000000 1.0
C      1  0.5493170000000  0.5438620000000  0.5178160000000 1.0
C      1  0.4580380000000  0.4578270000000  0.5093260000000 1.0
C      1  0.4392410000000  0.3997250000000  0.4650390000000 1.0
C      1  0.5571270000000  0.6028550000000  0.4620240000000 1.0
C      1  0.5107110000000  0.5689890000000  0.5071960000000 1.0
C      1  0.4998730000000  0.4417710000000  0.4980690000000 1.0
C      1  0.5371560000000  0.5092080000000  0.4758950000000 1.0
C      1  0.4770590000000  0.5029680000000  0.4605910000000 1.0
C      1  0.5361800000000  0.5995570000000  0.4434290000000 1.0
C      1  0.4561690000000  0.3975490000000  0.4425240000000 1.0
C      1  0.4173030000000  0.4082960000000  0.5170480000000 1.0
C      1  0.5747000000000  0.5971820000000  0.5161590000000 1.0
C      1  0.5972550000000  0.5561720000000  0.5075660000000 1.0
C      1  0.4040430000000  0.4534140000000  0.5066450000000 1.0
C      1  0.5823650000000  0.4536390000000  0.5027550000000 1.0
C      1  0.4239330000000  0.5376050000000  0.5073430000000 1.0
C      1  0.5885010000000  0.5322330000000  0.4928860000000 1.0
C      1  0.4183420000000  0.4741660000000  0.4920120000000 1.0
C      1  0.5662570000000  0.5223340000000  0.5087510000000 1.0
C      1  0.4429430000000  0.4822940000000  0.5065960000000 1.0
C      1  0.4903720000000  0.5828340000000  0.4446840000000 1.0
C      1  0.5020640000000  0.4137410000000  0.4492700000000 1.0
C      1  0.5248500000000  0.3850280000000  0.5463440000000 1.0
C      1  0.4618290000000  0.6067870000000  0.5440820000000 1.0
C      1  0.5055760000000  0.4905140000000  0.5128830000000 1.0
END
