TITL C-3623287-7182-202 -0.000136361671575371 125000 -549.365364381408 0 0 90 (C1) n - 1
REM
REM in /home/nfs/bkarasulu/CARBON/AIRSS/Generating-Clusters/LCBOP/Higher-Symm/SD-CG/FIRE-CG
REM
REM
REM
REM
REM
REM ./C.cell (b20cbc046b6831c77cfcea5457e17084)
REM AIRSS Version 0.9.1 bugfix July 2018 build 013d7b7c2542+ Fri, 06 Jul 2018 19:26:36 +0100
REM compiler GCC version 9.2.1 20190827 (Red Hat 9.2.1-1)
REM options -cpp -mtune=generic -march=x86-64 -g -O0 -fpre-include=/usr/include/finclude/math-vector-fortran.h
REM seed 398809883 -1577423968 -592575618 -1161085298 -1287034103 1728414054 -2088294826 -649236711 608316956 -804855458 -1731892439 1870576235 -57902899 38214464 -691702261 1119403798 1272525232 692553741 -185359083 792875042 356666320 1561203837 1307988250 -862460146 -894410150 -1142527178 -654610901 -159860198 -970256867 -706146055 199491906 1018161491 1849023145
REM
CELL 1.54180   50.00000   50.00000   50.00000   90.00000   90.00000   90.00000
LATT -1
SFAC C  
C      1  0.5404480000000  0.5231520000000  0.4128610000000 1.0
C      1  0.4563770000000  0.4858450000000  0.4020440000000 1.0
C      1  0.5908340000000  0.4468060000000  0.5512860000000 1.0
C      1  0.4068460000000  0.5507850000000  0.5491100000000 1.0
C      1  0.5513610000000  0.4966980000000  0.4144220000000 1.0
C      1  0.4441790000000  0.5103600000000  0.4092540000000 1.0
C      1  0.5557790000000  0.6014150000000  0.5197600000000 1.0
C      1  0.4366150000000  0.4029300000000  0.5062260000000 1.0
C      1  0.5225280000000  0.5597860000000  0.5964660000000 1.0
C      1  0.4813040000000  0.4500000000000  0.6016460000000 1.0
C      1  0.5594970000000  0.4846730000000  0.4397280000000 1.0
C      1  0.4405440000000  0.5161150000000  0.4371820000000 1.0
C      1  0.4611630000000  0.4332200000000  0.5942900000000 1.0
C      1  0.5444100000000  0.5742460000000  0.5891490000000 1.0
C      1  0.5199930000000  0.5341870000000  0.5876120000000 1.0
C      1  0.4825350000000  0.4748360000000  0.5906140000000 1.0
C      1  0.5139840000000  0.4677190000000  0.4464550000000 1.0
C      1  0.4886840000000  0.5271790000000  0.4469520000000 1.0
C      1  0.5603350000000  0.4131280000000  0.4982030000000 1.0
C      1  0.4304590000000  0.5780630000000  0.4957810000000 1.0
C      1  0.5491650000000  0.4737510000000  0.5663520000000 1.0
C      1  0.4530150000000  0.5310410000000  0.5617710000000 1.0
C      1  0.5046010000000  0.5501970000000  0.5096440000000 1.0
C      1  0.4985830000000  0.4480440000000  0.5230500000000 1.0
C      1  0.5544840000000  0.4821540000000  0.3913390000000 1.0
C      1  0.4359440000000  0.5281640000000  0.3902100000000 1.0
C      1  0.4876530000000  0.5283250000000  0.5153530000000 1.0
C      1  0.5151630000000  0.4703210000000  0.5209620000000 1.0
C      1  0.4708290000000  0.4774670000000  0.4724140000000 1.0
C      1  0.5307480000000  0.5166680000000  0.4765950000000 1.0
C      1  0.4304790000000  0.5449800000000  0.5598420000000 1.0
C      1  0.5695840000000  0.4569550000000  0.5636510000000 1.0
C      1  0.4581530000000  0.4948510000000  0.4923840000000 1.0
C      1  0.5437330000000  0.4995840000000  0.4957830000000 1.0
C      1  0.5633300000000  0.5626250000000  0.5734230000000 1.0
C      1  0.4425660000000  0.4418880000000  0.5764210000000 1.0
C      1  0.3835610000000  0.5369530000000  0.5058440000000 1.0
C      1  0.6139980000000  0.4548180000000  0.5063670000000 1.0
C      1  0.4647260000000  0.4848570000000  0.5707150000000 1.0
C      1  0.5383280000000  0.5209720000000  0.5702470000000 1.0
C      1  0.4582950000000  0.4153260000000  0.5136960000000 1.0
C      1  0.5380850000000  0.5855600000000  0.5090560000000 1.0
C      1  0.5224760000000  0.4125480000000  0.4680550000000 1.0
C      1  0.4682900000000  0.5857840000000  0.4665950000000 1.0
C      1  0.5730990000000  0.5278080000000  0.4555680000000 1.0
C      1  0.4285260000000  0.4711110000000  0.4493640000000 1.0
C      1  0.4133070000000  0.5042620000000  0.4786540000000 1.0
C      1  0.5881460000000  0.4911550000000  0.4806560000000 1.0
C      1  0.4908130000000  0.5106230000000  0.5376870000000 1.0
C      1  0.5126640000000  0.4922120000000  0.5394380000000 1.0
C      1  0.5340370000000  0.4730830000000  0.4999830000000 1.0
C      1  0.4668750000000  0.5221300000000  0.4969560000000 1.0
C      1  0.4938880000000  0.5864090000000  0.4586250000000 1.0
C      1  0.5012770000000  0.4119800000000  0.4518880000000 1.0
C      1  0.5170310000000  0.5726930000000  0.4666130000000 1.0
C      1  0.4817250000000  0.4239930000000  0.4382810000000 1.0
C      1  0.5057250000000  0.5107860000000  0.4628960000000 1.0
C      1  0.4967720000000  0.4837270000000  0.4620350000000 1.0
C      1  0.5844890000000  0.5241330000000  0.5504640000000 1.0
C      1  0.4194150000000  0.4766090000000  0.5499550000000 1.0
C      1  0.5328190000000  0.5474780000000  0.4226140000000 1.0
C      1  0.4650450000000  0.4613190000000  0.4089540000000 1.0
C      1  0.4544450000000  0.4610650000000  0.4549320000000 1.0
C      1  0.5476640000000  0.5365280000000  0.4644070000000 1.0
C      1  0.5417530000000  0.4657760000000  0.4527230000000 1.0
C      1  0.4607840000000  0.5311590000000  0.4509710000000 1.0
C      1  0.5333750000000  0.5564010000000  0.4498030000000 1.0
C      1  0.4666060000000  0.4469150000000  0.4332610000000 1.0
C      1  0.6071050000000  0.4718220000000  0.4869950000000 1.0
C      1  0.3926270000000  0.5211630000000  0.4863840000000 1.0
C      1  0.4226540000000  0.4988230000000  0.4522830000000 1.0
C      1  0.5788300000000  0.4997790000000  0.4551850000000 1.0
C      1  0.4419280000000  0.4679160000000  0.5647370000000 1.0
C      1  0.5624830000000  0.5357510000000  0.5639360000000 1.0
C      1  0.3955700000000  0.4810820000000  0.5626250000000 1.0
C      1  0.6086350000000  0.5216140000000  0.5630860000000 1.0
C      1  0.5424010000000  0.4263240000000  0.4824400000000 1.0
C      1  0.4509330000000  0.5684960000000  0.4806000000000 1.0
C      1  0.6075480000000  0.4457500000000  0.5305890000000 1.0
C      1  0.3890160000000  0.5478130000000  0.5295590000000 1.0
C      1  0.4699030000000  0.5091860000000  0.5571680000000 1.0
C      1  0.5329140000000  0.4954810000000  0.5592970000000 1.0
C      1  0.5716580000000  0.5022590000000  0.5015470000000 1.0
C      1  0.4302650000000  0.4919030000000  0.4984740000000 1.0
C      1  0.5811990000000  0.5148090000000  0.5243340000000 1.0
C      1  0.4217360000000  0.4808560000000  0.5224330000000 1.0
C      1  0.5198590000000  0.5693770000000  0.4953800000000 1.0
C      1  0.4794170000000  0.4300090000000  0.5200710000000 1.0
C      1  0.5428400000000  0.4545790000000  0.4796750000000 1.0
C      1  0.4565320000000  0.5408790000000  0.4776680000000 1.0
END
