TITL C-3623287-7182-442 2.62525489739387e-07 125000 -507.661780870626 0 0 91 (C2) n - 1
REM
REM in /home/nfs/bkarasulu/CARBON/AIRSS/Generating-Clusters/LCBOP/Higher-Symm/SD-CG/FIRE-CG
REM
REM
REM
REM
REM
REM ./C.cell (b20cbc046b6831c77cfcea5457e17084)
REM AIRSS Version 0.9.1 bugfix July 2018 build 013d7b7c2542+ Fri, 06 Jul 2018 19:26:36 +0100
REM compiler GCC version 9.2.1 20190827 (Red Hat 9.2.1-1)
REM options -cpp -mtune=generic -march=x86-64 -g -O0 -fpre-include=/usr/include/finclude/math-vector-fortran.h
REM seed -1735385918 1964586046 -1978297285 -745370800 1880505708 539352010 2104151824 1394494198 -713932501 1700053756 -633676138 -2101451673 -2308936 919861384 112456411 1664810106 -158460559 -784240582 -1373746922 -198450301 -16860358 2100621800 -1239645958 -871399108 1060066963 14086641 -90184071 -726349453 -1971857372 -884626343 -2024579305 -1483380821 -1396295293
REM
CELL 1.54180   50.00000   50.00000   50.00000   90.00000   90.00000   90.00000
LATT -1
SFAC C  
C      1  0.4308560000000  0.4964220000000  0.4846510000000 1.0
C      1  0.5692980000000  0.5028850000000  0.4846500000000 1.0
C      1  0.4294150000000  0.5009540000000  0.5136870000000 1.0
C      1  0.5708580000000  0.4982210000000  0.5136550000000 1.0
C      1  0.5824830000000  0.5173180000000  0.5310060000000 1.0
C      1  0.4177570000000  0.4818710000000  0.5310270000000 1.0
C      1  0.5794530000000  0.4837260000000  0.4663580000000 1.0
C      1  0.4205960000000  0.5155390000000  0.4663790000000 1.0
C      1  0.4889070000000  0.4180640000000  0.5445170000000 1.0
C      1  0.5111630000000  0.5811570000000  0.5445400000000 1.0
C      1  0.4872740000000  0.5835250000000  0.4602140000000 1.0
C      1  0.5128110000000  0.4158390000000  0.4602070000000 1.0
C      1  0.5373890000000  0.5334370000000  0.4090790000000 1.0
C      1  0.4627120000000  0.4658350000000  0.4090640000000 1.0
C      1  0.5320510000000  0.4696090000000  0.5909560000000 1.0
C      1  0.4682470000000  0.5296320000000  0.5908780000000 1.0
C      1  0.4170960000000  0.5485550000000  0.5114500000000 1.0
C      1  0.5830520000000  0.4505580000000  0.5114280000000 1.0
C      1  0.4184850000000  0.4486920000000  0.4821470000000 1.0
C      1  0.5816170000000  0.5505700000000  0.4821840000000 1.0
C      1  0.5253350000000  0.4067130000000  0.5746200000000 1.0
C      1  0.4746930000000  0.5925750000000  0.5745750000000 1.0
C      1  0.5227200000000  0.5963460000000  0.4292990000000 1.0
C      1  0.4773600000000  0.4029300000000  0.4293290000000 1.0
C      1  0.5414900000000  0.5386080000000  0.4581590000000 1.0
C      1  0.4586370000000  0.4607000000000  0.4581570000000 1.0
C      1  0.5477820000000  0.4613120000000  0.5429920000000 1.0
C      1  0.4524880000000  0.5378640000000  0.5429200000000 1.0
C      1  0.5234380000000  0.4695080000000  0.4347230000000 1.0
C      1  0.4766060000000  0.5298460000000  0.4346770000000 1.0
C      1  0.5919880000000  0.5809400000000  0.5686310000000 1.0
C      1  0.4077710000000  0.4182650000000  0.5685140000000 1.0
C      1  0.4669410000000  0.4310580000000  0.4680470000000 1.0
C      1  0.5331400000000  0.5682540000000  0.4680380000000 1.0
C      1  0.4637170000000  0.5669890000000  0.5344930000000 1.0
C      1  0.5364000000000  0.4322320000000  0.5345280000000 1.0
C      1  0.5412170000000  0.5167460000000  0.4801390000000 1.0
C      1  0.4589700000000  0.4826240000000  0.4801040000000 1.0
C      1  0.5451380000000  0.4826490000000  0.5206220000000 1.0
C      1  0.4551780000000  0.5165190000000  0.5205460000000 1.0
C      1  0.4779590000000  0.5066780000000  0.4817550000000 1.0
C      1  0.5223170000000  0.4927730000000  0.4820080000000 1.0
C      1  0.4762410000000  0.4932700000000  0.5255610000000 1.0
C      1  0.5242650000000  0.5059420000000  0.5255850000000 1.0
C      1  0.5007040000000  0.5143980000000  0.4347270000000 1.0
C      1  0.4993510000000  0.4849510000000  0.4347320000000 1.0
C      1  0.5145150000000  0.4976870000000  0.5533900000000 1.0
C      1  0.4859030000000  0.5016140000000  0.5533410000000 1.0
C      1  0.5212220000000  0.5785140000000  0.5162760000000 1.0
C      1  0.4788210000000  0.4207530000000  0.5162550000000 1.0
C      1  0.5201440000000  0.4203250000000  0.4886780000000 1.0
C      1  0.4799110000000  0.5790060000000  0.4886760000000 1.0
C      1  0.4832060000000  0.5801860000000  0.5516220000000 1.0
C      1  0.5168610000000  0.4190660000000  0.5516290000000 1.0
C      1  0.4855680000000  0.4163110000000  0.4516850000000 1.0
C      1  0.5145140000000  0.5830020000000  0.4516780000000 1.0
C      1  0.4222260000000  0.4537510000000  0.5308080000000 1.0
C      1  0.5778160000000  0.5454070000000  0.5308570000000 1.0
C      1  0.4333320000000  0.5413100000000  0.4633080000000 1.0
C      1  0.5666510000000  0.4579900000000  0.4633680000000 1.0
C      1  0.4406850000000  0.5515480000000  0.4913150000000 1.0
C      1  0.5593740000000  0.4476980000000  0.4913690000000 1.0
C      1  0.4375050000000  0.4457730000000  0.5065480000000 1.0
C      1  0.5624560000000  0.5533560000000  0.5065730000000 1.0
C      1  0.5774790000000  0.4551310000000  0.5385360000000 1.0
C      1  0.4227560000000  0.5439270000000  0.5385270000000 1.0
C      1  0.5718420000000  0.5437150000000  0.4573380000000 1.0
C      1  0.4282830000000  0.4556430000000  0.4573410000000 1.0
C      1  0.5261410000000  0.5287070000000  0.4338420000000 1.0
C      1  0.4739470000000  0.4706000000000  0.4338230000000 1.0
C      1  0.5308580000000  0.4758850000000  0.5644850000000 1.0
C      1  0.4694720000000  0.5233550000000  0.5644070000000 1.0
C      1  0.4639550000000  0.4684610000000  0.5091990000000 1.0
C      1  0.5362450000000  0.5308940000000  0.5090240000000 1.0
C      1  0.4655820000000  0.5310630000000  0.4954720000000 1.0
C      1  0.5345340000000  0.4682380000000  0.4957190000000 1.0
C      1  0.5461910000000  0.4577070000000  0.4433100000000 1.0
C      1  0.4538010000000  0.5415880000000  0.4432390000000 1.0
C      1  0.5857650000000  0.5633460000000  0.5504420000000 1.0
C      1  0.4141410000000  0.4358350000000  0.5503540000000 1.0
C      1  0.5123720000000  0.5495810000000  0.5106470000000 1.0
C      1  0.4876870000000  0.4496700000000  0.5106860000000 1.0
C      1  0.5107200000000  0.4495100000000  0.4945550000000 1.0
C      1  0.4893660000000  0.5498290000000  0.4944690000000 1.0
C      1  0.4558000000000  0.4221190000000  0.4958230000000 1.0
C      1  0.5442290000000  0.5772020000000  0.4958250000000 1.0
C      1  0.4552040000000  0.5762670000000  0.5057230000000 1.0
C      1  0.5448500000000  0.4229770000000  0.5057300000000 1.0
C      1  0.5006180000000  0.5958290000000  0.5025060000000 1.0
C      1  0.4994230000000  0.4034690000000  0.5024560000000 1.0
C      1  0.4995060000000  0.4996680000000  0.5034310000000 1.0
END
