TITL C-3623283-6828-528 325.048902709424 125000 -705.429601556175 0 0 118 (C1) n - 1
REM
REM in /home/nfs/bkarasulu/CARBON/AIRSS/Generating-Clusters/LCBOP/Higher-Symm/SD-CG/FIRE-CG
REM
REM
REM
REM
REM
REM ./C.cell (b20cbc046b6831c77cfcea5457e17084)
REM AIRSS Version 0.9.1 bugfix July 2018 build 013d7b7c2542+ Fri, 06 Jul 2018 19:26:36 +0100
REM compiler GCC version 9.2.1 20190827 (Red Hat 9.2.1-1)
REM options -cpp -mtune=generic -march=x86-64 -g -O0 -fpre-include=/usr/include/finclude/math-vector-fortran.h
REM seed 350107538 -1738568815 -107869582 -2072796001 465433561 1790645922 1331987837 937230452 -577309254 -1073815022 -216362926 -1755722322 1856372532 2100958364 -202168202 1666091979 -2085867812 -1738002052 -1043746771 -315098708 -562051717 -778108872 870015800 576804688 -1372567004 -1087046805 1720303822 -1262243124 9942410 1612153901 151096576 -804533185 -786507155
REM
CELL 1.54180   50.00000   50.00000   50.00000   90.00000   90.00000   90.00000
LATT -1
SFAC C  
C      1  0.5182130000000  0.4432110000000  0.5799930000000 1.0
C      1  0.4616700000000  0.4525220000000  0.5823770000000 1.0
C      1  0.4433070000000  0.5069430000000  0.5828480000000 1.0
C      1  0.4618180000000  0.5426290000000  0.5846070000000 1.0
C      1  0.5255590000000  0.5578110000000  0.5841180000000 1.0
C      1  0.5510530000000  0.5311260000000  0.5837960000000 1.0
C      1  0.5512380000000  0.4664230000000  0.5813590000000 1.0
C      1  0.4236480000000  0.4811590000000  0.4948730000000 1.0
C      1  0.4368280000000  0.5487120000000  0.4945990000000 1.0
C      1  0.4896450000000  0.5816100000000  0.4989320000000 1.0
C      1  0.5592570000000  0.5657690000000  0.4973120000000 1.0
C      1  0.5723070000000  0.4948930000000  0.4957610000000 1.0
C      1  0.5393200000000  0.4282040000000  0.4909670000000 1.0
C      1  0.4695120000000  0.4301590000000  0.4922410000000 1.0
C      1  0.6139390000000  0.5358120000000  0.4830660000000 1.0
C      1  0.6065490000000  0.4401280000000  0.4863560000000 1.0
C      1  0.5068010000000  0.3819220000000  0.4844860000000 1.0
C      1  0.4136000000000  0.4190130000000  0.4862950000000 1.0
C      1  0.3815170000000  0.5181260000000  0.4895570000000 1.0
C      1  0.4345130000000  0.6054030000000  0.4889960000000 1.0
C      1  0.5298210000000  0.6223180000000  0.4874920000000 1.0
C      1  0.5873260000000  0.5059690000000  0.4527220000000 1.0
C      1  0.5692030000000  0.4234160000000  0.4541110000000 1.0
C      1  0.4888970000000  0.4179820000000  0.4503520000000 1.0
C      1  0.4258310000000  0.4581340000000  0.4531090000000 1.0
C      1  0.4197240000000  0.5287700000000  0.4548090000000 1.0
C      1  0.4675590000000  0.5820010000000  0.4562770000000 1.0
C      1  0.5385140000000  0.5825460000000  0.4576750000000 1.0
C      1  0.4814510000000  0.5262540000000  0.5978150000000 1.0
C      1  0.5093270000000  0.5310230000000  0.5996090000000 1.0
C      1  0.5331520000000  0.5119560000000  0.5971590000000 1.0
C      1  0.5322830000000  0.4836510000000  0.5944400000000 1.0
C      1  0.5074920000000  0.4663710000000  0.5931810000000 1.0
C      1  0.4791960000000  0.4726000000000  0.5934470000000 1.0
C      1  0.4679210000000  0.4991890000000  0.5956940000000 1.0
C      1  0.4962070000000  0.4586530000000  0.5251710000000 1.0
C      1  0.4659990000000  0.4784020000000  0.5249100000000 1.0
C      1  0.4631950000000  0.5142400000000  0.5251900000000 1.0
C      1  0.4887130000000  0.5386640000000  0.5278660000000 1.0
C      1  0.5234080000000  0.5339020000000  0.5274460000000 1.0
C      1  0.5421990000000  0.5043670000000  0.5286910000000 1.0
C      1  0.5303080000000  0.4701450000000  0.5262730000000 1.0
C      1  0.5567140000000  0.4723280000000  0.4346940000000 1.0
C      1  0.5606870000000  0.3921570000000  0.4111250000000 1.0
C      1  0.4923130000000  0.4263060000000  0.3972930000000 1.0
C      1  0.4286300000000  0.4622050000000  0.3995160000000 1.0
C      1  0.4246920000000  0.5305940000000  0.4012050000000 1.0
C      1  0.4782010000000  0.5755540000000  0.4039330000000 1.0
C      1  0.5493880000000  0.5401970000000  0.4363980000000 1.0
C      1  0.5357760000000  0.6096840000000  0.4643620000000 1.0
C      1  0.6099600000000  0.5206400000000  0.4609520000000 1.0
C      1  0.5939930000000  0.4270540000000  0.4667890000000 1.0
C      1  0.4966230000000  0.3937380000000  0.4626660000000 1.0
C      1  0.4139470000000  0.4355320000000  0.4651920000000 1.0
C      1  0.3945530000000  0.5257070000000  0.4673520000000 1.0
C      1  0.4486520000000  0.6002250000000  0.4667430000000 1.0
C      1  0.4280770000000  0.5920910000000  0.5115530000000 1.0
C      1  0.5188370000000  0.6167070000000  0.5115410000000 1.0
C      1  0.6026570000000  0.5471330000000  0.5047990000000 1.0
C      1  0.6043340000000  0.4590980000000  0.5049650000000 1.0
C      1  0.5210770000000  0.3877260000000  0.5065990000000 1.0
C      1  0.4286110000000  0.4120760000000  0.5075510000000 1.0
C      1  0.3857830000000  0.5034870000000  0.5118220000000 1.0
C      1  0.5480610000000  0.4507900000000  0.5371300000000 1.0
C      1  0.4925800000000  0.4343250000000  0.5398040000000 1.0
C      1  0.4444590000000  0.4664910000000  0.5399640000000 1.0
C      1  0.4397780000000  0.5235190000000  0.5387890000000 1.0
C      1  0.4815330000000  0.5609840000000  0.5448130000000 1.0
C      1  0.5378400000000  0.5556160000000  0.5393330000000 1.0
C      1  0.5654000000000  0.5062970000000  0.5451880000000 1.0
C      1  0.5805510000000  0.4826060000000  0.5428710000000 1.0
C      1  0.5373480000000  0.4243230000000  0.5385040000000 1.0
C      1  0.4655500000000  0.4255470000000  0.5402890000000 1.0
C      1  0.4214910000000  0.4828410000000  0.5427990000000 1.0
C      1  0.4370620000000  0.5517200000000  0.5420260000000 1.0
C      1  0.5009460000000  0.5817180000000  0.5456360000000 1.0
C      1  0.5663310000000  0.5518530000000  0.5413790000000 1.0
C      1  0.4223920000000  0.5291300000000  0.4271210000000 1.0
C      1  0.4717780000000  0.5791000000000  0.4289380000000 1.0
C      1  0.5459500000000  0.5674760000000  0.4346920000000 1.0
C      1  0.5796030000000  0.4869550000000  0.4333440000000 1.0
C      1  0.5660000000000  0.4070030000000  0.4318740000000 1.0
C      1  0.4897410000000  0.4212940000000  0.4227360000000 1.0
C      1  0.4264260000000  0.4612660000000  0.4254650000000 1.0
C      1  0.5345980000000  0.4114800000000  0.5132730000000 1.0
C      1  0.4548590000000  0.4196480000000  0.5142530000000 1.0
C      1  0.4079910000000  0.4872720000000  0.5177850000000 1.0
C      1  0.4319310000000  0.5649130000000  0.5174710000000 1.0
C      1  0.5025960000000  0.5954360000000  0.5203320000000 1.0
C      1  0.5785140000000  0.5564250000000  0.5160280000000 1.0
C      1  0.5877160000000  0.4792630000000  0.5148440000000 1.0
C      1  0.4375430000000  0.4774510000000  0.4707730000000 1.0
C      1  0.4421920000000  0.5325130000000  0.4721760000000 1.0
C      1  0.4828160000000  0.5672770000000  0.4754800000000 1.0
C      1  0.5366820000000  0.5647070000000  0.4804800000000 1.0
C      1  0.5656020000000  0.5089850000000  0.4718650000000 1.0
C      1  0.5469070000000  0.4372060000000  0.4658120000000 1.0
C      1  0.4803130000000  0.4390130000000  0.4677670000000 1.0
C      1  0.4643440000000  0.4882910000000  0.4664860000000 1.0
C      1  0.4684460000000  0.5188100000000  0.4691470000000 1.0
C      1  0.4922390000000  0.5392810000000  0.4720640000000 1.0
C      1  0.5223910000000  0.5391850000000  0.4744090000000 1.0
C      1  0.5438560000000  0.5246390000000  0.4606570000000 1.0
C      1  0.5378100000000  0.4613090000000  0.4534960000000 1.0
C      1  0.4843690000000  0.4669730000000  0.4625060000000 1.0
C      1  0.5676210000000  0.5299030000000  0.5605850000000 1.0
C      1  0.5651780000000  0.4620810000000  0.5569720000000 1.0
C      1  0.5146750000000  0.4276130000000  0.5565320000000 1.0
C      1  0.4517250000000  0.4448770000000  0.5567690000000 1.0
C      1  0.4292940000000  0.5058160000000  0.5585710000000 1.0
C      1  0.4584140000000  0.5577050000000  0.5609230000000 1.0
C      1  0.5238310000000  0.5704100000000  0.5592160000000 1.0
C      1  0.5136400000000  0.4920130000000  0.4877330000000 1.0
C      1  0.5023040000000  0.4995210000000  0.5113590000000 1.0
C      1  0.5020050000000  0.5051680000000  0.5644860000000 1.0
C      1  0.5127820000000  0.4779410000000  0.4606620000000 1.0
C      1  0.5100810000000  0.4969710000000  0.4362020000000 1.0
C      1  0.5009080000000  0.4989860000000  0.5398420000000 1.0
END
