TITL C-3623285-6872-1048 1.10654383981792e-07 125000 -173.310594183158 0 0 30 (C3) n - 1
REM
REM in /home/nfs/bkarasulu/CARBON/AIRSS/Generating-Clusters/LCBOP/Higher-Symm/SD-CG/FIRE-CG
REM
REM
REM
REM
REM
REM ./C.cell (b20cbc046b6831c77cfcea5457e17084)
REM AIRSS Version 0.9.1 bugfix July 2018 build 013d7b7c2542+ Fri, 06 Jul 2018 19:26:36 +0100
REM compiler GCC version 9.2.1 20190827 (Red Hat 9.2.1-1)
REM options -cpp -mtune=generic -march=x86-64 -g -O0 -fpre-include=/usr/include/finclude/math-vector-fortran.h
REM seed -1019334730 476457866 -1664332368 688961582 189925553 -1510240975 -771840264 -484570659 -414259875 2020812441 1178031163 423075228 -1706415863 -1148022793 1562452695 -1565846301 73471466 1188780482 -1826642048 1816500407 -166541498 668025941 -111196783 -568456127 1222541723 740659342 -875693139 912914314 -301958314 914328065 1128718195 1125048162 1380944184
REM
CELL 1.54180   50.00000   50.00000   50.00000   90.00000   90.00000   90.00000
LATT -1
SFAC C  
C      1  0.4489040000000  0.5039310000000  0.4953040000000 1.0
C      1  0.5289530000000  0.5422850000000  0.4953090000000 1.0
C      1  0.5221440000000  0.4537840000000  0.4953080000000 1.0
C      1  0.5467170000000  0.5050830000000  0.5270210000000 1.0
C      1  0.4810410000000  0.4569990000000  0.5270160000000 1.0
C      1  0.4722370000000  0.5379180000000  0.5270160000000 1.0
C      1  0.5283770000000  0.5044640000000  0.5486020000000 1.0
C      1  0.4896740000000  0.4731900000000  0.5485990000000 1.0
C      1  0.4819410000000  0.5223450000000  0.5485990000000 1.0
C      1  0.4525720000000  0.4761560000000  0.4942710000000 1.0
C      1  0.5030650000000  0.5529960000000  0.4942740000000 1.0
C      1  0.5443640000000  0.4708480000000  0.4942760000000 1.0
C      1  0.4761590000000  0.5336220000000  0.4271550000000 1.0
C      1  0.5410440000000  0.5038410000000  0.4271590000000 1.0
C      1  0.4828100000000  0.4625390000000  0.4271550000000 1.0
C      1  0.5100620000000  0.5254380000000  0.5543850000000 1.0
C      1  0.5169950000000  0.4785640000000  0.5543850000000 1.0
C      1  0.4729340000000  0.4959970000000  0.5543820000000 1.0
C      1  0.5411260000000  0.5176620000000  0.5007100000000 1.0
C      1  0.4947330000000  0.4555530000000  0.5007070000000 1.0
C      1  0.4641410000000  0.5267850000000  0.5007060000000 1.0
C      1  0.4794020000000  0.4640460000000  0.4529460000000 1.0
C      1  0.4791660000000  0.5358190000000  0.4529460000000 1.0
C      1  0.5414410000000  0.5001370000000  0.4529500000000 1.0
C      1  0.5420880000000  0.4966020000000  0.4803940000000 1.0
C      1  0.4760150000000  0.4652510000000  0.4803900000000 1.0
C      1  0.4819000000000  0.5381480000000  0.4803900000000 1.0
C      1  0.4899990000000  0.5598330000000  0.5192150000000 1.0
C      1  0.5568160000000  0.4787430000000  0.5192180000000 1.0
C      1  0.4531820000000  0.4614240000000  0.5192120000000 1.0
END
