TITL C-3623286-7563-590 -7.32799580655114e-07 125000 -924.178166444542 0 0 146 (C1) n - 1
REM
REM in /home/nfs/bkarasulu/CARBON/AIRSS/Generating-Clusters/LCBOP/Higher-Symm/SD-CG/FIRE-CG
REM
REM
REM
REM
REM
REM ./C.cell (b20cbc046b6831c77cfcea5457e17084)
REM AIRSS Version 0.9.1 bugfix July 2018 build 013d7b7c2542+ Fri, 06 Jul 2018 19:26:36 +0100
REM compiler GCC version 9.2.1 20190827 (Red Hat 9.2.1-1)
REM options -cpp -mtune=generic -march=x86-64 -g -O0 -fpre-include=/usr/include/finclude/math-vector-fortran.h
REM seed -490930794 -1710822815 1984980718 -2129123758 -1522159058 -299444530 -616317928 461652402 1835294513 -200058753 555524043 142764830 783079222 1298033620 1051794965 672517688 516894054 1287895459 1171558825 -722714025 12070226 -1086978584 -254068224 1623740910 -1939217253 878696093 5620792 1622363407 1052795534 -287874100 560383174 -1301075902 2037674673
REM
CELL 1.54180   50.00000   50.00000   50.00000   90.00000   90.00000   90.00000
LATT -1
SFAC C  
C      1  0.4885070000000  0.4200800000000  0.5593950000000 1.0
C      1  0.4364500000000  0.5567280000000  0.5565240000000 1.0
C      1  0.5769830000000  0.5339660000000  0.5572550000000 1.0
C      1  0.4564750000000  0.5015480000000  0.4082260000000 1.0
C      1  0.5233150000000  0.5363320000000  0.4113220000000 1.0
C      1  0.5192770000000  0.4607530000000  0.4105480000000 1.0
C      1  0.3575650000000  0.4704010000000  0.4783960000000 1.0
C      1  0.5492580000000  0.6362590000000  0.4798310000000 1.0
C      1  0.5969720000000  0.3856620000000  0.4677730000000 1.0
C      1  0.5120330000000  0.4342380000000  0.5505720000000 1.0
C      1  0.4323570000000  0.5286700000000  0.5530750000000 1.0
C      1  0.5513340000000  0.5474980000000  0.5539130000000 1.0
C      1  0.5531400000000  0.4828610000000  0.5976530000000 1.0
C      1  0.4612930000000  0.4650070000000  0.6053690000000 1.0
C      1  0.4930690000000  0.5587950000000  0.6013970000000 1.0
C      1  0.4070170000000  0.5118730000000  0.4949380000000 1.0
C      1  0.5407240000000  0.5688670000000  0.4962580000000 1.0
C      1  0.5376880000000  0.4065310000000  0.4941070000000 1.0
C      1  0.4474420000000  0.4455060000000  0.4390600000000 1.0
C      1  0.4785380000000  0.5719910000000  0.4414830000000 1.0
C      1  0.5704070000000  0.4802770000000  0.4446640000000 1.0
C      1  0.6222640000000  0.5529260000000  0.4497530000000 1.0
C      1  0.4844300000000  0.3666040000000  0.4324430000000 1.0
C      1  0.3896190000000  0.5770180000000  0.4362670000000 1.0
C      1  0.4823950000000  0.4125960000000  0.4490540000000 1.0
C      1  0.4330060000000  0.5581830000000  0.4491900000000 1.0
C      1  0.5808050000000  0.5270570000000  0.4546610000000 1.0
C      1  0.4558440000000  0.4738870000000  0.4935530000000 1.0
C      1  0.5126850000000  0.5560720000000  0.5027600000000 1.0
C      1  0.5447570000000  0.4675740000000  0.5044060000000 1.0
C      1  0.4137640000000  0.4676420000000  0.5194410000000 1.0
C      1  0.5092870000000  0.6066250000000  0.5246030000000 1.0
C      1  0.5775860000000  0.4277550000000  0.5183420000000 1.0
C      1  0.5108080000000  0.3952850000000  0.4972130000000 1.0
C      1  0.4120510000000  0.5402570000000  0.4971460000000 1.0
C      1  0.5674280000000  0.5580880000000  0.5011400000000 1.0
C      1  0.5038430000000  0.4321990000000  0.4508100000000 1.0
C      1  0.4408300000000  0.5302500000000  0.4480180000000 1.0
C      1  0.5527210000000  0.5352110000000  0.4514110000000 1.0
C      1  0.4636330000000  0.5198450000000  0.6075890000000 1.0
C      1  0.5379570000000  0.5292290000000  0.6116030000000 1.0
C      1  0.5094170000000  0.4580790000000  0.6122790000000 1.0
C      1  0.4180360000000  0.4416580000000  0.4750960000000 1.0
C      1  0.4889620000000  0.6028920000000  0.4759290000000 1.0
C      1  0.5916110000000  0.4530490000000  0.4762350000000 1.0
C      1  0.4239860000000  0.4580540000000  0.4504060000000 1.0
C      1  0.4999700000000  0.5878630000000  0.4517900000000 1.0
C      1  0.5729540000000  0.4528540000000  0.4526510000000 1.0
C      1  0.4354020000000  0.4185590000000  0.4733260000000 1.0
C      1  0.4602380000000  0.5975590000000  0.4740480000000 1.0
C      1  0.6011620000000  0.4808830000000  0.4772700000000 1.0
C      1  0.4586270000000  0.5167110000000  0.5544230000000 1.0
C      1  0.5328110000000  0.5250120000000  0.5545520000000 1.0
C      1  0.5070590000000  0.4621170000000  0.5475950000000 1.0
C      1  0.5896870000000  0.4292720000000  0.4921190000000 1.0
C      1  0.4029790000000  0.4556260000000  0.4948870000000 1.0
C      1  0.5081190000000  0.6122160000000  0.4957160000000 1.0
C      1  0.4824070000000  0.4251200000000  0.5867160000000 1.0
C      1  0.4474180000000  0.5611970000000  0.5827590000000 1.0
C      1  0.5787510000000  0.5225950000000  0.5834690000000 1.0
C      1  0.5145810000000  0.4770220000000  0.5698870000000 1.0
C      1  0.4570920000000  0.4923050000000  0.5683240000000 1.0
C      1  0.5126360000000  0.5269870000000  0.5733500000000 1.0
C      1  0.4890320000000  0.4368690000000  0.4963840000000 1.0
C      1  0.4582290000000  0.5295350000000  0.4971460000000 1.0
C      1  0.5450850000000  0.5174090000000  0.4971930000000 1.0
C      1  0.5817710000000  0.4917070000000  0.5318660000000 1.0
C      1  0.4546460000000  0.4393910000000  0.5290990000000 1.0
C      1  0.4730120000000  0.5764070000000  0.5300720000000 1.0
C      1  0.5072700000000  0.4447680000000  0.4767420000000 1.0
C      1  0.4602800000000  0.5208510000000  0.4693830000000 1.0
C      1  0.5359810000000  0.5283720000000  0.4733110000000 1.0
C      1  0.5585330000000  0.5113720000000  0.6009160000000 1.0
C      1  0.4838510000000  0.4472310000000  0.6053670000000 1.0
C      1  0.4662050000000  0.5475530000000  0.6002920000000 1.0
C      1  0.4975330000000  0.4972010000000  0.5124760000000 1.0
C      1  0.4766320000000  0.5156060000000  0.5133940000000 1.0
C      1  0.5236510000000  0.5068760000000  0.5130590000000 1.0
C      1  0.4330060000000  0.4560740000000  0.5385070000000 1.0
C      1  0.4860490000000  0.5994630000000  0.5403120000000 1.0
C      1  0.5868570000000  0.4379120000000  0.5431260000000 1.0
C      1  0.5092500000000  0.5387970000000  0.4783180000000 1.0
C      1  0.5266830000000  0.4659520000000  0.4810950000000 1.0
C      1  0.4599980000000  0.4903490000000  0.4717770000000 1.0
C      1  0.4457820000000  0.5662020000000  0.5300740000000 1.0
C      1  0.5825570000000  0.5203310000000  0.5320200000000 1.0
C      1  0.4729760000000  0.4164270000000  0.5348620000000 1.0
C      1  0.4719220000000  0.4564880000000  0.5106190000000 1.0
C      1  0.4923590000000  0.5548580000000  0.5263440000000 1.0
C      1  0.5553550000000  0.4810830000000  0.5288760000000 1.0
C      1  0.5372570000000  0.5523890000000  0.4332030000000 1.0
C      1  0.5255080000000  0.4394500000000  0.4322650000000 1.0
C      1  0.4350430000000  0.5067280000000  0.4308260000000 1.0
C      1  0.5727220000000  0.4654880000000  0.5862450000000 1.0
C      1  0.4388720000000  0.4558650000000  0.5889340000000 1.0
C      1  0.4951440000000  0.5849140000000  0.5902200000000 1.0
C      1  0.4953780000000  0.4720790000000  0.3955790000000 1.0
C      1  0.4791640000000  0.5179400000000  0.3972210000000 1.0
C      1  0.5268000000000  0.5090900000000  0.3994020000000 1.0
C      1  0.5672870000000  0.5310880000000  0.5097550000000 1.0
C      1  0.4904110000000  0.4114100000000  0.5102860000000 1.0
C      1  0.4381910000000  0.5478020000000  0.5072870000000 1.0
C      1  0.4676190000000  0.4630970000000  0.4326000000000 1.0
C      1  0.4846680000000  0.5454780000000  0.4364190000000 1.0
C      1  0.5445920000000  0.4878940000000  0.4395940000000 1.0
C      1  0.4924860000000  0.4724360000000  0.5254250000000 1.0
C      1  0.4792820000000  0.5301310000000  0.5377840000000 1.0
C      1  0.5364930000000  0.5020940000000  0.5379890000000 1.0
C      1  0.5891570000000  0.5641550000000  0.4839770000000 1.0
C      1  0.5015830000000  0.3784390000000  0.4764970000000 1.0
C      1  0.3978480000000  0.5577780000000  0.4804290000000 1.0
C      1  0.5275450000000  0.5778080000000  0.4486650000000 1.0
C      1  0.5513000000000  0.4330990000000  0.4483940000000 1.0
C      1  0.4179250000000  0.4869920000000  0.4478390000000 1.0
C      1  0.3843650000000  0.4735170000000  0.4812520000000 1.0
C      1  0.5341010000000  0.6139740000000  0.4827730000000 1.0
C      1  0.5816410000000  0.4066280000000  0.4755950000000 1.0
C      1  0.5250860000000  0.4861930000000  0.4600690000000 1.0
C      1  0.4779110000000  0.4799090000000  0.4523250000000 1.0
C      1  0.4893860000000  0.5269000000000  0.4594060000000 1.0
C      1  0.5876780000000  0.4989840000000  0.4583100000000 1.0
C      1  0.4552440000000  0.4209370000000  0.4522000000000 1.0
C      1  0.4531700000000  0.5778890000000  0.4536430000000 1.0
C      1  0.5142610000000  0.5394020000000  0.5986930000000 1.0
C      1  0.5259870000000  0.4737900000000  0.5954820000000 1.0
C      1  0.4638640000000  0.4935130000000  0.5970640000000 1.0
C      1  0.5506210000000  0.4166420000000  0.5182790000000 1.0
C      1  0.4093700000000  0.4967320000000  0.5199880000000 1.0
C      1  0.5333410000000  0.5959740000000  0.5368450000000 1.0
C      1  0.4892370000000  0.3850090000000  0.4519550000000 1.0
C      1  0.4059160000000  0.5650210000000  0.4544380000000 1.0
C      1  0.5985380000000  0.5482760000000  0.4623210000000 1.0
C      1  0.4688180000000  0.4741960000000  0.4072310000000 1.0
C      1  0.4938940000000  0.5383630000000  0.4113990000000 1.0
C      1  0.5356700000000  0.4854080000000  0.4134330000000 1.0
C      1  0.5403400000000  0.5874440000000  0.4737550000000 1.0
C      1  0.5533730000000  0.4112050000000  0.4692040000000 1.0
C      1  0.4007940000000  0.4957610000000  0.4711330000000 1.0
C      1  0.5452060000000  0.5745540000000  0.5486010000000 1.0
C      1  0.5345660000000  0.4213460000000  0.5407940000000 1.0
C      1  0.4118210000000  0.5126340000000  0.5431600000000 1.0
C      1  0.4392210000000  0.4690280000000  0.5631470000000 1.0
C      1  0.4889380000000  0.6001280000000  0.5687360000000 1.0
C      1  0.5833770000000  0.4499100000000  0.5670260000000 1.0
C      1  0.4999340000000  0.4980230000000  0.4538400000000 1.0
C      1  0.5009920000000  0.5000580000000  0.3875560000000 1.0
END
