TITL C-3623283-6828-1348 -7.36924349280041e-07 125000 -1174.83731663197 0 0 188 (C1) n - 1
REM
REM in /home/nfs/bkarasulu/CARBON/AIRSS/Generating-Clusters/LCBOP/Higher-Symm/SD-CG/FIRE-CG
REM
REM
REM
REM
REM
REM ./C.cell (b20cbc046b6831c77cfcea5457e17084)
REM AIRSS Version 0.9.1 bugfix July 2018 build 013d7b7c2542+ Fri, 06 Jul 2018 19:26:36 +0100
REM compiler GCC version 9.2.1 20190827 (Red Hat 9.2.1-1)
REM options -cpp -mtune=generic -march=x86-64 -g -O0 -fpre-include=/usr/include/finclude/math-vector-fortran.h
REM seed -780996362 -405727733 1014848153 489417738 -2049492149 1802304969 1554242720 -537023219 262837376 291250313 751254922 1995179667 1909577056 -1762965943 1471001756 -1353888148 1053405012 -1463764627 954808098 -1957224996 -1481816057 -1297934490 -203423417 -1766493758 -359261303 -1736908789 -1586962864 341866960 104810387 -427603353 -1107305249 -1518827551 -1112809559
REM
CELL 1.54180   50.00000   50.00000   50.00000   90.00000   90.00000   90.00000
LATT -1
SFAC C  
C      1  0.5688270000000  0.5199920000000  0.4054170000000 1.0
C      1  0.4786330000000  0.5488710000000  0.3960080000000 1.0
C      1  0.5561520000000  0.5656470000000  0.4422210000000 1.0
C      1  0.4423110000000  0.4554310000000  0.5273390000000 1.0
C      1  0.4377280000000  0.4567150000000  0.4785750000000 1.0
C      1  0.5005040000000  0.4447260000000  0.5531630000000 1.0
C      1  0.5788990000000  0.4304400000000  0.4241220000000 1.0
C      1  0.5586010000000  0.5731420000000  0.5623920000000 1.0
C      1  0.5059720000000  0.5777000000000  0.5600280000000 1.0
C      1  0.5989220000000  0.3989010000000  0.5046480000000 1.0
C      1  0.4636710000000  0.4149700000000  0.5374840000000 1.0
C      1  0.5206250000000  0.5950800000000  0.5429830000000 1.0
C      1  0.5812470000000  0.5519580000000  0.4925020000000 1.0
C      1  0.6309780000000  0.4596860000000  0.4438790000000 1.0
C      1  0.4616720000000  0.5602510000000  0.5680820000000 1.0
C      1  0.5046560000000  0.6032670000000  0.4397620000000 1.0
C      1  0.4599580000000  0.6130690000000  0.5180390000000 1.0
C      1  0.4340890000000  0.5127220000000  0.4204290000000 1.0
C      1  0.3979040000000  0.4924810000000  0.5643450000000 1.0
C      1  0.4076270000000  0.4456400000000  0.5748940000000 1.0
C      1  0.4417260000000  0.5891640000000  0.4792900000000 1.0
C      1  0.4871320000000  0.3961460000000  0.4471410000000 1.0
C      1  0.6061670000000  0.4696740000000  0.4352930000000 1.0
C      1  0.5340330000000  0.5453860000000  0.5117750000000 1.0
C      1  0.5469920000000  0.5326660000000  0.5347670000000 1.0
C      1  0.5666900000000  0.6004060000000  0.5215940000000 1.0
C      1  0.5275260000000  0.4905490000000  0.5341240000000 1.0
C      1  0.4421630000000  0.5044000000000  0.5909440000000 1.0
C      1  0.5297620000000  0.4060860000000  0.5453920000000 1.0
C      1  0.6053670000000  0.4288190000000  0.5741040000000 1.0
C      1  0.4100490000000  0.4280520000000  0.4287650000000 1.0
C      1  0.4567150000000  0.5307760000000  0.4903620000000 1.0
C      1  0.5283160000000  0.4920370000000  0.4135820000000 1.0
C      1  0.4658590000000  0.5120080000000  0.4718730000000 1.0
C      1  0.4685930000000  0.3874940000000  0.5375920000000 1.0
C      1  0.5058700000000  0.4944400000000  0.4903650000000 1.0
C      1  0.3882870000000  0.5939950000000  0.4724240000000 1.0
C      1  0.5007710000000  0.5866490000000  0.4159980000000 1.0
C      1  0.5125980000000  0.5534180000000  0.4698110000000 1.0
C      1  0.4215380000000  0.4324580000000  0.4787720000000 1.0
C      1  0.4098150000000  0.5995150000000  0.5844100000000 1.0
C      1  0.5085740000000  0.4814480000000  0.5848420000000 1.0
C      1  0.3810120000000  0.4545440000000  0.5351960000000 1.0
C      1  0.4742020000000  0.4137940000000  0.5924480000000 1.0
C      1  0.3959370000000  0.4875040000000  0.4838410000000 1.0
C      1  0.5519190000000  0.4244740000000  0.4305480000000 1.0
C      1  0.4589990000000  0.5906570000000  0.4559800000000 1.0
C      1  0.4040930000000  0.5332930000000  0.5042590000000 1.0
C      1  0.5355290000000  0.4609780000000  0.4609040000000 1.0
C      1  0.4310590000000  0.5605940000000  0.4273670000000 1.0
C      1  0.6015180000000  0.5682860000000  0.4809660000000 1.0
C      1  0.4140410000000  0.5915590000000  0.4755740000000 1.0
C      1  0.4253050000000  0.4862370000000  0.4146680000000 1.0
C      1  0.5577660000000  0.5283360000000  0.5822740000000 1.0
C      1  0.4992130000000  0.5317930000000  0.5803110000000 1.0
C      1  0.5513730000000  0.5096890000000  0.4640130000000 1.0
C      1  0.4907480000000  0.5136960000000  0.6430350000000 1.0
C      1  0.3685410000000  0.4730210000000  0.5174640000000 1.0
C      1  0.5171410000000  0.5153220000000  0.6398870000000 1.0
C      1  0.5060170000000  0.5487960000000  0.4987990000000 1.0
C      1  0.4913290000000  0.3761110000000  0.5470780000000 1.0
C      1  0.4544840000000  0.5759270000000  0.4313290000000 1.0
C      1  0.5234670000000  0.5748010000000  0.4025800000000 1.0
C      1  0.5240860000000  0.5322650000000  0.3673120000000 1.0
C      1  0.6108040000000  0.5222680000000  0.5427490000000 1.0
C      1  0.6118890000000  0.4161830000000  0.5232350000000 1.0
C      1  0.5806410000000  0.5276970000000  0.4297980000000 1.0
C      1  0.4880720000000  0.6217200000000  0.4813090000000 1.0
C      1  0.4738130000000  0.5241310000000  0.4482980000000 1.0
C      1  0.6076810000000  0.5905740000000  0.4969100000000 1.0
C      1  0.4609910000000  0.5648830000000  0.5198300000000 1.0
C      1  0.6443920000000  0.4412780000000  0.4905870000000 1.0
C      1  0.5988010000000  0.4988820000000  0.5373240000000 1.0
C      1  0.5641370000000  0.4555050000000  0.5922460000000 1.0
C      1  0.5635780000000  0.4826340000000  0.5996300000000 1.0
C      1  0.5530200000000  0.4491730000000  0.5044610000000 1.0
C      1  0.5739940000000  0.4864890000000  0.5325770000000 1.0
C      1  0.5764560000000  0.5087790000000  0.4503100000000 1.0
C      1  0.6337790000000  0.4303740000000  0.5125680000000 1.0
C      1  0.4414180000000  0.5488870000000  0.6098480000000 1.0
C      1  0.4816860000000  0.4816000000000  0.5286880000000 1.0
C      1  0.5395510000000  0.5153070000000  0.6255190000000 1.0
C      1  0.4803450000000  0.4073380000000  0.4212400000000 1.0
C      1  0.5813080000000  0.3964600000000  0.4843190000000 1.0
C      1  0.5920770000000  0.4857540000000  0.4541710000000 1.0
C      1  0.5416990000000  0.4441140000000  0.5778180000000 1.0
C      1  0.5489460000000  0.5910100000000  0.5421810000000 1.0
C      1  0.5192320000000  0.4359490000000  0.4647080000000 1.0
C      1  0.4408360000000  0.5031100000000  0.5341370000000 1.0
C      1  0.5405920000000  0.5595190000000  0.4657180000000 1.0
C      1  0.5561890000000  0.6116630000000  0.4974870000000 1.0
C      1  0.4288720000000  0.5367770000000  0.4910810000000 1.0
C      1  0.5451170000000  0.6148490000000  0.4731150000000 1.0
C      1  0.5176040000000  0.4540030000000  0.3723420000000 1.0
C      1  0.5514060000000  0.5041850000000  0.5339150000000 1.0
C      1  0.5177040000000  0.4353220000000  0.3941490000000 1.0
C      1  0.4992870000000  0.4147850000000  0.4010860000000 1.0
C      1  0.4979310000000  0.4035430000000  0.5846980000000 1.0
C      1  0.4136880000000  0.4986640000000  0.5878330000000 1.0
C      1  0.4658000000000  0.5144370000000  0.6337080000000 1.0
C      1  0.4816340000000  0.5214320000000  0.4030770000000 1.0
C      1  0.4332290000000  0.4160760000000  0.6169410000000 1.0
C      1  0.5238370000000  0.5558210000000  0.3809550000000 1.0
C      1  0.4319510000000  0.4318670000000  0.5713620000000 1.0
C      1  0.5064590000000  0.3951150000000  0.4978630000000 1.0
C      1  0.4466700000000  0.4206640000000  0.5933880000000 1.0
C      1  0.5406460000000  0.4161030000000  0.4561920000000 1.0
C      1  0.5550280000000  0.4954520000000  0.4026300000000 1.0
C      1  0.3737600000000  0.4686980000000  0.4887730000000 1.0
C      1  0.5003680000000  0.4994310000000  0.4055240000000 1.0
C      1  0.5099190000000  0.3923680000000  0.5613680000000 1.0
C      1  0.3991510000000  0.4986780000000  0.6114910000000 1.0
C      1  0.4376430000000  0.4619920000000  0.4063160000000 1.0
C      1  0.4826650000000  0.6067170000000  0.4578840000000 1.0
C      1  0.4638000000000  0.4662360000000  0.3970440000000 1.0
C      1  0.4096310000000  0.4237770000000  0.4550450000000 1.0
C      1  0.4416190000000  0.4318940000000  0.5447250000000 1.0
C      1  0.5198500000000  0.4789480000000  0.3615990000000 1.0
C      1  0.3865360000000  0.5120130000000  0.4972400000000 1.0
C      1  0.4176490000000  0.5359800000000  0.4231440000000 1.0
C      1  0.4900950000000  0.5569620000000  0.5706010000000 1.0
C      1  0.4446720000000  0.6283710000000  0.5344960000000 1.0
C      1  0.4844340000000  0.4347370000000  0.5318270000000 1.0
C      1  0.4054610000000  0.5327440000000  0.5337710000000 1.0
C      1  0.5821100000000  0.5542230000000  0.4387100000000 1.0
C      1  0.4540990000000  0.4164790000000  0.4158130000000 1.0
C      1  0.5889330000000  0.4562580000000  0.4167170000000 1.0
C      1  0.5294110000000  0.6119420000000  0.4512880000000 1.0
C      1  0.4326320000000  0.4350110000000  0.4139640000000 1.0
C      1  0.3594510000000  0.4540540000000  0.4710540000000 1.0
C      1  0.6055430000000  0.5744870000000  0.5413090000000 1.0
C      1  0.5679330000000  0.4583630000000  0.5270720000000 1.0
C      1  0.5698800000000  0.5834060000000  0.5851920000000 1.0
C      1  0.5056980000000  0.4904770000000  0.5181260000000 1.0
C      1  0.5341600000000  0.4422000000000  0.4163510000000 1.0
C      1  0.5890780000000  0.4414560000000  0.5919890000000 1.0
C      1  0.5457500000000  0.4216260000000  0.5023240000000 1.0
C      1  0.4850030000000  0.4752320000000  0.4124160000000 1.0
C      1  0.5548400000000  0.5092020000000  0.6027430000000 1.0
C      1  0.4714090000000  0.4564340000000  0.5149760000000 1.0
C      1  0.5534200000000  0.5531560000000  0.4909840000000 1.0
C      1  0.4301910000000  0.4809820000000  0.5188440000000 1.0
C      1  0.6035170000000  0.5652160000000  0.4532110000000 1.0
C      1  0.4944930000000  0.3923600000000  0.4732960000000 1.0
C      1  0.4643480000000  0.4947760000000  0.5466690000000 1.0
C      1  0.5720180000000  0.4349140000000  0.5429080000000 1.0
C      1  0.4355460000000  0.5945890000000  0.5923910000000 1.0
C      1  0.5562490000000  0.4628060000000  0.4802220000000 1.0
C      1  0.4512770000000  0.6146310000000  0.6024300000000 1.0
C      1  0.4701070000000  0.4595530000000  0.4823970000000 1.0
C      1  0.4224020000000  0.4788530000000  0.4910090000000 1.0
C      1  0.5462360000000  0.5763310000000  0.4185290000000 1.0
C      1  0.5266140000000  0.4675350000000  0.4321930000000 1.0
C      1  0.5261060000000  0.4065460000000  0.5161810000000 1.0
C      1  0.4618700000000  0.5176140000000  0.4239750000000 1.0
C      1  0.5947120000000  0.5925190000000  0.5222750000000 1.0
C      1  0.4952650000000  0.5422400000000  0.4509210000000 1.0
C      1  0.5162730000000  0.4565840000000  0.5737640000000 1.0
C      1  0.4653090000000  0.4986890000000  0.5744560000000 1.0
C      1  0.6122610000000  0.5488540000000  0.5457470000000 1.0
C      1  0.4516320000000  0.5883880000000  0.5066170000000 1.0
C      1  0.4797300000000  0.4892000000000  0.4795140000000 1.0
C      1  0.4771000000000  0.5470790000000  0.5040820000000 1.0
C      1  0.4949230000000  0.4626720000000  0.4358180000000 1.0
C      1  0.4084360000000  0.4244240000000  0.5026710000000 1.0
C      1  0.4500260000000  0.5527830000000  0.5433740000000 1.0
C      1  0.5222920000000  0.5060580000000  0.3601030000000 1.0
C      1  0.3731110000000  0.5012190000000  0.5220860000000 1.0
C      1  0.5724490000000  0.4728250000000  0.4003310000000 1.0
C      1  0.4761740000000  0.5725380000000  0.4122630000000 1.0
C      1  0.5564160000000  0.4083130000000  0.4789100000000 1.0
C      1  0.5543130000000  0.5450690000000  0.5596090000000 1.0
C      1  0.3928550000000  0.4642380000000  0.5595740000000 1.0
C      1  0.5982360000000  0.4248340000000  0.5469150000000 1.0
C      1  0.4861420000000  0.6200190000000  0.5093340000000 1.0
C      1  0.4481110000000  0.5218380000000  0.6133250000000 1.0
C      1  0.3904010000000  0.5346050000000  0.4221660000000 1.0
C      1  0.4460090000000  0.5683800000000  0.5902580000000 1.0
C      1  0.5824050000000  0.4709590000000  0.4756110000000 1.0
C      1  0.5073950000000  0.6135160000000  0.5264490000000 1.0
C      1  0.5488120000000  0.4252480000000  0.5568850000000 1.0
C      1  0.4327730000000  0.5300380000000  0.5403760000000 1.0
C      1  0.6437030000000  0.4501840000000  0.4654200000000 1.0
C      1  0.3917870000000  0.4314160000000  0.5226370000000 1.0
C      1  0.4909560000000  0.4466290000000  0.4611620000000 1.0
C      1  0.5279890000000  0.5041970000000  0.4760160000000 1.0
C      1  0.3882470000000  0.5115100000000  0.5447530000000 1.0
C      1  0.4920910000000  0.5043510000000  0.5830790000000 1.0
END
