TITL C-3623282-6910-568 664.661745371342 125000 -980.24612435467 0 0 161 (C1) n - 1
REM
REM in /home/nfs/bkarasulu/CARBON/AIRSS/Generating-Clusters/LCBOP/Higher-Symm/SD-CG/FIRE-CG
REM
REM
REM
REM
REM
REM ./C.cell (b20cbc046b6831c77cfcea5457e17084)
REM AIRSS Version 0.9.1 bugfix July 2018 build 013d7b7c2542+ Fri, 06 Jul 2018 19:26:36 +0100
REM compiler GCC version 9.2.1 20190827 (Red Hat 9.2.1-1)
REM options -cpp -mtune=generic -march=x86-64 -g -O0 -fpre-include=/usr/include/finclude/math-vector-fortran.h
REM seed 585025891 -909244548 383819358 -147540173 1985167994 -37620884 -1806049786 306091468 -1859553296 535453113 -1878102090 -888295349 -1855722799 449307401 886663485 1662701578 1031299750 317241821 -566121675 -1591744105 1885412753 -767325912 -1894359516 -988583215 -343159259 -1446278899 1207316492 -1966728077 -2048343567 946773559 -1588311555 -528608951 1741576499
REM
CELL 1.54180   50.00000   50.00000   50.00000   90.00000   90.00000   90.00000
LATT -1
SFAC C  
C      1  0.5382920000000  0.5717940000000  0.4881860000000 1.0
C      1  0.5891380000000  0.4639450000000  0.5515570000000 1.0
C      1  0.4889230000000  0.5096860000000  0.4056020000000 1.0
C      1  0.5171630000000  0.5630170000000  0.5300500000000 1.0
C      1  0.5196590000000  0.6131860000000  0.5423790000000 1.0
C      1  0.4578990000000  0.4095470000000  0.5189810000000 1.0
C      1  0.4443660000000  0.5575230000000  0.4216530000000 1.0
C      1  0.4216450000000  0.4975590000000  0.4923570000000 1.0
C      1  0.5128870000000  0.5139500000000  0.5580560000000 1.0
C      1  0.4710660000000  0.3973210000000  0.4734550000000 1.0
C      1  0.4394610000000  0.4290960000000  0.5090470000000 1.0
C      1  0.4675070000000  0.4333060000000  0.4424900000000 1.0
C      1  0.5804230000000  0.4166140000000  0.4944670000000 1.0
C      1  0.4494670000000  0.4543810000000  0.4676460000000 1.0
C      1  0.6096530000000  0.4538740000000  0.4960180000000 1.0
C      1  0.4942190000000  0.5216560000000  0.5381910000000 1.0
C      1  0.4470550000000  0.3872540000000  0.4629540000000 1.0
C      1  0.5778650000000  0.4406640000000  0.5352100000000 1.0
C      1  0.4898220000000  0.5871020000000  0.4428950000000 1.0
C      1  0.4860940000000  0.5841790000000  0.4977150000000 1.0
C      1  0.5984170000000  0.4319130000000  0.5117270000000 1.0
C      1  0.5383360000000  0.4759300000000  0.5645270000000 1.0
C      1  0.4825140000000  0.4734830000000  0.4457190000000 1.0
C      1  0.4340460000000  0.4678150000000  0.4191960000000 1.0
C      1  0.4731550000000  0.4398550000000  0.5823800000000 1.0
C      1  0.4579000000000  0.4214500000000  0.5659020000000 1.0
C      1  0.5649940000000  0.4172720000000  0.5499420000000 1.0
C      1  0.5354500000000  0.3955370000000  0.4707030000000 1.0
C      1  0.5605680000000  0.4801220000000  0.4694480000000 1.0
C      1  0.5136060000000  0.6007650000000  0.4552920000000 1.0
C      1  0.5832010000000  0.5674410000000  0.5050300000000 1.0
C      1  0.4854740000000  0.5364780000000  0.3959920000000 1.0
C      1  0.5558550000000  0.6113850000000  0.5095740000000 1.0
C      1  0.5414680000000  0.4119340000000  0.4413620000000 1.0
C      1  0.5622190000000  0.5853060000000  0.5001280000000 1.0
C      1  0.5048850000000  0.4318850000000  0.4708800000000 1.0
C      1  0.5362190000000  0.5983320000000  0.4355770000000 1.0
C      1  0.4568150000000  0.4622390000000  0.5942700000000 1.0
C      1  0.4046810000000  0.5361580000000  0.4685250000000 1.0
C      1  0.4800490000000  0.5702500000000  0.5957490000000 1.0
C      1  0.4283980000000  0.3964860000000  0.4457970000000 1.0
C      1  0.4238760000000  0.4413410000000  0.4197130000000 1.0
C      1  0.4636060000000  0.5987150000000  0.4826020000000 1.0
C      1  0.5952880000000  0.5248950000000  0.4473780000000 1.0
C      1  0.3874940000000  0.5477080000000  0.5301280000000 1.0
C      1  0.5174940000000  0.5920150000000  0.5639200000000 1.0
C      1  0.4903630000000  0.5772460000000  0.6201670000000 1.0
C      1  0.4742080000000  0.5554610000000  0.4935870000000 1.0
C      1  0.4113720000000  0.4328900000000  0.5107640000000 1.0
C      1  0.4596670000000  0.5478960000000  0.4014460000000 1.0
C      1  0.4162680000000  0.4890510000000  0.4146850000000 1.0
C      1  0.4017020000000  0.5093780000000  0.4238540000000 1.0
C      1  0.5383410000000  0.5020720000000  0.5522520000000 1.0
C      1  0.5891070000000  0.4520620000000  0.4413230000000 1.0
C      1  0.5426270000000  0.5589610000000  0.4628550000000 1.0
C      1  0.4895950000000  0.5834110000000  0.5720380000000 1.0
C      1  0.4489040000000  0.5509140000000  0.5128250000000 1.0
C      1  0.4380720000000  0.5957010000000  0.4954200000000 1.0
C      1  0.5980460000000  0.4870060000000  0.5358850000000 1.0
C      1  0.4605600000000  0.4736870000000  0.4283300000000 1.0
C      1  0.4891280000000  0.4350340000000  0.4137830000000 1.0
C      1  0.4783790000000  0.5247520000000  0.4539160000000 1.0
C      1  0.6008220000000  0.4799680000000  0.5066110000000 1.0
C      1  0.5115610000000  0.5289940000000  0.4930360000000 1.0
C      1  0.4376500000000  0.4747170000000  0.5360800000000 1.0
C      1  0.4016690000000  0.5184440000000  0.4914670000000 1.0
C      1  0.4371880000000  0.4887530000000  0.4702450000000 1.0
C      1  0.4487140000000  0.4891230000000  0.5844880000000 1.0
C      1  0.4341230000000  0.4973030000000  0.5180940000000 1.0
C      1  0.4692020000000  0.4048800000000  0.5449990000000 1.0
C      1  0.5277010000000  0.5248430000000  0.6116240000000 1.0
C      1  0.4950960000000  0.3914930000000  0.5408910000000 1.0
C      1  0.5777950000000  0.5345080000000  0.5648450000000 1.0
C      1  0.5356540000000  0.4912430000000  0.5079310000000 1.0
C      1  0.4637000000000  0.5881520000000  0.4549750000000 1.0
C      1  0.5895820000000  0.5156220000000  0.5438140000000 1.0
C      1  0.4495960000000  0.5669310000000  0.5410240000000 1.0
C      1  0.5225450000000  0.3947950000000  0.5289230000000 1.0
C      1  0.5794520000000  0.5378220000000  0.4279230000000 1.0
C      1  0.5257880000000  0.5516370000000  0.5061240000000 1.0
C      1  0.4706280000000  0.4938360000000  0.5642630000000 1.0
C      1  0.5379290000000  0.4787190000000  0.6091460000000 1.0
C      1  0.5453170000000  0.5799580000000  0.4162020000000 1.0
C      1  0.5078870000000  0.5527130000000  0.4039150000000 1.0
C      1  0.4291550000000  0.5681150000000  0.4960350000000 1.0
C      1  0.4875360000000  0.4841590000000  0.3929210000000 1.0
C      1  0.4999980000000  0.4266330000000  0.4988180000000 1.0
C      1  0.5232320000000  0.5011260000000  0.4394690000000 1.0
C      1  0.5530420000000  0.4479950000000  0.5168160000000 1.0
C      1  0.5042670000000  0.4495320000000  0.5149970000000 1.0
C      1  0.5233060000000  0.4505260000000  0.4599680000000 1.0
C      1  0.5180410000000  0.4293610000000  0.4213550000000 1.0
C      1  0.4741860000000  0.5793620000000  0.5476870000000 1.0
C      1  0.3902650000000  0.5000920000000  0.5374200000000 1.0
C      1  0.4236840000000  0.5578990000000  0.4693390000000 1.0
C      1  0.5942580000000  0.5319220000000  0.4747760000000 1.0
C      1  0.5014350000000  0.4419090000000  0.5760770000000 1.0
C      1  0.4664680000000  0.4727230000000  0.5412980000000 1.0
C      1  0.5254980000000  0.4556540000000  0.4306550000000 1.0
C      1  0.5650690000000  0.4349130000000  0.4453330000000 1.0
C      1  0.5606030000000  0.4923680000000  0.4146480000000 1.0
C      1  0.4931630000000  0.5794190000000  0.5266030000000 1.0
C      1  0.4421190000000  0.5685900000000  0.4479810000000 1.0
C      1  0.3892590000000  0.5222780000000  0.5178870000000 1.0
C      1  0.5584930000000  0.5557620000000  0.5570480000000 1.0
C      1  0.5536780000000  0.5321680000000  0.6089770000000 1.0
C      1  0.3962170000000  0.5265380000000  0.4435160000000 1.0
C      1  0.5814430000000  0.4880620000000  0.4870120000000 1.0
C      1  0.5306340000000  0.3913970000000  0.4989400000000 1.0
C      1  0.6033060000000  0.4992390000000  0.4382950000000 1.0
C      1  0.5348420000000  0.4810110000000  0.4217590000000 1.0
C      1  0.5200000000000  0.4210640000000  0.5700810000000 1.0
C      1  0.4858370000000  0.4885910000000  0.4994020000000 1.0
C      1  0.5814990000000  0.4656840000000  0.5790280000000 1.0
C      1  0.4988630000000  0.4946330000000  0.5782710000000 1.0
C      1  0.5492390000000  0.5065420000000  0.5269440000000 1.0
C      1  0.4859790000000  0.4569310000000  0.3952700000000 1.0
C      1  0.4206730000000  0.4166890000000  0.4298470000000 1.0
C      1  0.4539140000000  0.4488950000000  0.4949010000000 1.0
C      1  0.4237740000000  0.4550130000000  0.5510650000000 1.0
C      1  0.5223410000000  0.5525440000000  0.4468900000000 1.0
C      1  0.5147510000000  0.5953840000000  0.4870330000000 1.0
C      1  0.4371080000000  0.5394270000000  0.5800940000000 1.0
C      1  0.4047060000000  0.5044030000000  0.5627330000000 1.0
C      1  0.5751700000000  0.5295300000000  0.5927110000000 1.0
C      1  0.4022840000000  0.5595530000000  0.5492710000000 1.0
C      1  0.5021130000000  0.5642090000000  0.4303690000000 1.0
C      1  0.4281180000000  0.5105650000000  0.5795270000000 1.0
C      1  0.5276490000000  0.6137930000000  0.5142060000000 1.0
C      1  0.3915930000000  0.4505060000000  0.5165710000000 1.0
C      1  0.4286890000000  0.5575500000000  0.5588260000000 1.0
C      1  0.4594940000000  0.5502160000000  0.5944100000000 1.0
C      1  0.5374600000000  0.4092440000000  0.5502500000000 1.0
C      1  0.5332570000000  0.5689190000000  0.5532860000000 1.0
C      1  0.5840800000000  0.5394330000000  0.5003180000000 1.0
C      1  0.4810010000000  0.4851920000000  0.4716720000000 1.0
C      1  0.5297730000000  0.4638470000000  0.5154580000000 1.0
C      1  0.4835330000000  0.4176010000000  0.4577850000000 1.0
C      1  0.4973570000000  0.5125230000000  0.4337450000000 1.0
C      1  0.5581030000000  0.4344730000000  0.4920590000000 1.0
C      1  0.5738450000000  0.6314020000000  0.5133400000000 1.0
C      1  0.5517780000000  0.4511070000000  0.4686410000000 1.0
C      1  0.5852560000000  0.4792340000000  0.4275990000000 1.0
C      1  0.5726290000000  0.5222660000000  0.5204620000000 1.0
C      1  0.5553360000000  0.4714520000000  0.5871760000000 1.0
C      1  0.4479220000000  0.5220000000000  0.5252370000000 1.0
C      1  0.5384660000000  0.5516990000000  0.4045420000000 1.0
C      1  0.4786770000000  0.4056520000000  0.4997900000000 1.0
C      1  0.5111260000000  0.4675700000000  0.5701060000000 1.0
C      1  0.4952020000000  0.5126960000000  0.5118050000000 1.0
C      1  0.4601350000000  0.5052490000000  0.4650270000000 1.0
C      1  0.4892210000000  0.5393940000000  0.4758370000000 1.0
C      1  0.4673340000000  0.5187110000000  0.5470090000000 1.0
C      1  0.6076930000000  0.4513580000000  0.4657130000000 1.0
C      1  0.5297350000000  0.5079500000000  0.4857830000000 1.0
C      1  0.5402190000000  0.4994330000000  0.4622390000000 1.0
C      1  0.3838680000000  0.4739140000000  0.5277970000000 1.0
C      1  0.4312820000000  0.4311950000000  0.5617890000000 1.0
C      1  0.4794280000000  0.4653710000000  0.5159740000000 1.0
C      1  0.5578480000000  0.5288810000000  0.4114840000000 1.0
C      1  0.5168920000000  0.4994280000000  0.6048780000000 1.0
END
