TITL C-3623289-7120-494 -163317.235630859 125000 -550.287148422817 0 0 96 (C1) n - 1
REM
REM in /home/nfs/bkarasulu/CARBON/AIRSS/Generating-Clusters/LCBOP/Higher-Symm/SD-CG/FIRE-CG
REM
REM
REM
REM
REM
REM ./C.cell (b20cbc046b6831c77cfcea5457e17084)
REM AIRSS Version 0.9.1 bugfix July 2018 build 013d7b7c2542+ Fri, 06 Jul 2018 19:26:36 +0100
REM compiler GCC version 9.2.1 20190827 (Red Hat 9.2.1-1)
REM options -cpp -mtune=generic -march=x86-64 -g -O0 -fpre-include=/usr/include/finclude/math-vector-fortran.h
REM seed -213324504 -377762216 1897523414 -829823858 1095993809 -1043288679 83068394 -1943477314 -740279955 -1270172440 501118596 -1646293011 -1793987785 1793954452 1796745897 523601308 -860223315 302586145 861104882 -1965176517 -1453064288 1339237981 -149742630 -622283723 933852512 -1924388670 -1259988132 -1279366904 -947843256 1390178447 632625902 -61900695 1574396795
REM
CELL 1.54180   50.00000   50.00000   50.00000   90.00000   90.00000   90.00000
LATT -1
SFAC C  
C      1  0.4738750000000  0.5768360000000  0.5790450000000 1.0
C      1  0.4891120000000  0.4463390000000  0.5890060000000 1.0
C      1  0.4410770000000  0.4030270000000  0.4663540000000 1.0
C      1  0.4993110000000  0.4985220000000  0.3878790000000 1.0
C      1  0.4585010000000  0.5940070000000  0.4686390000000 1.0
C      1  0.5226030000000  0.5782220000000  0.5861780000000 1.0
C      1  0.5415650000000  0.4503690000000  0.5798030000000 1.0
C      1  0.4904010000000  0.3875730000000  0.4711940000000 1.0
C      1  0.5501970000000  0.5026760000000  0.4030420000000 1.0
C      1  0.5125770000000  0.5957310000000  0.4608380000000 1.0
C      1  0.5011190000000  0.3952670000000  0.5499700000000 1.0
C      1  0.4788880000000  0.4339920000000  0.4074500000000 1.0
C      1  0.4972230000000  0.5582200000000  0.4132080000000 1.0
C      1  0.4782540000000  0.6034310000000  0.5259310000000 1.0
C      1  0.4869500000000  0.5195530000000  0.6123290000000 1.0
C      1  0.5275480000000  0.3980430000000  0.5451700000000 1.0
C      1  0.5059140000000  0.4327090000000  0.4059090000000 1.0
C      1  0.5234820000000  0.5581530000000  0.4213260000000 1.0
C      1  0.5051340000000  0.6086540000000  0.5227790000000 1.0
C      1  0.5143450000000  0.5202540000000  0.6124990000000 1.0
C      1  0.4389680000000  0.4491470000000  0.4428140000000 1.0
C      1  0.4572380000000  0.5205510000000  0.4119070000000 1.0
C      1  0.4388710000000  0.5677930000000  0.5101420000000 1.0
C      1  0.4492180000000  0.5311690000000  0.5747460000000 1.0
C      1  0.4563650000000  0.4250590000000  0.5557990000000 1.0
C      1  0.5257030000000  0.4032220000000  0.4400650000000 1.0
C      1  0.5595900000000  0.5269580000000  0.4494450000000 1.0
C      1  0.5481060000000  0.5811770000000  0.4969790000000 1.0
C      1  0.5481580000000  0.5335630000000  0.5727050000000 1.0
C      1  0.5613920000000  0.4396670000000  0.5337320000000 1.0
C      1  0.4647520000000  0.4407680000000  0.4805370000000 1.0
C      1  0.4854750000000  0.4940990000000  0.4327040000000 1.0
C      1  0.4609020000000  0.5504360000000  0.4753700000000 1.0
C      1  0.4873260000000  0.5371020000000  0.5484680000000 1.0
C      1  0.4732080000000  0.4663340000000  0.5488650000000 1.0
C      1  0.5191520000000  0.4280990000000  0.4767600000000 1.0
C      1  0.5304460000000  0.4940840000000  0.4428320000000 1.0
C      1  0.5168760000000  0.5547040000000  0.4799130000000 1.0
C      1  0.5143580000000  0.5495620000000  0.5485710000000 1.0
C      1  0.5327930000000  0.4719320000000  0.5394460000000 1.0
C      1  0.4668480000000  0.4488620000000  0.5708770000000 1.0
C      1  0.4392230000000  0.4316690000000  0.4667960000000 1.0
C      1  0.4766760000000  0.4985740000000  0.4054410000000 1.0
C      1  0.4434970000000  0.5710900000000  0.4797670000000 1.0
C      1  0.4660230000000  0.5539010000000  0.5650950000000 1.0
C      1  0.5528930000000  0.4580640000000  0.5544110000000 1.0
C      1  0.5147090000000  0.4012130000000  0.4668610000000 1.0
C      1  0.5560570000000  0.5035160000000  0.4314140000000 1.0
C      1  0.5335470000000  0.5769520000000  0.4708380000000 1.0
C      1  0.5317800000000  0.5574900000000  0.5698910000000 1.0
C      1  0.5245790000000  0.5906510000000  0.5120300000000 1.0
C      1  0.5304050000000  0.5159320000000  0.5895490000000 1.0
C      1  0.5380400000000  0.4216300000000  0.5348260000000 1.0
C      1  0.5217140000000  0.4299730000000  0.4291150000000 1.0
C      1  0.5360570000000  0.5414180000000  0.4407040000000 1.0
C      1  0.4636230000000  0.5800580000000  0.5190310000000 1.0
C      1  0.4705470000000  0.5165050000000  0.5893620000000 1.0
C      1  0.4822250000000  0.4151010000000  0.5456310000000 1.0
C      1  0.4653940000000  0.4395710000000  0.4311710000000 1.0
C      1  0.4768900000000  0.5401610000000  0.4217610000000 1.0
C      1  0.5318550000000  0.4985190000000  0.5454150000000 1.0
C      1  0.5281130000000  0.4437070000000  0.4975680000000 1.0
C      1  0.5316570000000  0.4731470000000  0.4612020000000 1.0
C      1  0.5170560000000  0.5240670000000  0.4798570000000 1.0
C      1  0.5262660000000  0.5481020000000  0.5233120000000 1.0
C      1  0.4664600000000  0.4934060000000  0.5488320000000 1.0
C      1  0.4650250000000  0.4387000000000  0.5086020000000 1.0
C      1  0.4741280000000  0.4779860000000  0.4523400000000 1.0
C      1  0.4678520000000  0.5240220000000  0.4656220000000 1.0
C      1  0.4769240000000  0.5325210000000  0.5187150000000 1.0
C      1  0.5521190000000  0.5204020000000  0.5448380000000 1.0
C      1  0.5529250000000  0.4577640000000  0.5020950000000 1.0
C      1  0.5485390000000  0.4817710000000  0.4846890000000 1.0
C      1  0.5477590000000  0.5183630000000  0.4849610000000 1.0
C      1  0.5501980000000  0.5433720000000  0.5118710000000 1.0
C      1  0.4434160000000  0.5159200000000  0.5479110000000 1.0
C      1  0.4437240000000  0.4315230000000  0.5289790000000 1.0
C      1  0.4445290000000  0.4795340000000  0.4478850000000 1.0
C      1  0.4425220000000  0.5085030000000  0.4430460000000 1.0
C      1  0.4451600000000  0.5343670000000  0.5236840000000 1.0
C      1  0.5137850000000  0.4476080000000  0.4538220000000 1.0
C      1  0.5160800000000  0.5204020000000  0.4505010000000 1.0
C      1  0.5087690000000  0.5650520000000  0.5068050000000 1.0
C      1  0.5154600000000  0.5023960000000  0.5685460000000 1.0
C      1  0.5169200000000  0.4423480000000  0.5243610000000 1.0
C      1  0.4833230000000  0.4502410000000  0.4552640000000 1.0
C      1  0.4887660000000  0.5223900000000  0.4438500000000 1.0
C      1  0.4815150000000  0.5594590000000  0.5074380000000 1.0
C      1  0.4875570000000  0.5095770000000  0.5642500000000 1.0
C      1  0.4889680000000  0.4408640000000  0.5275420000000 1.0
C      1  0.4634870000000  0.3877800000000  0.4689790000000 1.0
C      1  0.4970090000000  0.5864120000000  0.5890100000000 1.0
C      1  0.5163980000000  0.4469500000000  0.5900910000000 1.0
C      1  0.4850420000000  0.5993820000000  0.4621230000000 1.0
C      1  0.5265960000000  0.5004110000000  0.3891160000000 1.0
C      1  0.4879510000000  0.5155110000000  0.4927460000000 1.0
END
