TITL C-3623285-6872-1431 -60615.1294813426 125000 -743.882997573119 0 0 119 (C1) n - 1
REM
REM in /home/nfs/bkarasulu/CARBON/AIRSS/Generating-Clusters/LCBOP/Higher-Symm/SD-CG/FIRE-CG
REM
REM
REM
REM
REM
REM ./C.cell (b20cbc046b6831c77cfcea5457e17084)
REM AIRSS Version 0.9.1 bugfix July 2018 build 013d7b7c2542+ Fri, 06 Jul 2018 19:26:36 +0100
REM compiler GCC version 9.2.1 20190827 (Red Hat 9.2.1-1)
REM options -cpp -mtune=generic -march=x86-64 -g -O0 -fpre-include=/usr/include/finclude/math-vector-fortran.h
REM seed -251704538 -577340417 -84046901 950062311 666581239 -65963813 -990300018 -92379115 -40697048 1615463121 -1986350535 457311485 461784582 975545127 1074617165 -1199120085 634836851 1023868060 -1938763630 -764804219 192012431 1340611726 979009619 -2058651374 621125503 1006332496 1357773045 -1506122735 -1363688168 -486412659 111420064 -630982340 1720411670
REM
CELL 1.54180   50.00000   50.00000   50.00000   90.00000   90.00000   90.00000
LATT -1
SFAC C  
C      1  0.4446650000000  0.4517640000000  0.5492700000000 1.0
C      1  0.4428350000000  0.4800590000000  0.4436100000000 1.0
C      1  0.4274370000000  0.5548890000000  0.5201060000000 1.0
C      1  0.5066130000000  0.4700110000000  0.3702570000000 1.0
C      1  0.5049060000000  0.6193360000000  0.5033370000000 1.0
C      1  0.5091620000000  0.4048970000000  0.6047590000000 1.0
C      1  0.4670170000000  0.5945120000000  0.4403910000000 1.0
C      1  0.4985400000000  0.4955800000000  0.6134350000000 1.0
C      1  0.5069070000000  0.4079730000000  0.4492880000000 1.0
C      1  0.4294800000000  0.5493710000000  0.4726180000000 1.0
C      1  0.4422720000000  0.4957610000000  0.5681480000000 1.0
C      1  0.4528720000000  0.4434380000000  0.4718850000000 1.0
C      1  0.4894940000000  0.4385820000000  0.5656080000000 1.0
C      1  0.4881850000000  0.4833170000000  0.4208180000000 1.0
C      1  0.4676180000000  0.5858800000000  0.5233120000000 1.0
C      1  0.5033500000000  0.5025110000000  0.4357340000000 1.0
C      1  0.4819520000000  0.5664610000000  0.5388610000000 1.0
C      1  0.5051880000000  0.4448490000000  0.5426390000000 1.0
C      1  0.5311030000000  0.4340510000000  0.5366550000000 1.0
C      1  0.5230130000000  0.5204050000000  0.4250840000000 1.0
C      1  0.5000850000000  0.5721170000000  0.5606740000000 1.0
C      1  0.4840760000000  0.5403410000000  0.5244880000000 1.0
C      1  0.4956550000000  0.4686860000000  0.5266910000000 1.0
C      1  0.4988600000000  0.5034370000000  0.4649800000000 1.0
C      1  0.5621090000000  0.5035740000000  0.5049000000000 1.0
C      1  0.5452680000000  0.5657220000000  0.5029130000000 1.0
C      1  0.5568350000000  0.5092960000000  0.5353060000000 1.0
C      1  0.5290810000000  0.6103350000000  0.5157840000000 1.0
C      1  0.5377570000000  0.4058050000000  0.6052870000000 1.0
C      1  0.5345160000000  0.4757780000000  0.3675120000000 1.0
C      1  0.5607910000000  0.3869530000000  0.6502830000000 1.0
C      1  0.5597410000000  0.4495130000000  0.3276960000000 1.0
C      1  0.5705500000000  0.6054830000000  0.4899930000000 1.0
C      1  0.4943830000000  0.3898180000000  0.6230640000000 1.0
C      1  0.4919290000000  0.4578160000000  0.3498320000000 1.0
C      1  0.5048260000000  0.6381080000000  0.4827430000000 1.0
C      1  0.5142340000000  0.6536340000000  0.4633370000000 1.0
C      1  0.4866430000000  0.3756520000000  0.6441670000000 1.0
C      1  0.4847180000000  0.4439980000000  0.3283140000000 1.0
C      1  0.4959220000000  0.4195200000000  0.5848100000000 1.0
C      1  0.4938150000000  0.4772200000000  0.3941640000000 1.0
C      1  0.4809850000000  0.6086800000000  0.5138410000000 1.0
C      1  0.5217460000000  0.3884770000000  0.4602380000000 1.0
C      1  0.4797370000000  0.5975650000000  0.4169620000000 1.0
C      1  0.5013330000000  0.5149680000000  0.6317370000000 1.0
C      1  0.5123680000000  0.5347240000000  0.5190800000000 1.0
C      1  0.5190270000000  0.4861980000000  0.5247250000000 1.0
C      1  0.5232610000000  0.5088820000000  0.4809440000000 1.0
C      1  0.4957590000000  0.4935020000000  0.5851660000000 1.0
C      1  0.5020080000000  0.4351930000000  0.4551360000000 1.0
C      1  0.4710350000000  0.5790360000000  0.4636790000000 1.0
C      1  0.5107270000000  0.3572160000000  0.6846770000000 1.0
C      1  0.5103580000000  0.4217800000000  0.2907580000000 1.0
C      1  0.5609260000000  0.6574090000000  0.4448660000000 1.0
C      1  0.4305750000000  0.5315730000000  0.4508220000000 1.0
C      1  0.4342910000000  0.5228330000000  0.5634010000000 1.0
C      1  0.4614710000000  0.4440170000000  0.4992270000000 1.0
C      1  0.5825280000000  0.6215570000000  0.4725170000000 1.0
C      1  0.5562840000000  0.3733910000000  0.6727710000000 1.0
C      1  0.5559940000000  0.4348030000000  0.3057960000000 1.0
C      1  0.4282090000000  0.4754910000000  0.5515950000000 1.0
C      1  0.4324160000000  0.4632310000000  0.4649830000000 1.0
C      1  0.4162450000000  0.5407400000000  0.4971640000000 1.0
C      1  0.5129880000000  0.5972190000000  0.5609000000000 1.0
C      1  0.5473940000000  0.4259560000000  0.5579820000000 1.0
C      1  0.5410080000000  0.5105400000000  0.4060470000000 1.0
C      1  0.5189590000000  0.5673180000000  0.4121870000000 1.0
C      1  0.5085080000000  0.5557950000000  0.6061380000000 1.0
C      1  0.5456030000000  0.4045490000000  0.5006630000000 1.0
C      1  0.5424300000000  0.4521960000000  0.4907780000000 1.0
C      1  0.5230700000000  0.5572070000000  0.4595190000000 1.0
C      1  0.5284910000000  0.5316900000000  0.5686880000000 1.0
C      1  0.5503900000000  0.4155780000000  0.5822510000000 1.0
C      1  0.5453070000000  0.4947540000000  0.3851000000000 1.0
C      1  0.5284320000000  0.6110550000000  0.5439440000000 1.0
C      1  0.5118150000000  0.5528590000000  0.5783950000000 1.0
C      1  0.5409540000000  0.4307020000000  0.5101070000000 1.0
C      1  0.5237370000000  0.5480490000000  0.4322180000000 1.0
C      1  0.4482290000000  0.5711300000000  0.4793790000000 1.0
C      1  0.4690100000000  0.4833990000000  0.5768300000000 1.0
C      1  0.4750760000000  0.4452890000000  0.4514960000000 1.0
C      1  0.4130970000000  0.4719640000000  0.4832800000000 1.0
C      1  0.4028680000000  0.5164290000000  0.4994640000000 1.0
C      1  0.4096680000000  0.4810990000000  0.5313900000000 1.0
C      1  0.5242360000000  0.4487850000000  0.4683810000000 1.0
C      1  0.4983450000000  0.5700850000000  0.4673720000000 1.0
C      1  0.5198240000000  0.5032230000000  0.5699360000000 1.0
C      1  0.5528010000000  0.3978670000000  0.6274150000000 1.0
C      1  0.5507930000000  0.4630710000000  0.3487210000000 1.0
C      1  0.5486430000000  0.5939170000000  0.5029670000000 1.0
C      1  0.5050850000000  0.5413490000000  0.6284140000000 1.0
C      1  0.5379670000000  0.3874060000000  0.4815770000000 1.0
C      1  0.5013850000000  0.5864510000000  0.4056800000000 1.0
C      1  0.4757390000000  0.4898530000000  0.5356160000000 1.0
C      1  0.4888730000000  0.4785880000000  0.4789880000000 1.0
C      1  0.4729500000000  0.5365550000000  0.4963940000000 1.0
C      1  0.5370620000000  0.4235770000000  0.2906350000000 1.0
C      1  0.5798110000000  0.6412930000000  0.4547750000000 1.0
C      1  0.5370680000000  0.3613740000000  0.6869350000000 1.0
C      1  0.5593690000000  0.4750060000000  0.4968070000000 1.0
C      1  0.5442570000000  0.5501120000000  0.4786380000000 1.0
C      1  0.5478460000000  0.5357420000000  0.5461070000000 1.0
C      1  0.5497430000000  0.5214140000000  0.4829330000000 1.0
C      1  0.5355660000000  0.5508260000000  0.5249300000000 1.0
C      1  0.5354340000000  0.4913300000000  0.5474700000000 1.0
C      1  0.5348270000000  0.6618290000000  0.4485240000000 1.0
C      1  0.4913710000000  0.3632220000000  0.6672560000000 1.0
C      1  0.4902280000000  0.4302780000000  0.3061470000000 1.0
C      1  0.4456620000000  0.5751900000000  0.5087800000000 1.0
C      1  0.4666660000000  0.4549840000000  0.5681970000000 1.0
C      1  0.4682300000000  0.4686930000000  0.4347420000000 1.0
C      1  0.4283430000000  0.5426300000000  0.5457650000000 1.0
C      1  0.4480730000000  0.4392670000000  0.5238350000000 1.0
C      1  0.4348890000000  0.5069160000000  0.4410610000000 1.0
C      1  0.4733770000000  0.5161790000000  0.5376530000000 1.0
C      1  0.4840430000000  0.4613530000000  0.5006780000000 1.0
C      1  0.4784260000000  0.5237000000000  0.4734890000000 1.0
C      1  0.4062490000000  0.4890470000000  0.5046130000000 1.0
C      1  0.5160290000000  0.5087580000000  0.5084240000000 1.0
END
