TITL C-3623283-6828-1445 1.21922905399669 125000 -898.912668263824 0 0 147 (C1) n - 1
REM
REM in /home/nfs/bkarasulu/CARBON/AIRSS/Generating-Clusters/LCBOP/Higher-Symm/SD-CG/FIRE-CG
REM
REM
REM
REM
REM
REM ./C.cell (b20cbc046b6831c77cfcea5457e17084)
REM AIRSS Version 0.9.1 bugfix July 2018 build 013d7b7c2542+ Fri, 06 Jul 2018 19:26:36 +0100
REM compiler GCC version 9.2.1 20190827 (Red Hat 9.2.1-1)
REM options -cpp -mtune=generic -march=x86-64 -g -O0 -fpre-include=/usr/include/finclude/math-vector-fortran.h
REM seed 1793173252 -384063761 1090274627 -1972467775 -1354270800 882890559 -1579670189 398790767 -826631033 1017193658 -1770041780 405590020 1949384691 -1438539531 1792478054 -558443652 1890031366 -1558909889 365405438 -644828452 1397480428 1575143727 -1209031810 895320398 519210309 1921983185 866766523 -1131494614 1917555707 -533082057 -605256079 -1005441054 2116594558
REM
CELL 1.54180   50.00000   50.00000   50.00000   90.00000   90.00000   90.00000
LATT -1
SFAC C  
C      1  0.4983560000000  0.5491520000000  0.5171200000000 1.0
C      1  0.5121700000000  0.4382330000000  0.5045190000000 1.0
C      1  0.4998200000000  0.5321110000000  0.4942710000000 1.0
C      1  0.5070350000000  0.4410190000000  0.4763740000000 1.0
C      1  0.5888000000000  0.4014700000000  0.4346360000000 1.0
C      1  0.4029250000000  0.5026230000000  0.4738900000000 1.0
C      1  0.5956900000000  0.3829130000000  0.5091480000000 1.0
C      1  0.4061310000000  0.5118020000000  0.5501890000000 1.0
C      1  0.4619450000000  0.4062750000000  0.4780040000000 1.0
C      1  0.5446210000000  0.6332610000000  0.4831920000000 1.0
C      1  0.4664560000000  0.4112290000000  0.5060900000000 1.0
C      1  0.5318510000000  0.6479600000000  0.5048170000000 1.0
C      1  0.4294620000000  0.4010740000000  0.4222500000000 1.0
C      1  0.5886940000000  0.5961980000000  0.4609350000000 1.0
C      1  0.4455610000000  0.3907250000000  0.5613400000000 1.0
C      1  0.5307380000000  0.6606750000000  0.5652940000000 1.0
C      1  0.4029020000000  0.5398000000000  0.5439890000000 1.0
C      1  0.5742190000000  0.3649530000000  0.5030920000000 1.0
C      1  0.4034870000000  0.5313260000000  0.4736470000000 1.0
C      1  0.5682200000000  0.3815600000000  0.4335900000000 1.0
C      1  0.5047040000000  0.4456990000000  0.4064000000000 1.0
C      1  0.4258950000000  0.5816080000000  0.3946450000000 1.0
C      1  0.5264980000000  0.3291100000000  0.5794710000000 1.0
C      1  0.4837220000000  0.5877810000000  0.5788520000000 1.0
C      1  0.4573980000000  0.5839640000000  0.5771800000000 1.0
C      1  0.5337690000000  0.3432250000000  0.5587960000000 1.0
C      1  0.4280480000000  0.5707450000000  0.4182450000000 1.0
C      1  0.5197020000000  0.4252870000000  0.3979560000000 1.0
C      1  0.4993570000000  0.3235830000000  0.4684110000000 1.0
C      1  0.4578570000000  0.6159080000000  0.4460920000000 1.0
C      1  0.4955100000000  0.3212210000000  0.4952890000000 1.0
C      1  0.4458840000000  0.6285550000000  0.4670280000000 1.0
C      1  0.5942550000000  0.6289060000000  0.5512080000000 1.0
C      1  0.4055390000000  0.4406400000000  0.5637000000000 1.0
C      1  0.6315970000000  0.5912790000000  0.5139750000000 1.0
C      1  0.3903310000000  0.4466160000000  0.4553430000000 1.0
C      1  0.5427610000000  0.3944650000000  0.4306570000000 1.0
C      1  0.4286990000000  0.5416250000000  0.4635390000000 1.0
C      1  0.5500730000000  0.3730560000000  0.5166880000000 1.0
C      1  0.4276600000000  0.5540200000000  0.5474050000000 1.0
C      1  0.4269640000000  0.4628190000000  0.4951640000000 1.0
C      1  0.6062960000000  0.4347290000000  0.4672890000000 1.0
C      1  0.4400770000000  0.4724180000000  0.5393740000000 1.0
C      1  0.6093670000000  0.4283110000000  0.4935640000000 1.0
C      1  0.5185970000000  0.5570590000000  0.5346330000000 1.0
C      1  0.5053860000000  0.4628190000000  0.5180110000000 1.0
C      1  0.5153700000000  0.5082790000000  0.4945630000000 1.0
C      1  0.4979050000000  0.4676750000000  0.4701350000000 1.0
C      1  0.5676510000000  0.5779400000000  0.4661430000000 1.0
C      1  0.4548760000000  0.4131360000000  0.4188430000000 1.0
C      1  0.5152940000000  0.6370500000000  0.5623360000000 1.0
C      1  0.4724320000000  0.3982600000000  0.5664950000000 1.0
C      1  0.6740550000000  0.6483340000000  0.5251540000000 1.0
C      1  0.3484460000000  0.4807500000000  0.4914430000000 1.0
C      1  0.6321450000000  0.6816930000000  0.5296830000000 1.0
C      1  0.3640860000000  0.4788730000000  0.5433900000000 1.0
C      1  0.5052940000000  0.6405800000000  0.5118590000000 1.0
C      1  0.4915660000000  0.3954750000000  0.5172210000000 1.0
C      1  0.5294480000000  0.6132860000000  0.4697960000000 1.0
C      1  0.4862390000000  0.3989920000000  0.4594320000000 1.0
C      1  0.5726520000000  0.5556330000000  0.4829980000000 1.0
C      1  0.4571200000000  0.4414460000000  0.4196960000000 1.0
C      1  0.5257050000000  0.6125790000000  0.5726090000000 1.0
C      1  0.4756360000000  0.4250490000000  0.5764410000000 1.0
C      1  0.5424320000000  0.4001830000000  0.5106070000000 1.0
C      1  0.4483810000000  0.5424840000000  0.5313680000000 1.0
C      1  0.5364070000000  0.4107760000000  0.4535510000000 1.0
C      1  0.4516540000000  0.5291530000000  0.4755700000000 1.0
C      1  0.4359790000000  0.3987860000000  0.4695160000000 1.0
C      1  0.5734020000000  0.6363620000000  0.4860560000000 1.0
C      1  0.4442050000000  0.4217080000000  0.5218000000000 1.0
C      1  0.5527770000000  0.6601930000000  0.5209120000000 1.0
C      1  0.4108590000000  0.4532600000000  0.4394870000000 1.0
C      1  0.6139330000000  0.5714960000000  0.5123450000000 1.0
C      1  0.4255960000000  0.4402580000000  0.5817680000000 1.0
C      1  0.5779040000000  0.6173010000000  0.5686810000000 1.0
C      1  0.4434640000000  0.5161570000000  0.5218550000000 1.0
C      1  0.5628220000000  0.4148200000000  0.4962880000000 1.0
C      1  0.4443190000000  0.5089160000000  0.4946230000000 1.0
C      1  0.5596610000000  0.4202020000000  0.4680970000000 1.0
C      1  0.4673480000000  0.4728920000000  0.5448950000000 1.0
C      1  0.5405500000000  0.5504100000000  0.5769460000000 1.0
C      1  0.4543380000000  0.4778450000000  0.4471580000000 1.0
C      1  0.5593880000000  0.4885540000000  0.5001740000000 1.0
C      1  0.4887280000000  0.6313320000000  0.4909100000000 1.0
C      1  0.4925290000000  0.3700610000000  0.5002490000000 1.0
C      1  0.5014440000000  0.6172600000000  0.4687010000000 1.0
C      1  0.4939690000000  0.3721870000000  0.4711430000000 1.0
C      1  0.4517970000000  0.4365270000000  0.5870910000000 1.0
C      1  0.5534020000000  0.6116200000000  0.5774190000000 1.0
C      1  0.4375850000000  0.4584850000000  0.4334190000000 1.0
C      1  0.5938840000000  0.5580200000000  0.5012390000000 1.0
C      1  0.4837650000000  0.4534840000000  0.4229760000000 1.0
C      1  0.5561490000000  0.5331850000000  0.4834340000000 1.0
C      1  0.4954900000000  0.4414580000000  0.5638950000000 1.0
C      1  0.5107920000000  0.5884160000000  0.5715270000000 1.0
C      1  0.5707350000000  0.3595020000000  0.4510920000000 1.0
C      1  0.3892730000000  0.5444890000000  0.4942130000000 1.0
C      1  0.5729330000000  0.3536100000000  0.4772690000000 1.0
C      1  0.3877070000000  0.5465400000000  0.5210360000000 1.0
C      1  0.4992900000000  0.6367350000000  0.5390580000000 1.0
C      1  0.4899030000000  0.3894180000000  0.5464050000000 1.0
C      1  0.5418720000000  0.5889560000000  0.4632110000000 1.0
C      1  0.4761270000000  0.3986220000000  0.4311530000000 1.0
C      1  0.4607900000000  0.6357590000000  0.4886320000000 1.0
C      1  0.4917650000000  0.3435080000000  0.5104930000000 1.0
C      1  0.4844480000000  0.6102010000000  0.4471020000000 1.0
C      1  0.4988970000000  0.3482170000000  0.4567990000000 1.0
C      1  0.5397740000000  0.3578650000000  0.5375400000000 1.0
C      1  0.4355920000000  0.5729010000000  0.5663730000000 1.0
C      1  0.5320000000000  0.4029870000000  0.4062490000000 1.0
C      1  0.4298950000000  0.5590150000000  0.4419380000000 1.0
C      1  0.6467200000000  0.6128220000000  0.5045180000000 1.0
C      1  0.3782390000000  0.4414090000000  0.4801560000000 1.0
C      1  0.5998030000000  0.6445030000000  0.5284910000000 1.0
C      1  0.4001990000000  0.4422840000000  0.5339210000000 1.0
C      1  0.4284130000000  0.4983370000000  0.5389060000000 1.0
C      1  0.5905110000000  0.4105820000000  0.5049680000000 1.0
C      1  0.4249290000000  0.4893700000000  0.4860890000000 1.0
C      1  0.5848880000000  0.4228130000000  0.4530950000000 1.0
C      1  0.3788050000000  0.4624370000000  0.5253990000000 1.0
C      1  0.6258610000000  0.6543600000000  0.5243960000000 1.0
C      1  0.3691670000000  0.4622880000000  0.4974750000000 1.0
C      1  0.6485520000000  0.6372770000000  0.5185710000000 1.0
C      1  0.5470700000000  0.6706910000000  0.5462300000000 1.0
C      1  0.4335510000000  0.4019260000000  0.5398350000000 1.0
C      1  0.5908470000000  0.6214070000000  0.4702160000000 1.0
C      1  0.4214180000000  0.3944420000000  0.4472810000000 1.0
C      1  0.6714130000000  0.6081870000000  0.4566670000000 1.0
C      1  0.3904470000000  0.4168710000000  0.5201320000000 1.0
C      1  0.6600280000000  0.6102690000000  0.4800150000000 1.0
C      1  0.3821430000000  0.4169920000000  0.4941870000000 1.0
C      1  0.4722520000000  0.5551450000000  0.5254400000000 1.0
C      1  0.5167210000000  0.4118370000000  0.5133620000000 1.0
C      1  0.4790830000000  0.5352710000000  0.4750300000000 1.0
C      1  0.5099140000000  0.4177340000000  0.4610790000000 1.0
C      1  0.3436660000000  0.4952890000000  0.5359910000000 1.0
C      1  0.6572580000000  0.6913070000000  0.5338850000000 1.0
C      1  0.3359750000000  0.4964070000000  0.5098870000000 1.0
C      1  0.6784580000000  0.6743230000000  0.5319340000000 1.0
C      1  0.4825800000000  0.4711770000000  0.4466480000000 1.0
C      1  0.5438070000000  0.5098230000000  0.4926780000000 1.0
C      1  0.4923550000000  0.4608400000000  0.5432660000000 1.0
C      1  0.5237910000000  0.5651340000000  0.5610780000000 1.0
C      1  0.5783590000000  0.6502650000000  0.5110140000000 1.0
C      1  0.4289130000000  0.4492080000000  0.5220100000000 1.0
C      1  0.5031510000000  0.4825170000000  0.4953980000000 1.0
END
