TITL C-3623289-7120-344 1.35208443810917e-07 125000 -34.6317666983515 0 0 7 (D3h) n - 1
REM
REM in /home/nfs/bkarasulu/CARBON/AIRSS/Generating-Clusters/LCBOP/Higher-Symm/SD-CG/FIRE-CG
REM
REM
REM
REM
REM
REM ./C.cell (b20cbc046b6831c77cfcea5457e17084)
REM AIRSS Version 0.9.1 bugfix July 2018 build 013d7b7c2542+ Fri, 06 Jul 2018 19:26:36 +0100
REM compiler GCC version 9.2.1 20190827 (Red Hat 9.2.1-1)
REM options -cpp -mtune=generic -march=x86-64 -g -O0 -fpre-include=/usr/include/finclude/math-vector-fortran.h
REM seed -885101338 757763979 -871887634 -1877709800 -1666735183 -2021935473 315992691 89665477 1291892019 -152909755 1289114194 1833107510 1836433754 255801264 -824627117 -1756467721 315804695 -1432661726 -610989213 636768194 -1524495603 -355992459 1429379404 1237653721 1187443609 1250316911 208777300 929764173 1459854035 -1886917737 -1229203731 -682798205 -173372955
REM
CELL 1.54180   50.00000   50.00000   50.00000   90.00000   90.00000   90.00000
LATT -1
SFAC C  
C      1  0.5205150000000  0.5020510000000  0.4809340000000 1.0
C      1  0.4727770000000  0.5023550000000  0.4888290000000 1.0
C      1  0.5034840000000  0.5023050000000  0.5262250000000 1.0
C      1  0.4483830000000  0.5024650000000  0.4796560000000 1.0
C      1  0.5406560000000  0.5018770000000  0.4643950000000 1.0
C      1  0.5077370000000  0.5023690000000  0.5519380000000 1.0
C      1  0.4989260000000  0.5022370000000  0.4986630000000 1.0
END
