TITL C-3623284-6838-486 -0.062949441167029 125000 -1194.11350932587 0 0 192 (C1) n - 1
REM
REM in /home/nfs/bkarasulu/CARBON/AIRSS/Generating-Clusters/LCBOP/Higher-Symm/SD-CG/FIRE-CG
REM
REM
REM
REM
REM
REM ./C.cell (b20cbc046b6831c77cfcea5457e17084)
REM AIRSS Version 0.9.1 bugfix July 2018 build 013d7b7c2542+ Fri, 06 Jul 2018 19:26:36 +0100
REM compiler GCC version 9.2.1 20190827 (Red Hat 9.2.1-1)
REM options -cpp -mtune=generic -march=x86-64 -g -O0 -fpre-include=/usr/include/finclude/math-vector-fortran.h
REM seed 1993457436 -17677821 -1465447672 1102316576 1554224353 -1644288038 -1993790486 -1265573381 1971141906 -506013648 639964071 -1287879019 602793738 99166281 -1947062663 294613318 -1866107723 -2018472458 698666526 -1193354052 -112329693 33570749 221493362 1269204528 -986085454 -53381886 -128972070 -5148881 -1651891056 -780849283 675655322 -491489489 1249457433
REM
CELL 1.54180   50.00000   50.00000   50.00000   90.00000   90.00000   90.00000
LATT -1
SFAC C  
C      1  0.4174440000000  0.5317550000000  0.6233460000000 1.0
C      1  0.3813820000000  0.5257630000000  0.3838880000000 1.0
C      1  0.4017190000000  0.4748250000000  0.5425130000000 1.0
C      1  0.4063050000000  0.4699050000000  0.4549780000000 1.0
C      1  0.5953850000000  0.4059900000000  0.4606270000000 1.0
C      1  0.5904250000000  0.4014990000000  0.5321700000000 1.0
C      1  0.5943680000000  0.4633650000000  0.5351470000000 1.0
C      1  0.5966660000000  0.4683620000000  0.4668380000000 1.0
C      1  0.4095810000000  0.4415200000000  0.4455810000000 1.0
C      1  0.4034950000000  0.4473820000000  0.5544100000000 1.0
C      1  0.4533880000000  0.4717780000000  0.4760990000000 1.0
C      1  0.4625890000000  0.4660060000000  0.5239970000000 1.0
C      1  0.5518870000000  0.5298810000000  0.4768240000000 1.0
C      1  0.5539390000000  0.5271700000000  0.5298880000000 1.0
C      1  0.4745560000000  0.6008520000000  0.3930840000000 1.0
C      1  0.4772090000000  0.6034330000000  0.6019320000000 1.0
C      1  0.4670760000000  0.4470630000000  0.5631980000000 1.0
C      1  0.4712750000000  0.4476920000000  0.4406720000000 1.0
C      1  0.5613770000000  0.5656090000000  0.5837880000000 1.0
C      1  0.5609330000000  0.5767640000000  0.4326350000000 1.0
C      1  0.5468280000000  0.3617580000000  0.4835900000000 1.0
C      1  0.5481810000000  0.3622440000000  0.5111790000000 1.0
C      1  0.5367660000000  0.4554540000000  0.5155590000000 1.0
C      1  0.5362900000000  0.4567000000000  0.4873260000000 1.0
C      1  0.4901270000000  0.4597610000000  0.5265600000000 1.0
C      1  0.4505060000000  0.4956020000000  0.4892660000000 1.0
C      1  0.5301580000000  0.4320620000000  0.4741240000000 1.0
C      1  0.5289430000000  0.4301130000000  0.5256890000000 1.0
C      1  0.4183560000000  0.4889390000000  0.4355040000000 1.0
C      1  0.4142700000000  0.4946920000000  0.5598570000000 1.0
C      1  0.4471080000000  0.4463530000000  0.4859740000000 1.0
C      1  0.4469980000000  0.4460400000000  0.5131890000000 1.0
C      1  0.4068340000000  0.5011910000000  0.5871460000000 1.0
C      1  0.4077020000000  0.4929880000000  0.4091990000000 1.0
C      1  0.3986460000000  0.4774660000000  0.5123190000000 1.0
C      1  0.3997580000000  0.4756030000000  0.4841810000000 1.0
C      1  0.5056260000000  0.4185030000000  0.5132820000000 1.0
C      1  0.5063980000000  0.4195270000000  0.4839280000000 1.0
C      1  0.6379000000000  0.5344530000000  0.5495120000000 1.0
C      1  0.6386120000000  0.5392320000000  0.4607160000000 1.0
C      1  0.5125340000000  0.5816320000000  0.4554410000000 1.0
C      1  0.5181340000000  0.5812680000000  0.5591820000000 1.0
C      1  0.4243160000000  0.6315230000000  0.4949430000000 1.0
C      1  0.3759900000000  0.5922930000000  0.4464730000000 1.0
C      1  0.4980220000000  0.5718030000000  0.5414030000000 1.0
C      1  0.4906910000000  0.5691070000000  0.4684380000000 1.0
C      1  0.4563330000000  0.6909990000000  0.5273010000000 1.0
C      1  0.4813840000000  0.6999550000000  0.5235390000000 1.0
C      1  0.4549060000000  0.4710330000000  0.5506880000000 1.0
C      1  0.4598810000000  0.4716570000000  0.4493410000000 1.0
C      1  0.4394410000000  0.5330360000000  0.6384620000000 1.0
C      1  0.3628200000000  0.5308510000000  0.3663170000000 1.0
C      1  0.4222620000000  0.4414900000000  0.5775290000000 1.0
C      1  0.4276580000000  0.4361220000000  0.4227980000000 1.0
C      1  0.5815250000000  0.5684060000000  0.4791140000000 1.0
C      1  0.5802220000000  0.5654420000000  0.5332560000000 1.0
C      1  0.4428370000000  0.6689340000000  0.5203360000000 1.0
C      1  0.5022870000000  0.6893420000000  0.5103890000000 1.0
C      1  0.4840100000000  0.5133880000000  0.6408710000000 1.0
C      1  0.4808720000000  0.5075230000000  0.3507670000000 1.0
C      1  0.5024000000000  0.5155370000000  0.4893780000000 1.0
C      1  0.5045690000000  0.5168240000000  0.5155430000000 1.0
C      1  0.5809730000000  0.5117360000000  0.4445850000000 1.0
C      1  0.5817830000000  0.5060210000000  0.5618730000000 1.0
C      1  0.5336160000000  0.5817530000000  0.4386440000000 1.0
C      1  0.5372550000000  0.5792620000000  0.5780810000000 1.0
C      1  0.6180580000000  0.5345340000000  0.5308120000000 1.0
C      1  0.6185970000000  0.5374080000000  0.4790880000000 1.0
C      1  0.4873420000000  0.3987760000000  0.4745360000000 1.0
C      1  0.4876610000000  0.3966890000000  0.5219380000000 1.0
C      1  0.4662860000000  0.4633760000000  0.3654140000000 1.0
C      1  0.4784460000000  0.4828620000000  0.6038800000000 1.0
C      1  0.6078290000000  0.5104460000000  0.5179780000000 1.0
C      1  0.6078630000000  0.5124150000000  0.4888890000000 1.0
C      1  0.5014440000000  0.3740540000000  0.4833310000000 1.0
C      1  0.5030370000000  0.3731970000000  0.5138300000000 1.0
C      1  0.5887610000000  0.4519000000000  0.4447200000000 1.0
C      1  0.5836430000000  0.4444650000000  0.5540800000000 1.0
C      1  0.5579510000000  0.5279230000000  0.4494620000000 1.0
C      1  0.5666680000000  0.5290480000000  0.5554930000000 1.0
C      1  0.4825270000000  0.5444240000000  0.4557580000000 1.0
C      1  0.4867100000000  0.5466960000000  0.5484370000000 1.0
C      1  0.4605850000000  0.5131410000000  0.5696220000000 1.0
C      1  0.4645040000000  0.5119350000000  0.4252840000000 1.0
C      1  0.4673990000000  0.5360690000000  0.6395600000000 1.0
C      1  0.4761480000000  0.5335450000000  0.3527500000000 1.0
C      1  0.4427250000000  0.4949380000000  0.5577620000000 1.0
C      1  0.4471110000000  0.4917400000000  0.4349290000000 1.0
C      1  0.4881320000000  0.5869690000000  0.5186670000000 1.0
C      1  0.4781100000000  0.5753960000000  0.4939010000000 1.0
C      1  0.4315660000000  0.4267470000000  0.5258620000000 1.0
C      1  0.4400310000000  0.4207910000000  0.4755530000000 1.0
C      1  0.6035500000000  0.3940050000000  0.4830520000000 1.0
C      1  0.6015080000000  0.3926250000000  0.5096070000000 1.0
C      1  0.5246820000000  0.3690670000000  0.4668350000000 1.0
C      1  0.5274800000000  0.3709690000000  0.5294200000000 1.0
C      1  0.4771260000000  0.6203230000000  0.5524020000000 1.0
C      1  0.4844090000000  0.6301060000000  0.4358510000000 1.0
C      1  0.5227320000000  0.4454860000000  0.4064650000000 1.0
C      1  0.5217550000000  0.4439400000000  0.5918160000000 1.0
C      1  0.3874470000000  0.4186130000000  0.5125100000000 1.0
C      1  0.3924110000000  0.4157570000000  0.4859270000000 1.0
C      1  0.5057440000000  0.6668290000000  0.4962300000000 1.0
C      1  0.4458420000000  0.6442180000000  0.5072390000000 1.0
C      1  0.4317730000000  0.4584920000000  0.6001750000000 1.0
C      1  0.4311050000000  0.4483270000000  0.3967200000000 1.0
C      1  0.4942500000000  0.4483010000000  0.5531480000000 1.0
C      1  0.4982600000000  0.4458760000000  0.4441100000000 1.0
C      1  0.6054690000000  0.5587030000000  0.5207400000000 1.0
C      1  0.6059800000000  0.5601870000000  0.4915100000000 1.0
C      1  0.5173900000000  0.4766030000000  0.6306310000000 1.0
C      1  0.5130990000000  0.4738300000000  0.3649870000000 1.0
C      1  0.5170510000000  0.4573530000000  0.5673840000000 1.0
C      1  0.5204580000000  0.4586770000000  0.4321720000000 1.0
C      1  0.6105640000000  0.4540970000000  0.5141040000000 1.0
C      1  0.6115550000000  0.4567010000000  0.4876310000000 1.0
C      1  0.4370380000000  0.5500800000000  0.4291090000000 1.0
C      1  0.4389190000000  0.5555090000000  0.5659520000000 1.0
C      1  0.4469940000000  0.4283690000000  0.5699060000000 1.0
C      1  0.4534430000000  0.4279490000000  0.4319490000000 1.0
C      1  0.4124600000000  0.4216970000000  0.4667300000000 1.0
C      1  0.4043010000000  0.4272160000000  0.5334740000000 1.0
C      1  0.4091080000000  0.5281830000000  0.5966090000000 1.0
C      1  0.4013280000000  0.5200300000000  0.4024880000000 1.0
C      1  0.5761200000000  0.5224590000000  0.6067900000000 1.0
C      1  0.5834410000000  0.5371800000000  0.4050160000000 1.0
C      1  0.4907710000000  0.6370500000000  0.4606370000000 1.0
C      1  0.4800090000000  0.6138490000000  0.5251140000000 1.0
C      1  0.4612650000000  0.3955000000000  0.5115010000000 1.0
C      1  0.4592690000000  0.4011490000000  0.4829680000000 1.0
C      1  0.4145280000000  0.4804770000000  0.6054370000000 1.0
C      1  0.4145900000000  0.4713030000000  0.3917730000000 1.0
C      1  0.4997970000000  0.5220600000000  0.4625700000000 1.0
C      1  0.5022270000000  0.5233610000000  0.5424200000000 1.0
C      1  0.4733210000000  0.5583100000000  0.3618110000000 1.0
C      1  0.4778330000000  0.5614050000000  0.6335540000000 1.0
C      1  0.4578190000000  0.4438670000000  0.3841700000000 1.0
C      1  0.4620830000000  0.4577560000000  0.6058020000000 1.0
C      1  0.5402700000000  0.4791970000000  0.5310790000000 1.0
C      1  0.5408140000000  0.4804220000000  0.4726480000000 1.0
C      1  0.5060360000000  0.4208880000000  0.4045100000000 1.0
C      1  0.5042030000000  0.4204540000000  0.5938560000000 1.0
C      1  0.4908550000000  0.6446000000000  0.4874790000000 1.0
C      1  0.4722080000000  0.6330530000000  0.5057590000000 1.0
C      1  0.5593810000000  0.4994360000000  0.5183720000000 1.0
C      1  0.5593650000000  0.5006240000000  0.4870490000000 1.0
C      1  0.5709580000000  0.5604360000000  0.4115090000000 1.0
C      1  0.5666850000000  0.5480540000000  0.6057730000000 1.0
C      1  0.5876650000000  0.4928060000000  0.5338130000000 1.0
C      1  0.5881070000000  0.4968920000000  0.4711440000000 1.0
C      1  0.4506970000000  0.5683660000000  0.4951810000000 1.0
C      1  0.4266930000000  0.5587380000000  0.4984090000000 1.0
C      1  0.4063340000000  0.6197260000000  0.4794780000000 1.0
C      1  0.3905970000000  0.6063670000000  0.4628500000000 1.0
C      1  0.5922660000000  0.4624500000000  0.4188350000000 1.0
C      1  0.5849860000000  0.4513730000000  0.5813010000000 1.0
C      1  0.5859460000000  0.4735350000000  0.5964380000000 1.0
C      1  0.5943550000000  0.4866350000000  0.4070160000000 1.0
C      1  0.4156670000000  0.5410250000000  0.4152770000000 1.0
C      1  0.4160050000000  0.5489110000000  0.5785910000000 1.0
C      1  0.5273970000000  0.4602220000000  0.3830500000000 1.0
C      1  0.5291490000000  0.4578850000000  0.6151480000000 1.0
C      1  0.4756420000000  0.6161940000000  0.5786440000000 1.0
C      1  0.4784240000000  0.6177130000000  0.4131810000000 1.0
C      1  0.5890780000000  0.5121850000000  0.4174640000000 1.0
C      1  0.5831260000000  0.5005880000000  0.5897880000000 1.0
C      1  0.5785360000000  0.5812160000000  0.4544600000000 1.0
C      1  0.5743500000000  0.5564360000000  0.5604290000000 1.0
C      1  0.4614630000000  0.5383190000000  0.4368110000000 1.0
C      1  0.4622630000000  0.5405840000000  0.5615710000000 1.0
C      1  0.5094890000000  0.5048090000000  0.4418520000000 1.0
C      1  0.5070140000000  0.5034300000000  0.5626560000000 1.0
C      1  0.5273770000000  0.4828110000000  0.4466990000000 1.0
C      1  0.5257660000000  0.4821580000000  0.5564140000000 1.0
C      1  0.5227050000000  0.3803200000000  0.4399000000000 1.0
C      1  0.5300970000000  0.3908990000000  0.5523000000000 1.0
C      1  0.4915100000000  0.5047480000000  0.4197700000000 1.0
C      1  0.4837910000000  0.4999510000000  0.5806960000000 1.0
C      1  0.5728900000000  0.4193870000000  0.5450430000000 1.0
C      1  0.5781060000000  0.4260970000000  0.4511880000000 1.0
C      1  0.4931840000000  0.4906400000000  0.6273620000000 1.0
C      1  0.4867520000000  0.4814530000000  0.3586840000000 1.0
C      1  0.5579750000000  0.5529930000000  0.5175790000000 1.0
C      1  0.5590740000000  0.5537750000000  0.4898130000000 1.0
C      1  0.5507170000000  0.4229950000000  0.4572830000000 1.0
C      1  0.5449090000000  0.4142320000000  0.5428990000000 1.0
C      1  0.4794620000000  0.4257100000000  0.3927100000000 1.0
C      1  0.4786410000000  0.4319140000000  0.6055110000000 1.0
C      1  0.4728460000000  0.5808740000000  0.3757330000000 1.0
C      1  0.4796390000000  0.5844320000000  0.6203740000000 1.0
C      1  0.5131710000000  0.3980140000000  0.5761890000000 1.0
C      1  0.5142050000000  0.3974650000000  0.4200440000000 1.0
END
