TITL C-3623285-6872-1525 -0.0290601308716013 125000 -462.837599251568 0 0 77 (C1) n - 1
REM
REM in /home/nfs/bkarasulu/CARBON/AIRSS/Generating-Clusters/LCBOP/Higher-Symm/SD-CG/FIRE-CG
REM
REM
REM
REM
REM
REM ./C.cell (b20cbc046b6831c77cfcea5457e17084)
REM AIRSS Version 0.9.1 bugfix July 2018 build 013d7b7c2542+ Fri, 06 Jul 2018 19:26:36 +0100
REM compiler GCC version 9.2.1 20190827 (Red Hat 9.2.1-1)
REM options -cpp -mtune=generic -march=x86-64 -g -O0 -fpre-include=/usr/include/finclude/math-vector-fortran.h
REM seed -811186857 170596976 1405161928 -97291370 902927446 -1403060373 -1639314706 612224869 -626022967 827527471 -755340754 -1581364687 -724839463 -371176168 1959857101 1828768290 -916352189 -1916067159 858529509 -470442470 481034311 -2060855483 -1871919421 867205966 -1826572757 -955093219 -639149724 -1980933333 -238301985 -1862498626 -1215032515 -2072209554 -435368938
REM
CELL 1.54180   50.00000   50.00000   50.00000   90.00000   90.00000   90.00000
LATT -1
SFAC C  
C      1  0.4592530000000  0.4604590000000  0.4487100000000 1.0
C      1  0.4860160000000  0.4452430000000  0.4502330000000 1.0
C      1  0.5162570000000  0.4464550000000  0.4511320000000 1.0
C      1  0.5415380000000  0.4632530000000  0.4504230000000 1.0
C      1  0.5517440000000  0.4910070000000  0.4518370000000 1.0
C      1  0.5444100000000  0.5196120000000  0.4538800000000 1.0
C      1  0.5240620000000  0.5409500000000  0.4525740000000 1.0
C      1  0.4955280000000  0.5486190000000  0.4518830000000 1.0
C      1  0.4669900000000  0.5405970000000  0.4499330000000 1.0
C      1  0.4475090000000  0.5177490000000  0.4497830000000 1.0
C      1  0.4446140000000  0.4876450000000  0.4491390000000 1.0
C      1  0.5617830000000  0.4680080000000  0.5193580000000 1.0
C      1  0.5675780000000  0.5125920000000  0.5294710000000 1.0
C      1  0.5520560000000  0.5613830000000  0.5348980000000 1.0
C      1  0.5259690000000  0.5736600000000  0.5286160000000 1.0
C      1  0.4670860000000  0.5732550000000  0.5263880000000 1.0
C      1  0.4435440000000  0.5568950000000  0.5331060000000 1.0
C      1  0.4423020000000  0.5084670000000  0.5193780000000 1.0
C      1  0.4380290000000  0.4586930000000  0.5336440000000 1.0
C      1  0.4550330000000  0.4347530000000  0.5335010000000 1.0
C      1  0.5020450000000  0.4394770000000  0.5222540000000 1.0
C      1  0.5498510000000  0.4443620000000  0.5312450000000 1.0
C      1  0.5428210000000  0.4841450000000  0.5623910000000 1.0
C      1  0.5557170000000  0.5108470000000  0.5564250000000 1.0
C      1  0.5418910000000  0.5371190000000  0.5595030000000 1.0
C      1  0.5134220000000  0.5370880000000  0.5688000000000 1.0
C      1  0.4856220000000  0.5355380000000  0.5665910000000 1.0
C      1  0.4588220000000  0.5318500000000  0.5545530000000 1.0
C      1  0.4508310000000  0.5050790000000  0.5461920000000 1.0
C      1  0.4550630000000  0.4770200000000  0.5509840000000 1.0
C      1  0.4775270000000  0.4596840000000  0.5558720000000 1.0
C      1  0.5034450000000  0.4508540000000  0.5484450000000 1.0
C      1  0.5320340000000  0.4575250000000  0.5526110000000 1.0
C      1  0.4995390000000  0.4595050000000  0.5026280000000 1.0
C      1  0.5211650000000  0.4734050000000  0.4936300000000 1.0
C      1  0.5418640000000  0.4839840000000  0.5072350000000 1.0
C      1  0.5430410000000  0.5102430000000  0.5140930000000 1.0
C      1  0.5222890000000  0.5272560000000  0.5161430000000 1.0
C      1  0.5106020000000  0.5500960000000  0.5261830000000 1.0
C      1  0.4849790000000  0.5525050000000  0.5198290000000 1.0
C      1  0.4769200000000  0.5353220000000  0.4999830000000 1.0
C      1  0.4631520000000  0.5121580000000  0.5009620000000 1.0
C      1  0.4698540000000  0.4914460000000  0.4849190000000 1.0
C      1  0.4758320000000  0.4670030000000  0.4920080000000 1.0
C      1  0.4796590000000  0.4193450000000  0.4649840000000 1.0
C      1  0.5254320000000  0.4212950000000  0.4652710000000 1.0
C      1  0.5632370000000  0.4450300000000  0.4604920000000 1.0
C      1  0.5800470000000  0.4907770000000  0.4623480000000 1.0
C      1  0.5684450000000  0.5330460000000  0.4662830000000 1.0
C      1  0.5391960000000  0.5651640000000  0.4620570000000 1.0
C      1  0.4955760000000  0.5766280000000  0.4627740000000 1.0
C      1  0.4513560000000  0.5643200000000  0.4601870000000 1.0
C      1  0.4231070000000  0.5294330000000  0.4634370000000 1.0
C      1  0.4191120000000  0.4826490000000  0.4646800000000 1.0
C      1  0.4400120000000  0.4421030000000  0.4631560000000 1.0
C      1  0.5640890000000  0.5603740000000  0.5064670000000 1.0
C      1  0.5222840000000  0.5871990000000  0.5027150000000 1.0
C      1  0.4678220000000  0.5881650000000  0.5011630000000 1.0
C      1  0.4295910000000  0.5562840000000  0.5052170000000 1.0
C      1  0.4173640000000  0.5080040000000  0.5060160000000 1.0
C      1  0.4241010000000  0.4595560000000  0.5075770000000 1.0
C      1  0.4549100000000  0.4222950000000  0.5071100000000 1.0
C      1  0.5034720000000  0.4150220000000  0.5075880000000 1.0
C      1  0.5518760000000  0.4260170000000  0.5065900000000 1.0
C      1  0.5832160000000  0.4634880000000  0.5011530000000 1.0
C      1  0.5868770000000  0.5141270000000  0.5070380000000 1.0
C      1  0.4352320000000  0.4375550000000  0.4909620000000 1.0
C      1  0.4782190000000  0.4123460000000  0.4930290000000 1.0
C      1  0.5285150000000  0.4144960000000  0.4931220000000 1.0
C      1  0.5721670000000  0.4395630000000  0.4873490000000 1.0
C      1  0.5900150000000  0.4892900000000  0.4894890000000 1.0
C      1  0.5782720000000  0.5386110000000  0.4926810000000 1.0
C      1  0.5453620000000  0.5757890000000  0.4878090000000 1.0
C      1  0.4953780000000  0.5889190000000  0.4889190000000 1.0
C      1  0.4454960000000  0.5745260000000  0.4864060000000 1.0
C      1  0.4169380000000  0.5332820000000  0.4914580000000 1.0
C      1  0.4139980000000  0.4824980000000  0.4931010000000 1.0
END
