TITL C-3623283-6828-1541 427.128580243981 125000 -896.55385606121 0 0 157 (C1) n - 1
REM
REM in /home/nfs/bkarasulu/CARBON/AIRSS/Generating-Clusters/LCBOP/Higher-Symm/SD-CG/FIRE-CG
REM
REM
REM
REM
REM
REM ./C.cell (b20cbc046b6831c77cfcea5457e17084)
REM AIRSS Version 0.9.1 bugfix July 2018 build 013d7b7c2542+ Fri, 06 Jul 2018 19:26:36 +0100
REM compiler GCC version 9.2.1 20190827 (Red Hat 9.2.1-1)
REM options -cpp -mtune=generic -march=x86-64 -g -O0 -fpre-include=/usr/include/finclude/math-vector-fortran.h
REM seed -81123497 461519767 809460601 1178871554 28568611 838803046 -189535034 -174920303 -518638385 -1675242748 1414866608 748765186 619135334 645879589 -1392117044 641179803 1995634177 -94788857 21007911 -1799188514 1973989153 -977677038 573772137 1552898662 26704119 -412728014 -514043796 -275008482 -1585723348 -1761354729 -892371627 323051139 -1173169793
REM
CELL 1.54180   50.00000   50.00000   50.00000   90.00000   90.00000   90.00000
LATT -1
SFAC C  
C      1  0.5455240000000  0.5425890000000  0.4895710000000 1.0
C      1  0.5044140000000  0.5541750000000  0.5363880000000 1.0
C      1  0.4542260000000  0.5488300000000  0.5105870000000 1.0
C      1  0.4903500000000  0.5514930000000  0.4695310000000 1.0
C      1  0.5138810000000  0.5148640000000  0.4393410000000 1.0
C      1  0.5639350000000  0.5113140000000  0.5171600000000 1.0
C      1  0.4871900000000  0.5183360000000  0.5632080000000 1.0
C      1  0.4363230000000  0.5090980000000  0.4876090000000 1.0
C      1  0.4222970000000  0.5301960000000  0.4275770000000 1.0
C      1  0.5749600000000  0.5313300000000  0.4207560000000 1.0
C      1  0.5823220000000  0.5418870000000  0.5731040000000 1.0
C      1  0.4264470000000  0.5326980000000  0.5811100000000 1.0
C      1  0.4605760000000  0.5263860000000  0.6151360000000 1.0
C      1  0.3851650000000  0.5126330000000  0.4531250000000 1.0
C      1  0.5405500000000  0.5280420000000  0.3876070000000 1.0
C      1  0.6181760000000  0.5189280000000  0.5481570000000 1.0
C      1  0.4829960000000  0.4108410000000  0.5311140000000 1.0
C      1  0.4525210000000  0.4040400000000  0.4762960000000 1.0
C      1  0.5002120000000  0.3951480000000  0.4530620000000 1.0
C      1  0.5187400000000  0.3822540000000  0.4974090000000 1.0
C      1  0.4123520000000  0.5683700000000  0.4974840000000 1.0
C      1  0.5049500000000  0.5790620000000  0.4347650000000 1.0
C      1  0.5815070000000  0.5695120000000  0.5052300000000 1.0
C      1  0.4934990000000  0.5831790000000  0.5714160000000 1.0
C      1  0.4473530000000  0.5361990000000  0.4164760000000 1.0
C      1  0.5882050000000  0.5287880000000  0.4450680000000 1.0
C      1  0.5564960000000  0.5487300000000  0.5808090000000 1.0
C      1  0.4110600000000  0.5290050000000  0.5579560000000 1.0
C      1  0.3937270000000  0.4773360000000  0.3830220000000 1.0
C      1  0.6074640000000  0.4640580000000  0.4106060000000 1.0
C      1  0.5881380000000  0.4840570000000  0.6352200000000 1.0
C      1  0.3780650000000  0.4570650000000  0.5998880000000 1.0
C      1  0.4972090000000  0.4568920000000  0.4046950000000 1.0
C      1  0.5870900000000  0.4450080000000  0.5116140000000 1.0
C      1  0.5067270000000  0.4550080000000  0.5869820000000 1.0
C      1  0.4140920000000  0.4476010000000  0.4966890000000 1.0
C      1  0.4622630000000  0.5544840000000  0.6050440000000 1.0
C      1  0.3887880000000  0.5410430000000  0.4600410000000 1.0
C      1  0.5397540000000  0.5554400000000  0.3994710000000 1.0
C      1  0.6135440000000  0.5462990000000  0.5383400000000 1.0
C      1  0.4116090000000  0.4949830000000  0.3707390000000 1.0
C      1  0.6256270000000  0.4776010000000  0.4269950000000 1.0
C      1  0.5786530000000  0.4939500000000  0.6110530000000 1.0
C      1  0.3947610000000  0.4705080000000  0.5818820000000 1.0
C      1  0.4776050000000  0.5087040000000  0.6290260000000 1.0
C      1  0.3700170000000  0.4925990000000  0.4653760000000 1.0
C      1  0.5252650000000  0.5124830000000  0.3700670000000 1.0
C      1  0.6310370000000  0.4962190000000  0.5380730000000 1.0
C      1  0.5664390000000  0.5574100000000  0.4109130000000 1.0
C      1  0.6012510000000  0.5597300000000  0.5606950000000 1.0
C      1  0.4362970000000  0.5577860000000  0.5919790000000 1.0
C      1  0.4042710000000  0.5509630000000  0.4373650000000 1.0
C      1  0.5183050000000  0.4527370000000  0.5610540000000 1.0
C      1  0.4392830000000  0.4545370000000  0.5072540000000 1.0
C      1  0.4918770000000  0.4575190000000  0.4327230000000 1.0
C      1  0.5631250000000  0.4446370000000  0.4965580000000 1.0
C      1  0.4742650000000  0.5271700000000  0.4641580000000 1.0
C      1  0.5417660000000  0.5178560000000  0.4762550000000 1.0
C      1  0.5248680000000  0.5259680000000  0.5428190000000 1.0
C      1  0.4568850000000  0.5250790000000  0.5278220000000 1.0
C      1  0.4710410000000  0.4246440000000  0.4806620000000 1.0
C      1  0.4995720000000  0.4202290000000  0.4709310000000 1.0
C      1  0.5192420000000  0.4135260000000  0.4960010000000 1.0
C      1  0.5086770000000  0.4205320000000  0.5242170000000 1.0
C      1  0.4760450000000  0.5755450000000  0.4282320000000 1.0
C      1  0.5810980000000  0.5689700000000  0.4751400000000 1.0
C      1  0.5227910000000  0.5827620000000  0.5649910000000 1.0
C      1  0.4105580000000  0.5661340000000  0.5266860000000 1.0
C      1  0.5906100000000  0.4504660000000  0.3961080000000 1.0
C      1  0.5968760000000  0.4746790000000  0.6579110000000 1.0
C      1  0.3624780000000  0.4445120000000  0.6165830000000 1.0
C      1  0.3771700000000  0.4613460000000  0.3952430000000 1.0
C      1  0.4130470000000  0.5237420000000  0.5023260000000 1.0
C      1  0.5006820000000  0.5354360000000  0.4223800000000 1.0
C      1  0.5861160000000  0.5256920000000  0.4994560000000 1.0
C      1  0.5028230000000  0.5398400000000  0.5800860000000 1.0
C      1  0.6450260000000  0.4934590000000  0.4160360000000 1.0
C      1  0.5948790000000  0.4963900000000  0.5882580000000 1.0
C      1  0.4185950000000  0.4809740000000  0.5906780000000 1.0
C      1  0.4023370000000  0.5154690000000  0.3551690000000 1.0
C      1  0.4647470000000  0.4477160000000  0.4960960000000 1.0
C      1  0.5086580000000  0.4420880000000  0.4505880000000 1.0
C      1  0.5488420000000  0.4204560000000  0.4909180000000 1.0
C      1  0.5244910000000  0.4290390000000  0.5465730000000 1.0
C      1  0.4064650000000  0.4338820000000  0.4723990000000 1.0
C      1  0.5198750000000  0.4450270000000  0.3909290000000 1.0
C      1  0.5932840000000  0.4355940000000  0.5382310000000 1.0
C      1  0.4876360000000  0.4412300000000  0.6036670000000 1.0
C      1  0.4500460000000  0.5836690000000  0.4713620000000 1.0
C      1  0.5301370000000  0.5866780000000  0.4794750000000 1.0
C      1  0.5345130000000  0.5844720000000  0.5098190000000 1.0
C      1  0.4566100000000  0.5830700000000  0.5410730000000 1.0
C      1  0.4730910000000  0.5474290000000  0.4191820000000 1.0
C      1  0.5867210000000  0.5390200000000  0.4709670000000 1.0
C      1  0.5298370000000  0.5557160000000  0.5762530000000 1.0
C      1  0.4089150000000  0.5364940000000  0.5308030000000 1.0
C      1  0.6096110000000  0.4634740000000  0.5056830000000 1.0
C      1  0.5097680000000  0.4813650000000  0.6011190000000 1.0
C      1  0.3900940000000  0.4643140000000  0.5025910000000 1.0
C      1  0.4902640000000  0.4796060000000  0.3867210000000 1.0
C      1  0.5574920000000  0.5841640000000  0.4661510000000 1.0
C      1  0.5296110000000  0.5924000000000  0.5376410000000 1.0
C      1  0.4296910000000  0.5813840000000  0.5409240000000 1.0
C      1  0.4575120000000  0.5871050000000  0.4458960000000 1.0
C      1  0.5567680000000  0.4939500000000  0.4754590000000 1.0
C      1  0.5284440000000  0.5037080000000  0.5628460000000 1.0
C      1  0.4411100000000  0.5012660000000  0.5320570000000 1.0
C      1  0.4718460000000  0.5057690000000  0.4445760000000 1.0
C      1  0.5572720000000  0.4683730000000  0.4828500000000 1.0
C      1  0.5267260000000  0.4775440000000  0.5505340000000 1.0
C      1  0.4392830000000  0.4750250000000  0.5268750000000 1.0
C      1  0.4761970000000  0.4793910000000  0.4411430000000 1.0
C      1  0.6180310000000  0.4708960000000  0.4803150000000 1.0
C      1  0.5292710000000  0.4996760000000  0.5915810000000 1.0
C      1  0.3833600000000  0.4712390000000  0.5287390000000 1.0
C      1  0.4644770000000  0.4884000000000  0.3814820000000 1.0
C      1  0.5546470000000  0.5134470000000  0.4093370000000 1.0
C      1  0.5919120000000  0.5135060000000  0.5645350000000 1.0
C      1  0.4451970000000  0.5131630000000  0.5926410000000 1.0
C      1  0.4122090000000  0.5064480000000  0.4424850000000 1.0
C      1  0.4831670000000  0.5166620000000  0.5340030000000 1.0
C      1  0.4657710000000  0.5138730000000  0.4871940000000 1.0
C      1  0.5154440000000  0.5135530000000  0.4686320000000 1.0
C      1  0.5332710000000  0.5135000000000  0.5186660000000 1.0
C      1  0.3749380000000  0.4678340000000  0.4774620000000 1.0
C      1  0.5140650000000  0.4868030000000  0.3707900000000 1.0
C      1  0.6236230000000  0.4702810000000  0.5306910000000 1.0
C      1  0.4898170000000  0.4842280000000  0.6225140000000 1.0
C      1  0.5534290000000  0.5626900000000  0.5092610000000 1.0
C      1  0.4829950000000  0.5743780000000  0.5453140000000 1.0
C      1  0.4411520000000  0.5682670000000  0.4928710000000 1.0
C      1  0.5084780000000  0.5744750000000  0.4637330000000 1.0
C      1  0.4858560000000  0.4642310000000  0.5021320000000 1.0
C      1  0.5356230000000  0.4426090000000  0.4447450000000 1.0
C      1  0.5637360000000  0.4004910000000  0.4787100000000 1.0
C      1  0.5443320000000  0.4125060000000  0.5558250000000 1.0
C      1  0.5985660000000  0.5483410000000  0.5147640000000 1.0
C      1  0.4855000000000  0.5621330000000  0.5905220000000 1.0
C      1  0.4001290000000  0.5452470000000  0.4854400000000 1.0
C      1  0.5180540000000  0.5595750000000  0.4172360000000 1.0
C      1  0.5009580000000  0.3764710000000  0.4349270000000 1.0
C      1  0.5178640000000  0.3566990000000  0.5023410000000 1.0
C      1  0.4618080000000  0.4004250000000  0.5421760000000 1.0
C      1  0.4388470000000  0.3819490000000  0.4741080000000 1.0
C      1  0.4390730000000  0.4915600000000  0.3747140000000 1.0
C      1  0.6236220000000  0.4747990000000  0.4547390000000 1.0
C      1  0.5521210000000  0.5022330000000  0.6074360000000 1.0
C      1  0.3864880000000  0.4728810000000  0.5551260000000 1.0
C      1  0.4783660000000  0.4575660000000  0.6241020000000 1.0
C      1  0.3835150000000  0.4449650000000  0.4616510000000 1.0
C      1  0.5295650000000  0.4621890000000  0.3714160000000 1.0
C      1  0.6145120000000  0.4496990000000  0.5490360000000 1.0
C      1  0.4666470000000  0.5031500000000  0.5763260000000 1.0
C      1  0.4279030000000  0.4956240000000  0.4634450000000 1.0
C      1  0.5356780000000  0.5012160000000  0.4264130000000 1.0
C      1  0.5746460000000  0.5023240000000  0.5424740000000 1.0
C      1  0.5007750000000  0.5110350000000  0.5025810000000 1.0
END
