TITL C-3623286-7563-1494 28179.2963265089 125000 -380.886118724538 0 0 64 (C1) n - 1
REM
REM in /home/nfs/bkarasulu/CARBON/AIRSS/Generating-Clusters/LCBOP/Higher-Symm/SD-CG/FIRE-CG
REM
REM
REM
REM
REM
REM ./C.cell (b20cbc046b6831c77cfcea5457e17084)
REM AIRSS Version 0.9.1 bugfix July 2018 build 013d7b7c2542+ Fri, 06 Jul 2018 19:26:36 +0100
REM compiler GCC version 9.2.1 20190827 (Red Hat 9.2.1-1)
REM options -cpp -mtune=generic -march=x86-64 -g -O0 -fpre-include=/usr/include/finclude/math-vector-fortran.h
REM seed 711502213 872980505 1445752247 1214964369 2107630295 -902852385 -1775746884 -1674233597 -167122139 1918297062 1056315441 2104637088 1604368767 29430182 -1785813737 57227135 -1861936413 4522678 1893491976 1404008494 231257528 60820092 859575786 401499559 -2048513188 9150110 1101269944 1994294490 1519340751 -1540388658 -1730294996 630971194 654563507
REM
CELL 1.54180   50.00000   50.00000   50.00000   90.00000   90.00000   90.00000
LATT -1
SFAC C  
C      1  0.4411880000000  0.4760230000000  0.5021570000000 1.0
C      1  0.4310950000000  0.4913830000000  0.4796190000000 1.0
C      1  0.4884210000000  0.4846470000000  0.4214320000000 1.0
C      1  0.5248020000000  0.4269950000000  0.5260760000000 1.0
C      1  0.4878790000000  0.5119580000000  0.4186890000000 1.0
C      1  0.4908050000000  0.3853220000000  0.4815160000000 1.0
C      1  0.4476340000000  0.4574540000000  0.5449090000000 1.0
C      1  0.4867870000000  0.5652460000000  0.4745960000000 1.0
C      1  0.5271230000000  0.5332280000000  0.5712070000000 1.0
C      1  0.4737190000000  0.5435960000000  0.4572980000000 1.0
C      1  0.5300900000000  0.5273890000000  0.4828800000000 1.0
C      1  0.4909310000000  0.4744190000000  0.4480580000000 1.0
C      1  0.5139280000000  0.5732820000000  0.4648290000000 1.0
C      1  0.4829380000000  0.5708720000000  0.5036190000000 1.0
C      1  0.4674150000000  0.5219850000000  0.5129670000000 1.0
C      1  0.4339180000000  0.5203220000000  0.4788660000000 1.0
C      1  0.5964890000000  0.5263220000000  0.5051210000000 1.0
C      1  0.4449200000000  0.5060350000000  0.4381230000000 1.0
C      1  0.4217040000000  0.5402910000000  0.5211400000000 1.0
C      1  0.5190980000000  0.5193370000000  0.4554310000000 1.0
C      1  0.4600230000000  0.5760070000000  0.5233390000000 1.0
C      1  0.5254090000000  0.4872720000000  0.5371100000000 1.0
C      1  0.4914070000000  0.4410320000000  0.5579960000000 1.0
C      1  0.4667790000000  0.4656360000000  0.4619970000000 1.0
C      1  0.5420690000000  0.4341840000000  0.4581530000000 1.0
C      1  0.5094300000000  0.4903500000000  0.4636250000000 1.0
C      1  0.5352890000000  0.5739470000000  0.4845670000000 1.0
C      1  0.4786120000000  0.4409020000000  0.5099730000000 1.0
C      1  0.4433200000000  0.4816820000000  0.4540620000000 1.0
C      1  0.4581860000000  0.5533820000000  0.5440620000000 1.0
C      1  0.5234160000000  0.4153930000000  0.4623010000000 1.0
C      1  0.5429820000000  0.4614710000000  0.4997790000000 1.0
C      1  0.5236490000000  0.5640820000000  0.4392400000000 1.0
C      1  0.5379580000000  0.5382780000000  0.4386300000000 1.0
C      1  0.4478220000000  0.5298040000000  0.4554110000000 1.0
C      1  0.5739850000000  0.5483620000000  0.4691800000000 1.0
C      1  0.5114860000000  0.5118970000000  0.5763290000000 1.0
C      1  0.5093220000000  0.4884900000000  0.5608100000000 1.0
C      1  0.4387620000000  0.4806710000000  0.5311500000000 1.0
C      1  0.4971960000000  0.4653490000000  0.5707330000000 1.0
C      1  0.5234050000000  0.4801180000000  0.5092910000000 1.0
C      1  0.4633060000000  0.4574640000000  0.4911380000000 1.0
C      1  0.5034680000000  0.4258300000000  0.5052240000000 1.0
C      1  0.5409070000000  0.5373960000000  0.5471640000000 1.0
C      1  0.5008180000000  0.5543940000000  0.5216280000000 1.0
C      1  0.4357810000000  0.5053740000000  0.5470270000000 1.0
C      1  0.5504010000000  0.4542080000000  0.4739670000000 1.0
C      1  0.5458030000000  0.5481210000000  0.4982090000000 1.0
C      1  0.4806310000000  0.5372690000000  0.5336280000000 1.0
C      1  0.4707860000000  0.4427290000000  0.5381850000000 1.0
C      1  0.5481930000000  0.4442380000000  0.5226800000000 1.0
C      1  0.5134320000000  0.4242900000000  0.5519530000000 1.0
C      1  0.5649360000000  0.5396640000000  0.4464250000000 1.0
C      1  0.5055610000000  0.4082750000000  0.4828190000000 1.0
C      1  0.5633670000000  0.4622600000000  0.5407620000000 1.0
C      1  0.4822800000000  0.5021520000000  0.5012580000000 1.0
C      1  0.5046350000000  0.4894380000000  0.4916180000000 1.0
C      1  0.5285230000000  0.5506620000000  0.5247650000000 1.0
C      1  0.4929900000000  0.5282290000000  0.4418470000000 1.0
C      1  0.4415050000000  0.5310450000000  0.5028880000000 1.0
C      1  0.5545560000000  0.4902830000000  0.5423300000000 1.0
C      1  0.5609770000000  0.5181200000000  0.5378460000000 1.0
C      1  0.5712100000000  0.5288280000000  0.5136090000000 1.0
C      1  0.4345440000000  0.5353170000000  0.5467590000000 1.0
END
