TITL C-3623288-6813-2011 1.42178895633978 125000 -380.156425957142 0 0 63 (C1) n - 1
REM
REM in /home/nfs/bkarasulu/CARBON/AIRSS/Generating-Clusters/LCBOP/Higher-Symm/SD-CG/FIRE-CG
REM
REM
REM
REM
REM
REM ./C.cell (b20cbc046b6831c77cfcea5457e17084)
REM AIRSS Version 0.9.1 bugfix July 2018 build 013d7b7c2542+ Fri, 06 Jul 2018 19:26:36 +0100
REM compiler GCC version 9.2.1 20190827 (Red Hat 9.2.1-1)
REM options -cpp -mtune=generic -march=x86-64 -g -O0 -fpre-include=/usr/include/finclude/math-vector-fortran.h
REM seed -611836805 1077891385 508189580 -254936680 -335149731 211994429 1420004623 2032081461 1847479013 -1894922062 -215100356 1497024672 -1804657687 281087730 -563209818 1586348823 1730487223 474995052 2088713880 -297686572 1478984172 -225871914 254440675 1890211120 663326263 1694702265 1193998935 436621963 1955330090 -939587312 -1793954703 41932646 -1182689678
REM
CELL 1.54180   50.00000   50.00000   50.00000   90.00000   90.00000   90.00000
LATT -1
SFAC C  
C      1  0.5783090000000  0.4274690000000  0.4847520000000 1.0
C      1  0.5665580000000  0.5230710000000  0.4428130000000 1.0
C      1  0.5486970000000  0.5351130000000  0.5647590000000 1.0
C      1  0.3983030000000  0.5840530000000  0.4069800000000 1.0
C      1  0.3917700000000  0.4825690000000  0.6128900000000 1.0
C      1  0.3630100000000  0.4295120000000  0.4846500000000 1.0
C      1  0.4826810000000  0.4943260000000  0.5597060000000 1.0
C      1  0.4674960000000  0.4444160000000  0.4942850000000 1.0
C      1  0.4753740000000  0.5458360000000  0.4688850000000 1.0
C      1  0.3238470000000  0.4735900000000  0.6523740000000 1.0
C      1  0.2850160000000  0.4185460000000  0.4775980000000 1.0
C      1  0.3408200000000  0.6125660000000  0.3607660000000 1.0
C      1  0.5157470000000  0.4907350000000  0.4805130000000 1.0
C      1  0.5241970000000  0.5390560000000  0.5223020000000 1.0
C      1  0.5326170000000  0.4581280000000  0.5299930000000 1.0
C      1  0.5436810000000  0.4996430000000  0.4800710000000 1.0
C      1  0.5594690000000  0.4870680000000  0.5001920000000 1.0
C      1  0.5534960000000  0.4609790000000  0.5101510000000 1.0
C      1  0.6261750000000  0.4440080000000  0.4929980000000 1.0
C      1  0.6131460000000  0.5333810000000  0.4238710000000 1.0
C      1  0.5705340000000  0.5545220000000  0.5270970000000 1.0
C      1  0.4600510000000  0.4915900000000  0.5731890000000 1.0
C      1  0.4414190000000  0.4405420000000  0.4917450000000 1.0
C      1  0.4560930000000  0.5553870000000  0.4534400000000 1.0
C      1  0.6311510000000  0.5495040000000  0.4845600000000 1.0
C      1  0.6257560000000  0.5123970000000  0.5135440000000 1.0
C      1  0.6523570000000  0.5082880000000  0.4744480000000 1.0
C      1  0.5058870000000  0.4958020000000  0.5443670000000 1.0
C      1  0.4944360000000  0.4499140000000  0.4976680000000 1.0
C      1  0.4956840000000  0.5358090000000  0.4845650000000 1.0
C      1  0.5416010000000  0.5476770000000  0.4770990000000 1.0
C      1  0.5454820000000  0.4863860000000  0.5698930000000 1.0
C      1  0.5332030000000  0.4457040000000  0.4702780000000 1.0
C      1  0.3597710000000  0.6031660000000  0.3760020000000 1.0
C      1  0.3462400000000  0.4765500000000  0.6393570000000 1.0
C      1  0.3107290000000  0.4221610000000  0.4799230000000 1.0
C      1  0.3690080000000  0.4795600000000  0.6261220000000 1.0
C      1  0.3368730000000  0.4258370000000  0.4822870000000 1.0
C      1  0.3790390000000  0.5936080000000  0.3914930000000 1.0
C      1  0.4152830000000  0.4368630000000  0.4893780000000 1.0
C      1  0.4368300000000  0.5649420000000  0.4379540000000 1.0
C      1  0.4372930000000  0.4885860000000  0.5864250000000 1.0
C      1  0.5514930000000  0.5233300000000  0.4662220000000 1.0
C      1  0.5519970000000  0.5114890000000  0.5770160000000 1.0
C      1  0.5546390000000  0.4415620000000  0.4886660000000 1.0
C      1  0.6177580000000  0.5390410000000  0.5073590000000 1.0
C      1  0.6405630000000  0.4948930000000  0.4966250000000 1.0
C      1  0.6434830000000  0.5334190000000  0.4645200000000 1.0
C      1  0.5466540000000  0.5451200000000  0.5385090000000 1.0
C      1  0.6047870000000  0.4292230000000  0.4872960000000 1.0
C      1  0.5872870000000  0.5276860000000  0.4268430000000 1.0
C      1  0.6357250000000  0.5363980000000  0.4378400000000 1.0
C      1  0.5955640000000  0.5513910000000  0.5187090000000 1.0
C      1  0.6383790000000  0.4671700000000  0.4976570000000 1.0
C      1  0.4145310000000  0.4855780000000  0.5996580000000 1.0
C      1  0.3891460000000  0.4331880000000  0.4870140000000 1.0
C      1  0.4175660000000  0.5744970000000  0.4224670000000 1.0
C      1  0.5109190000000  0.4623880000000  0.4776990000000 1.0
C      1  0.5196690000000  0.5492620000000  0.4949340000000 1.0
C      1  0.5280670000000  0.4782070000000  0.5494940000000 1.0
C      1  0.5084080000000  0.5141600000000  0.5232190000000 1.0
C      1  0.5090890000000  0.4443430000000  0.5213640000000 1.0
C      1  0.4991480000000  0.5087980000000  0.4955070000000 1.0
END
