TITL C-3623289-7120-158 -9.44050071985617e-07 125000 -1078.45058416773 0 0 174 (C1) n - 1
REM
REM in /home/nfs/bkarasulu/CARBON/AIRSS/Generating-Clusters/LCBOP/Higher-Symm/SD-CG/FIRE-CG
REM
REM
REM
REM
REM
REM ./C.cell (b20cbc046b6831c77cfcea5457e17084)
REM AIRSS Version 0.9.1 bugfix July 2018 build 013d7b7c2542+ Fri, 06 Jul 2018 19:26:36 +0100
REM compiler GCC version 9.2.1 20190827 (Red Hat 9.2.1-1)
REM options -cpp -mtune=generic -march=x86-64 -g -O0 -fpre-include=/usr/include/finclude/math-vector-fortran.h
REM seed 855007264 2139938747 1004824052 -229248310 -56915725 653262349 -2102363546 -1292924206 1245539324 -571076151 -426412567 -1801163410 -218371311 -1779925898 204916913 1429512079 -33680628 1573467165 881002364 -350938058 -1489285125 2052326996 -940087604 1251271760 -382704790 -1607357652 9675716 705974012 -1389002852 1098151349 -90511078 -634999314 1192411837
REM
CELL 1.54180   50.00000   50.00000   50.00000   90.00000   90.00000   90.00000
LATT -1
SFAC C  
C      1  0.5961370000000  0.4866440000000  0.5682420000000 1.0
C      1  0.4038490000000  0.5141590000000  0.5635470000000 1.0
C      1  0.4016680000000  0.4850830000000  0.5668410000000 1.0
C      1  0.5988420000000  0.5162550000000  0.5682800000000 1.0
C      1  0.5329010000000  0.4713560000000  0.4482100000000 1.0
C      1  0.4692720000000  0.5253500000000  0.4490290000000 1.0
C      1  0.4662280000000  0.4724690000000  0.4480140000000 1.0
C      1  0.5296340000000  0.5259470000000  0.4502660000000 1.0
C      1  0.4679550000000  0.4322400000000  0.4777270000000 1.0
C      1  0.5320940000000  0.5691370000000  0.4778440000000 1.0
C      1  0.5320090000000  0.4308710000000  0.4763270000000 1.0
C      1  0.4684570000000  0.5685120000000  0.4778030000000 1.0
C      1  0.4126790000000  0.4487920000000  0.5264430000000 1.0
C      1  0.5911830000000  0.5525920000000  0.5250750000000 1.0
C      1  0.5835290000000  0.4503580000000  0.5270850000000 1.0
C      1  0.4093300000000  0.5496010000000  0.5234620000000 1.0
C      1  0.4081930000000  0.4738580000000  0.5917860000000 1.0
C      1  0.5929070000000  0.5294570000000  0.5924290000000 1.0
C      1  0.5915610000000  0.4729730000000  0.5923960000000 1.0
C      1  0.4285800000000  0.5241650000000  0.5720670000000 1.0
C      1  0.4680670000000  0.4517040000000  0.5363730000000 1.0
C      1  0.5438490000000  0.5417570000000  0.5372480000000 1.0
C      1  0.5248050000000  0.4494120000000  0.5313130000000 1.0
C      1  0.4604260000000  0.5408460000000  0.5369740000000 1.0
C      1  0.6011910000000  0.4399840000000  0.4744130000000 1.0
C      1  0.3947270000000  0.5543320000000  0.4690990000000 1.0
C      1  0.3976860000000  0.4386490000000  0.4733840000000 1.0
C      1  0.6059110000000  0.5566480000000  0.4711780000000 1.0
C      1  0.5888510000000  0.6019010000000  0.4479470000000 1.0
C      1  0.4167990000000  0.3923330000000  0.4541130000000 1.0
C      1  0.4120470000000  0.5996480000000  0.4461290000000 1.0
C      1  0.5850170000000  0.3927630000000  0.4546120000000 1.0
C      1  0.5703150000000  0.4854670000000  0.4051830000000 1.0
C      1  0.4295620000000  0.5137440000000  0.4053240000000 1.0
C      1  0.4291460000000  0.4856210000000  0.4048660000000 1.0
C      1  0.5700780000000  0.5135080000000  0.4060620000000 1.0
C      1  0.5477310000000  0.4075790000000  0.5590860000000 1.0
C      1  0.4574190000000  0.5845700000000  0.5619580000000 1.0
C      1  0.4501950000000  0.4067140000000  0.5615380000000 1.0
C      1  0.5439210000000  0.5877240000000  0.5611110000000 1.0
C      1  0.4731710000000  0.4849290000000  0.4213720000000 1.0
C      1  0.5244130000000  0.5131660000000  0.4233830000000 1.0
C      1  0.5259090000000  0.4847990000000  0.4221040000000 1.0
C      1  0.4746170000000  0.5131840000000  0.4221530000000 1.0
C      1  0.5106720000000  0.4734600000000  0.5378300000000 1.0
C      1  0.4891380000000  0.5433220000000  0.5349020000000 1.0
C      1  0.4828680000000  0.4746770000000  0.5439560000000 1.0
C      1  0.5156820000000  0.5364090000000  0.5429030000000 1.0
C      1  0.6034330000000  0.5301200000000  0.5432560000000 1.0
C      1  0.3984460000000  0.4704100000000  0.5425960000000 1.0
C      1  0.3950770000000  0.5279960000000  0.5403580000000 1.0
C      1  0.5974540000000  0.4725760000000  0.5433660000000 1.0
C      1  0.5147350000000  0.5855320000000  0.4938120000000 1.0
C      1  0.4845330000000  0.4135850000000  0.4924510000000 1.0
C      1  0.4852730000000  0.5852110000000  0.4939450000000 1.0
C      1  0.5147920000000  0.4128460000000  0.4913950000000 1.0
C      1  0.4511120000000  0.4922770000000  0.5083280000000 1.0
C      1  0.5341050000000  0.5144360000000  0.4979210000000 1.0
C      1  0.5463200000000  0.4913980000000  0.5099450000000 1.0
C      1  0.4645350000000  0.5142120000000  0.4962960000000 1.0
C      1  0.4713110000000  0.4423050000000  0.4508670000000 1.0
C      1  0.5265230000000  0.5566850000000  0.4522570000000 1.0
C      1  0.5296860000000  0.4408840000000  0.4494920000000 1.0
C      1  0.4739050000000  0.5558850000000  0.4521950000000 1.0
C      1  0.5284570000000  0.5823810000000  0.5843220000000 1.0
C      1  0.4717980000000  0.4228330000000  0.5734950000000 1.0
C      1  0.4733340000000  0.5795490000000  0.5852570000000 1.0
C      1  0.5264820000000  0.4235540000000  0.5706040000000 1.0
C      1  0.4716480000000  0.5993360000000  0.5162250000000 1.0
C      1  0.5289120000000  0.3968120000000  0.5124770000000 1.0
C      1  0.5278760000000  0.6002190000000  0.5157570000000 1.0
C      1  0.4702860000000  0.3977000000000  0.5137620000000 1.0
C      1  0.6231910000000  0.5257980000000  0.5007230000000 1.0
C      1  0.3774800000000  0.4698220000000  0.5006880000000 1.0
C      1  0.3758900000000  0.5242350000000  0.4984930000000 1.0
C      1  0.6198640000000  0.4713570000000  0.5023120000000 1.0
C      1  0.5604690000000  0.5624360000000  0.5219240000000 1.0
C      1  0.4427590000000  0.4392520000000  0.5229480000000 1.0
C      1  0.4405550000000  0.5602620000000  0.5222210000000 1.0
C      1  0.5537140000000  0.4392000000000  0.5217570000000 1.0
C      1  0.4818800000000  0.4316740000000  0.4260770000000 1.0
C      1  0.5161170000000  0.5672810000000  0.4268910000000 1.0
C      1  0.5179510000000  0.4311250000000  0.4251010000000 1.0
C      1  0.4842000000000  0.5670230000000  0.4268770000000 1.0
C      1  0.6017320000000  0.4478280000000  0.5024680000000 1.0
C      1  0.3932350000000  0.5486640000000  0.4975980000000 1.0
C      1  0.3957900000000  0.4463460000000  0.5013520000000 1.0
C      1  0.6074580000000  0.5510340000000  0.4996440000000 1.0
C      1  0.5140860000000  0.5236060000000  0.3987660000000 1.0
C      1  0.4855360000000  0.4749060000000  0.3977250000000 1.0
C      1  0.4858360000000  0.5235360000000  0.3981140000000 1.0
C      1  0.5139230000000  0.4750850000000  0.3979170000000 1.0
C      1  0.4412000000000  0.5157580000000  0.4587810000000 1.0
C      1  0.5568010000000  0.4856080000000  0.4621010000000 1.0
C      1  0.5574350000000  0.5154620000000  0.4600490000000 1.0
C      1  0.4413040000000  0.4855760000000  0.4611990000000 1.0
C      1  0.4026690000000  0.5780610000000  0.4573200000000 1.0
C      1  0.5935120000000  0.4154580000000  0.4641990000000 1.0
C      1  0.5982870000000  0.5804520000000  0.4593510000000 1.0
C      1  0.4067340000000  0.4145000000000  0.4634120000000 1.0
C      1  0.4418410000000  0.4739570000000  0.4884040000000 1.0
C      1  0.5573350000000  0.5291870000000  0.4859040000000 1.0
C      1  0.5562270000000  0.4739310000000  0.4890860000000 1.0
C      1  0.4418940000000  0.5295280000000  0.4843700000000 1.0
C      1  0.4840970000000  0.4310030000000  0.5486450000000 1.0
C      1  0.5135730000000  0.6041400000000  0.5952670000000 1.0
C      1  0.5113290000000  0.4295140000000  0.5464590000000 1.0
C      1  0.4864090000000  0.6027030000000  0.5959510000000 1.0
C      1  0.6170880000000  0.4855940000000  0.5261780000000 1.0
C      1  0.3777490000000  0.5120240000000  0.5237280000000 1.0
C      1  0.3794370000000  0.4839560000000  0.5248790000000 1.0
C      1  0.6199010000000  0.5134650000000  0.5256910000000 1.0
C      1  0.5505680000000  0.4461010000000  0.4924190000000 1.0
C      1  0.4464610000000  0.5564540000000  0.4922210000000 1.0
C      1  0.4484120000000  0.4464990000000  0.4936570000000 1.0
C      1  0.5540060000000  0.5568020000000  0.4924310000000 1.0
C      1  0.5230350000000  0.4514620000000  0.3828940000000 1.0
C      1  0.4768620000000  0.5478030000000  0.3842230000000 1.0
C      1  0.4763790000000  0.4509760000000  0.3833090000000 1.0
C      1  0.5234450000000  0.5476080000000  0.3846520000000 1.0
C      1  0.6221830000000  0.4835220000000  0.4757640000000 1.0
C      1  0.3754010000000  0.5101530000000  0.4728360000000 1.0
C      1  0.3761490000000  0.4819190000000  0.4739900000000 1.0
C      1  0.6235140000000  0.5117680000000  0.4749480000000 1.0
C      1  0.4872830000000  0.5548710000000  0.5933820000000 1.0
C      1  0.5159960000000  0.4451140000000  0.5883990000000 1.0
C      1  0.5171750000000  0.5565740000000  0.5916580000000 1.0
C      1  0.4850430000000  0.4430960000000  0.5922280000000 1.0
C      1  0.4372400000000  0.4585530000000  0.4069800000000 1.0
C      1  0.5617890000000  0.5403330000000  0.4091520000000 1.0
C      1  0.5622220000000  0.4584410000000  0.4066200000000 1.0
C      1  0.4381690000000  0.5405540000000  0.4084130000000 1.0
C      1  0.5293180000000  0.4721190000000  0.5843360000000 1.0
C      1  0.4784550000000  0.5273030000000  0.5961660000000 1.0
C      1  0.4719570000000  0.4694180000000  0.5930680000000 1.0
C      1  0.5290030000000  0.5304570000000  0.5888040000000 1.0
C      1  0.4607620000000  0.4390250000000  0.4045990000000 1.0
C      1  0.5383700000000  0.5596950000000  0.4063780000000 1.0
C      1  0.5387980000000  0.4390530000000  0.4036990000000 1.0
C      1  0.4618980000000  0.5598020000000  0.4060830000000 1.0
C      1  0.5704700000000  0.4726880000000  0.6091180000000 1.0
C      1  0.4333120000000  0.5270770000000  0.5994780000000 1.0
C      1  0.4275110000000  0.4743070000000  0.6105560000000 1.0
C      1  0.5719800000000  0.5272980000000  0.6092150000000 1.0
C      1  0.4486420000000  0.4093200000000  0.5310330000000 1.0
C      1  0.5475630000000  0.5876000000000  0.5326450000000 1.0
C      1  0.5496720000000  0.4094920000000  0.5295260000000 1.0
C      1  0.4523050000000  0.5861190000000  0.5334110000000 1.0
C      1  0.4437070000000  0.4970060000000  0.5347370000000 1.0
C      1  0.5602040000000  0.5199610000000  0.5446720000000 1.0
C      1  0.5506970000000  0.4944900000000  0.5384190000000 1.0
C      1  0.4471660000000  0.5202320000000  0.5506780000000 1.0
C      1  0.6123540000000  0.4620760000000  0.4589900000000 1.0
C      1  0.3848690000000  0.5308360000000  0.4549450000000 1.0
C      1  0.3867280000000  0.4605400000000  0.4575970000000 1.0
C      1  0.6148500000000  0.5327880000000  0.4570430000000 1.0
C      1  0.4859070000000  0.3755400000000  0.5227090000000 1.0
C      1  0.5130270000000  0.6225430000000  0.5250400000000 1.0
C      1  0.5130950000000  0.3750860000000  0.5219600000000 1.0
C      1  0.4859050000000  0.6221030000000  0.5254080000000 1.0
C      1  0.4890020000000  0.5102740000000  0.5761530000000 1.0
C      1  0.5278390000000  0.4883060000000  0.5571920000000 1.0
C      1  0.5159110000000  0.5156950000000  0.5655710000000 1.0
C      1  0.4782070000000  0.4852400000000  0.5699550000000 1.0
C      1  0.5469530000000  0.5150110000000  0.6044320000000 1.0
C      1  0.4541020000000  0.4843930000000  0.6102780000000 1.0
C      1  0.4565040000000  0.5141390000000  0.6097300000000 1.0
C      1  0.5460030000000  0.4858340000000  0.6037360000000 1.0
C      1  0.5137190000000  0.5172000000000  0.4762510000000 1.0
C      1  0.4869310000000  0.4831870000000  0.4668470000000 1.0
C      1  0.4854410000000  0.5130940000000  0.4741650000000 1.0
C      1  0.5117730000000  0.4781640000000  0.4676790000000 1.0
C      1  0.4997000000000  0.4405710000000  0.3705420000000 1.0
C      1  0.5003180000000  0.5585580000000  0.3719450000000 1.0
END
