TITL C-3623287-7182-971 0.115737606471782 125000 -675.011649528764 0 0 111 (C1) n - 1
REM
REM in /home/nfs/bkarasulu/CARBON/AIRSS/Generating-Clusters/LCBOP/Higher-Symm/SD-CG/FIRE-CG
REM
REM
REM
REM
REM
REM ./C.cell (b20cbc046b6831c77cfcea5457e17084)
REM AIRSS Version 0.9.1 bugfix July 2018 build 013d7b7c2542+ Fri, 06 Jul 2018 19:26:36 +0100
REM compiler GCC version 9.2.1 20190827 (Red Hat 9.2.1-1)
REM options -cpp -mtune=generic -march=x86-64 -g -O0 -fpre-include=/usr/include/finclude/math-vector-fortran.h
REM seed -1888343655 -698512583 -701067888 1987689250 1331722812 1888003866 -1277132795 912832653 370997249 1866433144 669179839 -59866939 -867629479 849337885 908790257 -1004969115 -1544300904 -714790553 -621396067 1018708571 -2025791874 -1609055875 -17904494 1072993200 -248298165 -1878037372 947678106 1168667057 -425896764 2096220599 -1324271630 -484310608 -770707772
REM
CELL 1.54180   50.00000   50.00000   50.00000   90.00000   90.00000   90.00000
LATT -1
SFAC C  
C      1  0.5166390000000  0.5943040000000  0.4591030000000 1.0
C      1  0.4607190000000  0.5109440000000  0.4509800000000 1.0
C      1  0.4636610000000  0.5991070000000  0.4545680000000 1.0
C      1  0.4763300000000  0.4322590000000  0.4675440000000 1.0
C      1  0.5279590000000  0.5326580000000  0.4738680000000 1.0
C      1  0.5291440000000  0.5922990000000  0.4843690000000 1.0
C      1  0.5028050000000  0.4760040000000  0.5895540000000 1.0
C      1  0.4750410000000  0.4177700000000  0.4924470000000 1.0
C      1  0.4732310000000  0.5957190000000  0.5148010000000 1.0
C      1  0.5146790000000  0.5562130000000  0.5459880000000 1.0
C      1  0.4106550000000  0.5662490000000  0.5170240000000 1.0
C      1  0.4800000000000  0.5145630000000  0.5396360000000 1.0
C      1  0.5451410000000  0.4729330000000  0.5688730000000 1.0
C      1  0.4999040000000  0.4486060000000  0.5838530000000 1.0
C      1  0.4549820000000  0.4505640000000  0.4634430000000 1.0
C      1  0.4427310000000  0.4393730000000  0.5567270000000 1.0
C      1  0.5264750000000  0.5834310000000  0.4345050000000 1.0
C      1  0.4816650000000  0.5486740000000  0.5079690000000 1.0
C      1  0.6539310000000  0.4937390000000  0.6214870000000 1.0
C      1  0.4139550000000  0.5002380000000  0.4650490000000 1.0
C      1  0.6203030000000  0.4881730000000  0.5814740000000 1.0
C      1  0.5568070000000  0.5268210000000  0.5122200000000 1.0
C      1  0.3561370000000  0.5270520000000  0.4979480000000 1.0
C      1  0.4809020000000  0.5241610000000  0.4923060000000 1.0
C      1  0.5300560000000  0.4858910000000  0.4697740000000 1.0
C      1  0.5415000000000  0.4385190000000  0.5020110000000 1.0
C      1  0.4412910000000  0.4877470000000  0.5621640000000 1.0
C      1  0.5604090000000  0.5753400000000  0.5381630000000 1.0
C      1  0.5291870000000  0.4860910000000  0.5876210000000 1.0
C      1  0.5637190000000  0.4539640000000  0.4616070000000 1.0
C      1  0.4553280000000  0.4736180000000  0.4809050000000 1.0
C      1  0.6022260000000  0.4618740000000  0.5439870000000 1.0
C      1  0.6166890000000  0.5328470000000  0.5159330000000 1.0
C      1  0.6372480000000  0.4909900000000  0.6016430000000 1.0
C      1  0.4745350000000  0.5044250000000  0.5130650000000 1.0
C      1  0.4995550000000  0.4653510000000  0.4405930000000 1.0
C      1  0.4656960000000  0.5125200000000  0.4227770000000 1.0
C      1  0.5353170000000  0.5112290000000  0.5979830000000 1.0
C      1  0.5719650000000  0.5440410000000  0.4969520000000 1.0
C      1  0.5465990000000  0.4349430000000  0.4739740000000 1.0
C      1  0.5303080000000  0.5367900000000  0.5923560000000 1.0
C      1  0.4404780000000  0.5870090000000  0.4498550000000 1.0
C      1  0.4458220000000  0.4006080000000  0.5269600000000 1.0
C      1  0.4934080000000  0.4248400000000  0.5143120000000 1.0
C      1  0.5523160000000  0.5724470000000  0.4319050000000 1.0
C      1  0.5332790000000  0.5185310000000  0.4991090000000 1.0
C      1  0.4981450000000  0.6049990000000  0.5182330000000 1.0
C      1  0.5327580000000  0.5741440000000  0.5316340000000 1.0
C      1  0.6025120000000  0.4851690000000  0.5603310000000 1.0
C      1  0.4497240000000  0.4053810000000  0.4993520000000 1.0
C      1  0.4993110000000  0.4302070000000  0.5645160000000 1.0
C      1  0.5866530000000  0.5694640000000  0.5373940000000 1.0
C      1  0.4346780000000  0.4906390000000  0.5904710000000 1.0
C      1  0.3786440000000  0.4141060000000  0.4866820000000 1.0
C      1  0.4997510000000  0.4389760000000  0.4523550000000 1.0
C      1  0.5704360000000  0.5010850000000  0.4458120000000 1.0
C      1  0.4044000000000  0.5781890000000  0.4195540000000 1.0
C      1  0.4165100000000  0.4631320000000  0.5254400000000 1.0
C      1  0.4852040000000  0.4219640000000  0.5418500000000 1.0
C      1  0.4081640000000  0.4463350000000  0.5063830000000 1.0
C      1  0.4897140000000  0.6028700000000  0.4584910000000 1.0
C      1  0.5137780000000  0.4439920000000  0.5088610000000 1.0
C      1  0.4928260000000  0.5413060000000  0.5347230000000 1.0
C      1  0.4388730000000  0.4527910000000  0.4394080000000 1.0
C      1  0.6120880000000  0.5091000000000  0.5040360000000 1.0
C      1  0.4691210000000  0.4995750000000  0.5608800000000 1.0
C      1  0.5223760000000  0.5919670000000  0.5118350000000 1.0
C      1  0.4572090000000  0.4179440000000  0.5458440000000 1.0
C      1  0.5554780000000  0.4808200000000  0.4582330000000 1.0
C      1  0.4355700000000  0.5659080000000  0.5093620000000 1.0
C      1  0.5621150000000  0.4460720000000  0.5223780000000 1.0
C      1  0.4964970000000  0.4764850000000  0.4144600000000 1.0
C      1  0.4759440000000  0.4781120000000  0.5022320000000 1.0
C      1  0.4869700000000  0.5596630000000  0.4097170000000 1.0
C      1  0.5772650000000  0.4232480000000  0.5366670000000 1.0
C      1  0.4327530000000  0.4645470000000  0.5482910000000 1.0
C      1  0.4690580000000  0.4855960000000  0.4111310000000 1.0
C      1  0.5064590000000  0.5776300000000  0.4150850000000 1.0
C      1  0.5205020000000  0.5524240000000  0.5732170000000 1.0
C      1  0.5126680000000  0.5219160000000  0.4221350000000 1.0
C      1  0.5245070000000  0.4265580000000  0.4581070000000 1.0
C      1  0.4014530000000  0.5253580000000  0.4686720000000 1.0
C      1  0.4187840000000  0.5712000000000  0.4417760000000 1.0
C      1  0.4248520000000  0.3917660000000  0.4601020000000 1.0
C      1  0.5660020000000  0.5167320000000  0.5368850000000 1.0
C      1  0.5692250000000  0.5516320000000  0.4324920000000 1.0
C      1  0.4420270000000  0.4966280000000  0.4675950000000 1.0
C      1  0.5982500000000  0.4860110000000  0.5019670000000 1.0
C      1  0.4852340000000  0.5107360000000  0.4666040000000 1.0
C      1  0.5238630000000  0.5310660000000  0.4469360000000 1.0
C      1  0.5164580000000  0.4966070000000  0.4093180000000 1.0
C      1  0.5483720000000  0.4602210000000  0.5458220000000 1.0
C      1  0.5873740000000  0.4656010000000  0.5179970000000 1.0
C      1  0.4860940000000  0.5322890000000  0.4159330000000 1.0
C      1  0.4110120000000  0.4561700000000  0.4432110000000 1.0
C      1  0.5754320000000  0.5259620000000  0.4371880000000 1.0
C      1  0.3999060000000  0.4780360000000  0.4545640000000 1.0
C      1  0.4042370000000  0.4224610000000  0.4919340000000 1.0
C      1  0.5047590000000  0.4710440000000  0.5059430000000 1.0
C      1  0.4117780000000  0.5482350000000  0.4562230000000 1.0
C      1  0.5039400000000  0.4877990000000  0.4585890000000 1.0
C      1  0.3781900000000  0.5270550000000  0.4840600000000 1.0
C      1  0.4579120000000  0.4934050000000  0.6052700000000 1.0
C      1  0.4807690000000  0.4933730000000  0.5875230000000 1.0
C      1  0.5836060000000  0.5053270000000  0.5536730000000 1.0
C      1  0.4263880000000  0.4064540000000  0.4831630000000 1.0
C      1  0.6074980000000  0.5544980000000  0.5291330000000 1.0
C      1  0.5991750000000  0.4338550000000  0.5500960000000 1.0
C      1  0.4498190000000  0.4654480000000  0.4163810000000 1.0
C      1  0.5251210000000  0.4909900000000  0.4979320000000 1.0
C      1  0.4630770000000  0.5702500000000  0.5085370000000 1.0
END
