TITL C-3623288-6813-310 3.50158683393219e-07 125000 -937.951800766132 0 0 150 (C2) n - 1
REM
REM in /home/nfs/bkarasulu/CARBON/AIRSS/Generating-Clusters/LCBOP/Higher-Symm/SD-CG/FIRE-CG
REM
REM
REM
REM
REM
REM ./C.cell (b20cbc046b6831c77cfcea5457e17084)
REM AIRSS Version 0.9.1 bugfix July 2018 build 013d7b7c2542+ Fri, 06 Jul 2018 19:26:36 +0100
REM compiler GCC version 9.2.1 20190827 (Red Hat 9.2.1-1)
REM options -cpp -mtune=generic -march=x86-64 -g -O0 -fpre-include=/usr/include/finclude/math-vector-fortran.h
REM seed -1747547799 -1339867930 -923350359 1706783048 267415343 -1553779600 -1078622002 688437869 1770554917 2109266053 926038633 998278907 386676612 -439691184 -1290951402 1371070664 -756891821 -2133849070 804420966 1118772725 -614962932 953505938 -229060685 -1335187588 1533482519 -1138098666 1053564427 1658107491 -710900031 878608324 -96035591 -1446857327 -1934699155
REM
CELL 1.54180   50.00000   50.00000   50.00000   90.00000   90.00000   90.00000
LATT -1
SFAC C  
C      1  0.4493710000000  0.4695450000000  0.3825820000000 1.0
C      1  0.5506200000000  0.5304580000000  0.3825780000000 1.0
C      1  0.4409120000000  0.5166330000000  0.6232680000000 1.0
C      1  0.5590980000000  0.4833640000000  0.6232620000000 1.0
C      1  0.4763110000000  0.5990770000000  0.4329590000000 1.0
C      1  0.5236830000000  0.4009250000000  0.4329550000000 1.0
C      1  0.4773190000000  0.3965810000000  0.5644900000000 1.0
C      1  0.5226860000000  0.6034180000000  0.5644900000000 1.0
C      1  0.4231520000000  0.5310420000000  0.4328180000000 1.0
C      1  0.5768430000000  0.4689600000000  0.4328110000000 1.0
C      1  0.4225330000000  0.4687050000000  0.5643050000000 1.0
C      1  0.5774730000000  0.5312930000000  0.5643000000000 1.0
C      1  0.5629580000000  0.5652260000000  0.4984460000000 1.0
C      1  0.4370420000000  0.4347740000000  0.4984500000000 1.0
C      1  0.5647430000000  0.4389920000000  0.5005670000000 1.0
C      1  0.4352570000000  0.5610080000000  0.5005730000000 1.0
C      1  0.4774900000000  0.4668420000000  0.3810730000000 1.0
C      1  0.5225000000000  0.5331610000000  0.3810720000000 1.0
C      1  0.4619290000000  0.5080730000000  0.6370470000000 1.0
C      1  0.5380830000000  0.4919240000000  0.6370440000000 1.0
C      1  0.4268130000000  0.4545190000000  0.5163280000000 1.0
C      1  0.5731880000000  0.5454800000000  0.5163230000000 1.0
C      1  0.4232680000000  0.5438730000000  0.4814490000000 1.0
C      1  0.5767300000000  0.4561280000000  0.4814420000000 1.0
C      1  0.4676980000000  0.4207840000000  0.4614250000000 1.0
C      1  0.5322990000000  0.5792160000000  0.4614240000000 1.0
C      1  0.4759280000000  0.5716310000000  0.5240330000000 1.0
C      1  0.5240740000000  0.4283690000000  0.5240300000000 1.0
C      1  0.4923220000000  0.5350990000000  0.5630660000000 1.0
C      1  0.5076830000000  0.4648990000000  0.5630640000000 1.0
C      1  0.4936830000000  0.4673490000000  0.4422860000000 1.0
C      1  0.5063120000000  0.5326520000000  0.4422860000000 1.0
C      1  0.5727800000000  0.5325530000000  0.3998780000000 1.0
C      1  0.4272120000000  0.4674490000000  0.3998830000000 1.0
C      1  0.5722700000000  0.4709030000000  0.6019090000000 1.0
C      1  0.4277380000000  0.5290950000000  0.6019160000000 1.0
C      1  0.4732560000000  0.5170580000000  0.5512150000000 1.0
C      1  0.5267480000000  0.4829410000000  0.5512120000000 1.0
C      1  0.4721400000000  0.4821290000000  0.4536340000000 1.0
C      1  0.5278570000000  0.5178720000000  0.4536320000000 1.0
C      1  0.4210150000000  0.5987370000000  0.5423850000000 1.0
C      1  0.5789890000000  0.4012620000000  0.5423760000000 1.0
C      1  0.4113660000000  0.3990050000000  0.4627940000000 1.0
C      1  0.5886310000000  0.6009960000000  0.4627890000000 1.0
C      1  0.4608470000000  0.4432490000000  0.5511360000000 1.0
C      1  0.5391570000000  0.5567500000000  0.5511340000000 1.0
C      1  0.4603230000000  0.5551160000000  0.4512960000000 1.0
C      1  0.5396720000000  0.4448850000000  0.4512910000000 1.0
C      1  0.4844090000000  0.4474130000000  0.4248640000000 1.0
C      1  0.5155850000000  0.5525890000000  0.4248640000000 1.0
C      1  0.4804750000000  0.5598570000000  0.5701820000000 1.0
C      1  0.5195310000000  0.4401420000000  0.5701790000000 1.0
C      1  0.4515410000000  0.5315560000000  0.5373520000000 1.0
C      1  0.5484620000000  0.4684430000000  0.5373480000000 1.0
C      1  0.4502240000000  0.4654940000000  0.4632580000000 1.0
C      1  0.5497730000000  0.5345070000000  0.4632550000000 1.0
C      1  0.5673010000000  0.5922730000000  0.5059590000000 1.0
C      1  0.4326990000000  0.4077270000000  0.5059630000000 1.0
C      1  0.5661210000000  0.4107880000000  0.4959470000000 1.0
C      1  0.4338790000000  0.5892120000000  0.4959550000000 1.0
C      1  0.5191930000000  0.5789520000000  0.4367300000000 1.0
C      1  0.4808020000000  0.4210500000000  0.4367300000000 1.0
C      1  0.5151000000000  0.4198040000000  0.5489340000000 1.0
C      1  0.4849040000000  0.5801950000000  0.5489370000000 1.0
C      1  0.4625380000000  0.5839790000000  0.4523360000000 1.0
C      1  0.5374580000000  0.4160220000000  0.4523310000000 1.0
C      1  0.4605940000000  0.4140590000000  0.5501980000000 1.0
C      1  0.5394110000000  0.5859400000000  0.5501970000000 1.0
C      1  0.5217180000000  0.4676900000000  0.4466730000000 1.0
C      1  0.4782770000000  0.5323110000000  0.4466750000000 1.0
C      1  0.5208010000000  0.5344000000000  0.5590850000000 1.0
C      1  0.4792040000000  0.4655980000000  0.5590860000000 1.0
C      1  0.5729310000000  0.5173640000000  0.4238620000000 1.0
C      1  0.4270620000000  0.4826380000000  0.4238670000000 1.0
C      1  0.5732060000000  0.4837480000000  0.5766620000000 1.0
C      1  0.4268000000000  0.5162500000000  0.5766690000000 1.0
C      1  0.5615370000000  0.5093990000000  0.5726600000000 1.0
C      1  0.4384690000000  0.4905990000000  0.5726650000000 1.0
C      1  0.5609250000000  0.4919530000000  0.4278390000000 1.0
C      1  0.4390690000000  0.5080490000000  0.4278440000000 1.0
C      1  0.3914630000000  0.4448970000000  0.3761390000000 1.0
C      1  0.6085270000000  0.5551050000000  0.3761310000000 1.0
C      1  0.4013790000000  0.5655670000000  0.6203900000000 1.0
C      1  0.5986320000000  0.4344310000000  0.6203800000000 1.0
C      1  0.5727620000000  0.4690680000000  0.5523630000000 1.0
C      1  0.4272430000000  0.5309310000000  0.5523700000000 1.0
C      1  0.5737750000000  0.5313890000000  0.4484110000000 1.0
C      1  0.4262210000000  0.4686120000000  0.4484170000000 1.0
C      1  0.4482260000000  0.5971760000000  0.4729970000000 1.0
C      1  0.5517720000000  0.4028240000000  0.4729900000000 1.0
C      1  0.4438210000000  0.4016000000000  0.5309570000000 1.0
C      1  0.5561820000000  0.5983990000000  0.5309540000000 1.0
C      1  0.6015090000000  0.5377990000000  0.5752510000000 1.0
C      1  0.3984970000000  0.4621990000000  0.5752590000000 1.0
C      1  0.5985280000000  0.4617960000000  0.4180510000000 1.0
C      1  0.4014650000000  0.5382050000000  0.4180600000000 1.0
C      1  0.4349170000000  0.4539030000000  0.5435350000000 1.0
C      1  0.5650870000000  0.5460960000000  0.5435310000000 1.0
C      1  0.4329830000000  0.5459590000000  0.4548360000000 1.0
C      1  0.5670130000000  0.4540420000000  0.4548300000000 1.0
C      1  0.4066150000000  0.5229750000000  0.4893170000000 1.0
C      1  0.5933850000000  0.4770250000000  0.4893080000000 1.0
C      1  0.4095550000000  0.4745340000000  0.5073550000000 1.0
C      1  0.5904460000000  0.5254660000000  0.5073480000000 1.0
C      1  0.5753590000000  0.4109100000000  0.5669910000000 1.0
C      1  0.4246460000000  0.5890890000000  0.5669990000000 1.0
C      1  0.5914980000000  0.5895410000000  0.4388960000000 1.0
C      1  0.4084970000000  0.4104600000000  0.4389020000000 1.0
C      1  0.4991010000000  0.4051720000000  0.4201500000000 1.0
C      1  0.5008920000000  0.5948300000000  0.4201520000000 1.0
C      1  0.4948660000000  0.6026850000000  0.5647000000000 1.0
C      1  0.5051390000000  0.3973140000000  0.5646980000000 1.0
C      1  0.4646880000000  0.5073980000000  0.4420640000000 1.0
C      1  0.5353070000000  0.4926030000000  0.4420610000000 1.0
C      1  0.4658630000000  0.4912780000000  0.5622970000000 1.0
C      1  0.5341430000000  0.5087210000000  0.5622950000000 1.0
C      1  0.5902880000000  0.3704550000000  0.5072070000000 1.0
C      1  0.4097120000000  0.6295450000000  0.5072180000000 1.0
C      1  0.5890390000000  0.6346290000000  0.4971730000000 1.0
C      1  0.4109600000000  0.3653710000000  0.4971770000000 1.0
C      1  0.5817390000000  0.6096350000000  0.4887360000000 1.0
C      1  0.4182600000000  0.3903650000000  0.4887410000000 1.0
C      1  0.5785240000000  0.3938760000000  0.5151310000000 1.0
C      1  0.4214770000000  0.6061240000000  0.5151400000000 1.0
C      1  0.4213760000000  0.5567820000000  0.6039730000000 1.0
C      1  0.5786330000000  0.4432150000000  0.6039660000000 1.0
C      1  0.4087450000000  0.4458030000000  0.3973330000000 1.0
C      1  0.5912460000000  0.5541990000000  0.3973270000000 1.0
C      1  0.5117050000000  0.5544250000000  0.3961900000000 1.0
C      1  0.4882860000000  0.4455770000000  0.3961900000000 1.0
C      1  0.5349810000000  0.4244970000000  0.5898780000000 1.0
C      1  0.4650270000000  0.5755010000000  0.5898820000000 1.0
C      1  0.5021420000000  0.5817510000000  0.3938100000000 1.0
C      1  0.4978490000000  0.4182510000000  0.3938080000000 1.0
C      1  0.5211160000000  0.3987740000000  0.5888270000000 1.0
C      1  0.4788910000000  0.6012240000000  0.5888310000000 1.0
C      1  0.5066680000000  0.5115720000000  0.3724240000000 1.0
C      1  0.4933210000000  0.4884300000000  0.3724240000000 1.0
C      1  0.5130780000000  0.4977060000000  0.6438190000000 1.0
C      1  0.4869340000000  0.5022910000000  0.6438200000000 1.0
C      1  0.4553520000000  0.5526830000000  0.5187280000000 1.0
C      1  0.5446500000000  0.4473170000000  0.5187230000000 1.0
C      1  0.4533050000000  0.4404280000000  0.4761040000000 1.0
C      1  0.5466930000000  0.5595720000000  0.4761010000000 1.0
C      1  0.4366580000000  0.5748270000000  0.5882620000000 1.0
C      1  0.5633500000000  0.4251710000000  0.5882550000000 1.0
C      1  0.4083460000000  0.4255890000000  0.4169640000000 1.0
C      1  0.5916480000000  0.5744130000000  0.4169580000000 1.0
C      1  0.4023110000000  0.4984510000000  0.4984790000000 1.0
C      1  0.5976890000000  0.5015490000000  0.4984710000000 1.0
END
