TITL C-3623284-6838-1034 -1.29381587450653e-07 125000 -743.399320994993 0 0 116 (Th) n - 1
REM
REM in /home/nfs/bkarasulu/CARBON/AIRSS/Generating-Clusters/LCBOP/Higher-Symm/SD-CG/FIRE-CG
REM
REM
REM
REM
REM
REM ./C.cell (b20cbc046b6831c77cfcea5457e17084)
REM AIRSS Version 0.9.1 bugfix July 2018 build 013d7b7c2542+ Fri, 06 Jul 2018 19:26:36 +0100
REM compiler GCC version 9.2.1 20190827 (Red Hat 9.2.1-1)
REM options -cpp -mtune=generic -march=x86-64 -g -O0 -fpre-include=/usr/include/finclude/math-vector-fortran.h
REM seed -640873111 -1807578396 1455306153 -1741500604 -915338301 1649375707 -1441346046 1606244565 -1353815764 -86489118 -1016421317 1186955365 1012389614 -1625242611 -1903239277 -1182582254 -818113706 1558607238 1475586311 499414154 1888610946 668864676 854487445 793184914 -292375515 -2140163114 -874179735 1454953969 2033774260 -741302638 -1717730837 1314967031 -104948797
REM
CELL 1.54180   50.00000   50.00000   50.00000   90.00000   90.00000   90.00000
LATT -1
SFAC C  
C      1  0.3793720000000  0.5514450000000  0.4759200000000 1.0
C      1  0.4759900000000  0.3794670000000  0.5513050000000 1.0
C      1  0.5513610000000  0.4760720000000  0.3793140000000 1.0
C      1  0.3793690000000  0.4486770000000  0.5238850000000 1.0
C      1  0.6205690000000  0.4486730000000  0.4759420000000 1.0
C      1  0.6205670000000  0.5514500000000  0.5238860000000 1.0
C      1  0.4759940000000  0.6206550000000  0.4485090000000 1.0
C      1  0.5239440000000  0.6206650000000  0.5512840000000 1.0
C      1  0.5239490000000  0.3794570000000  0.4485350000000 1.0
C      1  0.5513500000000  0.5240500000000  0.6205070000000 1.0
C      1  0.4485890000000  0.5240270000000  0.3793050000000 1.0
C      1  0.4485770000000  0.4760950000000  0.6205070000000 1.0
C      1  0.6205690000000  0.5514450000000  0.4759320000000 1.0
C      1  0.5239440000000  0.3794670000000  0.5513070000000 1.0
C      1  0.4485890000000  0.4760720000000  0.3793090000000 1.0
C      1  0.6205670000000  0.4486770000000  0.5238960000000 1.0
C      1  0.3793720000000  0.4486720000000  0.4759300000000 1.0
C      1  0.3793690000000  0.5514500000000  0.5238750000000 1.0
C      1  0.5239490000000  0.6206550000000  0.4485110000000 1.0
C      1  0.4759890000000  0.6206650000000  0.5512820000000 1.0
C      1  0.4759950000000  0.3794570000000  0.4485320000000 1.0
C      1  0.4485770000000  0.5240500000000  0.6205020000000 1.0
C      1  0.5513610000000  0.5240270000000  0.3793100000000 1.0
C      1  0.5513500000000  0.4760960000000  0.6205120000000 1.0
C      1  0.5973720000000  0.5387310000000  0.4709160000000 1.0
C      1  0.4709750000000  0.5974670000000  0.5385700000000 1.0
C      1  0.5386370000000  0.4710780000000  0.5973150000000 1.0
C      1  0.5973700000000  0.4613910000000  0.5289090000000 1.0
C      1  0.4025690000000  0.4613850000000  0.4709150000000 1.0
C      1  0.4025660000000  0.5387370000000  0.5288930000000 1.0
C      1  0.4709780000000  0.4026550000000  0.4612430000000 1.0
C      1  0.5289600000000  0.4026630000000  0.5385920000000 1.0
C      1  0.5289640000000  0.5974590000000  0.4612270000000 1.0
C      1  0.5386470000000  0.5290440000000  0.4025050000000 1.0
C      1  0.4612920000000  0.5290630000000  0.5973050000000 1.0
C      1  0.4613010000000  0.4710590000000  0.4025070000000 1.0
C      1  0.4025690000000  0.5387310000000  0.4709070000000 1.0
C      1  0.5289600000000  0.5974670000000  0.5385730000000 1.0
C      1  0.4612920000000  0.4710780000000  0.5973110000000 1.0
C      1  0.4025660000000  0.4613910000000  0.5289000000000 1.0
C      1  0.5973730000000  0.4613850000000  0.4709240000000 1.0
C      1  0.5973700000000  0.5387370000000  0.5289020000000 1.0
C      1  0.5289640000000  0.4026550000000  0.4612460000000 1.0
C      1  0.4709750000000  0.4026630000000  0.5385890000000 1.0
C      1  0.4709780000000  0.5974590000000  0.4612250000000 1.0
C      1  0.4613010000000  0.5290440000000  0.4025020000000 1.0
C      1  0.5386370000000  0.5290630000000  0.5973090000000 1.0
C      1  0.5386470000000  0.4710590000000  0.4025110000000 1.0
C      1  0.5536740000000  0.5144120000000  0.4735100000000 1.0
C      1  0.4735690000000  0.5537660000000  0.5142550000000 1.0
C      1  0.5143200000000  0.4736670000000  0.5536150000000 1.0
C      1  0.5536720000000  0.4857100000000  0.5263120000000 1.0
C      1  0.4462670000000  0.4857050000000  0.4735070000000 1.0
C      1  0.4462640000000  0.5144170000000  0.5263040000000 1.0
C      1  0.4735700000000  0.4463560000000  0.4855590000000 1.0
C      1  0.5263680000000  0.4463590000000  0.5142680000000 1.0
C      1  0.5263690000000  0.5537630000000  0.4855510000000 1.0
C      1  0.5143250000000  0.5264550000000  0.4462020000000 1.0
C      1  0.4856130000000  0.5264660000000  0.5536090000000 1.0
C      1  0.4856180000000  0.4736560000000  0.4462060000000 1.0
C      1  0.4462670000000  0.5144120000000  0.4735050000000 1.0
C      1  0.5263680000000  0.5537660000000  0.5142580000000 1.0
C      1  0.4856130000000  0.4736670000000  0.5536140000000 1.0
C      1  0.4462640000000  0.4857100000000  0.5263070000000 1.0
C      1  0.5536740000000  0.4857050000000  0.4735130000000 1.0
C      1  0.5536720000000  0.5144170000000  0.5263090000000 1.0
C      1  0.5263700000000  0.4463560000000  0.4855610000000 1.0
C      1  0.4735690000000  0.4463590000000  0.5142660000000 1.0
C      1  0.4735700000000  0.5537630000000  0.4855480000000 1.0
C      1  0.4856180000000  0.5264550000000  0.4462010000000 1.0
C      1  0.5143200000000  0.5264660000000  0.5536100000000 1.0
C      1  0.5143250000000  0.4736560000000  0.4462080000000 1.0
C      1  0.5143980000000  0.4236570000000  0.5269810000000 1.0
C      1  0.5270370000000  0.5144840000000  0.4235010000000 1.0
C      1  0.4235610000000  0.5271270000000  0.5143320000000 1.0
C      1  0.5144010000000  0.5764650000000  0.4728370000000 1.0
C      1  0.4855380000000  0.5764710000000  0.5269650000000 1.0
C      1  0.4855400000000  0.4236510000000  0.4728500000000 1.0
C      1  0.5270300000000  0.4856380000000  0.5763180000000 1.0
C      1  0.4729080000000  0.4856230000000  0.4235010000000 1.0
C      1  0.4729010000000  0.5144990000000  0.5763130000000 1.0
C      1  0.4235630000000  0.4729950000000  0.4854770000000 1.0
C      1  0.5763760000000  0.4729980000000  0.5143450000000 1.0
C      1  0.5763770000000  0.5271240000000  0.4854790000000 1.0
C      1  0.4855380000000  0.4236570000000  0.5269800000000 1.0
C      1  0.4729080000000  0.5144840000000  0.4234980000000 1.0
C      1  0.5763760000000  0.5271270000000  0.5143390000000 1.0
C      1  0.4855400000000  0.5764650000000  0.4728360000000 1.0
C      1  0.5143980000000  0.5764710000000  0.5269660000000 1.0
C      1  0.5144010000000  0.4236510000000  0.4728520000000 1.0
C      1  0.4729010000000  0.4856380000000  0.5763150000000 1.0
C      1  0.5270370000000  0.4856230000000  0.4235040000000 1.0
C      1  0.5270300000000  0.5144990000000  0.5763150000000 1.0
C      1  0.5763770000000  0.4729950000000  0.4854840000000 1.0
C      1  0.4235610000000  0.4729980000000  0.5143370000000 1.0
C      1  0.4235630000000  0.5271240000000  0.4854720000000 1.0
C      1  0.4999670000000  0.3685190000000  0.5573010000000 1.0
C      1  0.4999720000000  0.6316030000000  0.4425150000000 1.0
C      1  0.5573560000000  0.5000480000000  0.3683630000000 1.0
C      1  0.3684210000000  0.5574410000000  0.4998960000000 1.0
C      1  0.4999660000000  0.6316140000000  0.5572760000000 1.0
C      1  0.4999720000000  0.3685080000000  0.4425410000000 1.0
C      1  0.5573430000000  0.5000740000000  0.6314590000000 1.0
C      1  0.4425950000000  0.5000480000000  0.3683580000000 1.0
C      1  0.4425830000000  0.5000740000000  0.6314530000000 1.0
C      1  0.3684210000000  0.4426810000000  0.4999070000000 1.0
C      1  0.6315170000000  0.4426810000000  0.4999200000000 1.0
C      1  0.6315170000000  0.5574410000000  0.4999090000000 1.0
C      1  0.5310090000000  0.4690200000000  0.4688750000000 1.0
C      1  0.4689300000000  0.5311020000000  0.5309420000000 1.0
C      1  0.4689330000000  0.5310960000000  0.4688660000000 1.0
C      1  0.4689300000000  0.4690260000000  0.5309480000000 1.0
C      1  0.5310060000000  0.5311020000000  0.5309450000000 1.0
C      1  0.5310090000000  0.5310960000000  0.4688690000000 1.0
C      1  0.5310060000000  0.4690260000000  0.5309510000000 1.0
C      1  0.4689330000000  0.4690200000000  0.4688720000000 1.0
END
