TITL C-3623285-6872-1972 -6.98053775572588e-08 125000 -25.0790098697788 0 0 5 (D(inf)h) n - 1
REM
REM in /home/nfs/bkarasulu/CARBON/AIRSS/Generating-Clusters/LCBOP/Higher-Symm/SD-CG/FIRE-CG
REM
REM
REM
REM
REM
REM ./C.cell (b20cbc046b6831c77cfcea5457e17084)
REM AIRSS Version 0.9.1 bugfix July 2018 build 013d7b7c2542+ Fri, 06 Jul 2018 19:26:36 +0100
REM compiler GCC version 9.2.1 20190827 (Red Hat 9.2.1-1)
REM options -cpp -mtune=generic -march=x86-64 -g -O0 -fpre-include=/usr/include/finclude/math-vector-fortran.h
REM seed 1718152747 1292144836 1084241113 1446710377 1768423510 636128132 -1819986351 1361144045 210911548 -167647062 -514429012 352811323 1178448666 -1030375132 1954420155 -2043220315 -1062244452 -2080614796 1111396668 223920711 1503713618 -1315925148 1168482776 -54309871 -740648303 1987656930 1449613299 1675887256 1091909210 1153727778 1440902929 1234372322 710427138
REM
CELL 1.54180   50.00000   50.00000   50.00000   90.00000   90.00000   90.00000
LATT -1
SFAC C  
C      1  0.5265070000000  0.4994430000000  0.4998880000000 1.0
C      1  0.5000000000000  0.4994430000000  0.4998880000000 1.0
C      1  0.4474230000000  0.4994430000000  0.4998880000000 1.0
C      1  0.4734930000000  0.4994430000000  0.4998880000000 1.0
C      1  0.5525770000000  0.4994430000000  0.4998880000000 1.0
END
