TITL C-3623286-7563-931 604.816204292514 125000 -903.39776135234 0 0 149 (C1) n - 1
REM
REM in /home/nfs/bkarasulu/CARBON/AIRSS/Generating-Clusters/LCBOP/Higher-Symm/SD-CG/FIRE-CG
REM
REM
REM
REM
REM
REM ./C.cell (b20cbc046b6831c77cfcea5457e17084)
REM AIRSS Version 0.9.1 bugfix July 2018 build 013d7b7c2542+ Fri, 06 Jul 2018 19:26:36 +0100
REM compiler GCC version 9.2.1 20190827 (Red Hat 9.2.1-1)
REM options -cpp -mtune=generic -march=x86-64 -g -O0 -fpre-include=/usr/include/finclude/math-vector-fortran.h
REM seed -2054436942 1020354411 274719970 -713155455 239904197 -348855778 -1326990815 1454338013 1298733189 1213954674 1718590341 -626484329 1664639085 748076733 735792572 1477992636 966484786 2139203724 1159243567 -113980355 -1497732487 -1022766761 180227449 -790570625 -1339257812 790775340 -1274360802 377303102 -1123818286 350515561 927337885 1748841556 -1414900660
REM
CELL 1.54180   50.00000   50.00000   50.00000   90.00000   90.00000   90.00000
LATT -1
SFAC C  
C      1  0.4687650000000  0.4897800000000  0.5487190000000 1.0
C      1  0.5376090000000  0.4810080000000  0.4660280000000 1.0
C      1  0.4633040000000  0.5221630000000  0.4614680000000 1.0
C      1  0.5263770000000  0.5070370000000  0.5402600000000 1.0
C      1  0.4284930000000  0.4620460000000  0.4622920000000 1.0
C      1  0.5806700000000  0.4567180000000  0.5419370000000 1.0
C      1  0.4210410000000  0.5459010000000  0.5386440000000 1.0
C      1  0.5715240000000  0.5395880000000  0.4600410000000 1.0
C      1  0.4359630000000  0.5957530000000  0.4561880000000 1.0
C      1  0.5615650000000  0.5927010000000  0.5388200000000 1.0
C      1  0.4399350000000  0.4036360000000  0.5389320000000 1.0
C      1  0.5639040000000  0.4066550000000  0.4586440000000 1.0
C      1  0.4765570000000  0.5600430000000  0.5309990000000 1.0
C      1  0.5203140000000  0.5551060000000  0.4693410000000 1.0
C      1  0.4792210000000  0.4473230000000  0.4715610000000 1.0
C      1  0.5235520000000  0.4393150000000  0.5324100000000 1.0
C      1  0.3963720000000  0.4931910000000  0.4355820000000 1.0
C      1  0.6040150000000  0.4992090000000  0.5646790000000 1.0
C      1  0.3939790000000  0.5052430000000  0.5643590000000 1.0
C      1  0.6038480000000  0.5071290000000  0.4355620000000 1.0
C      1  0.5172810000000  0.4719940000000  0.5846620000000 1.0
C      1  0.4862110000000  0.4727990000000  0.4132040000000 1.0
C      1  0.5128030000000  0.5285600000000  0.4121640000000 1.0
C      1  0.4808220000000  0.5272100000000  0.5868780000000 1.0
C      1  0.4518040000000  0.4383610000000  0.4235830000000 1.0
C      1  0.5522360000000  0.4352790000000  0.5800190000000 1.0
C      1  0.4484250000000  0.5651540000000  0.5788700000000 1.0
C      1  0.5476740000000  0.5630710000000  0.4215580000000 1.0
C      1  0.5342730000000  0.5860450000000  0.5413740000000 1.0
C      1  0.4639720000000  0.5924220000000  0.4562620000000 1.0
C      1  0.5359960000000  0.4107320000000  0.4586350000000 1.0
C      1  0.4667290000000  0.4118190000000  0.5419300000000 1.0
C      1  0.4908300000000  0.5569490000000  0.4625230000000 1.0
C      1  0.5054810000000  0.5519160000000  0.5354740000000 1.0
C      1  0.4940030000000  0.4474660000000  0.5386320000000 1.0
C      1  0.5090070000000  0.4463550000000  0.4662290000000 1.0
C      1  0.5740190000000  0.4368490000000  0.5625130000000 1.0
C      1  0.4320200000000  0.4413130000000  0.4426280000000 1.0
C      1  0.5677670000000  0.5602240000000  0.4402950000000 1.0
C      1  0.4277130000000  0.5648080000000  0.5600770000000 1.0
C      1  0.4138670000000  0.4452440000000  0.5372620000000 1.0
C      1  0.5916230000000  0.4485220000000  0.4576330000000 1.0
C      1  0.4084860000000  0.5534630000000  0.4556890000000 1.0
C      1  0.5868290000000  0.5504330000000  0.5355630000000 1.0
C      1  0.4671610000000  0.5216520000000  0.4889750000000 1.0
C      1  0.5231730000000  0.5050740000000  0.5092410000000 1.0
C      1  0.4694790000000  0.4887650000000  0.5185170000000 1.0
C      1  0.5371970000000  0.4828710000000  0.4941900000000 1.0
C      1  0.4249950000000  0.4717840000000  0.4901620000000 1.0
C      1  0.5830280000000  0.4637350000000  0.5131470000000 1.0
C      1  0.4188500000000  0.5389610000000  0.5097710000000 1.0
C      1  0.5742770000000  0.5300860000000  0.4881110000000 1.0
C      1  0.4405430000000  0.4504160000000  0.5768690000000 1.0
C      1  0.5622180000000  0.4559540000000  0.4215460000000 1.0
C      1  0.4360460000000  0.5450990000000  0.4183130000000 1.0
C      1  0.5579560000000  0.5453350000000  0.5722490000000 1.0
C      1  0.5830740000000  0.5771890000000  0.5334830000000 1.0
C      1  0.4145170000000  0.5796330000000  0.4588580000000 1.0
C      1  0.5856900000000  0.4223590000000  0.4611400000000 1.0
C      1  0.4180330000000  0.4187120000000  0.5339970000000 1.0
C      1  0.4741000000000  0.5750790000000  0.4776400000000 1.0
C      1  0.5244030000000  0.5673340000000  0.5211510000000 1.0
C      1  0.4752960000000  0.4324310000000  0.5229130000000 1.0
C      1  0.5261600000000  0.4280210000000  0.4800770000000 1.0
C      1  0.5705660000000  0.5324250000000  0.5499680000000 1.0
C      1  0.4228500000000  0.5338620000000  0.4413230000000 1.0
C      1  0.5765920000000  0.4677270000000  0.4434510000000 1.0
C      1  0.4286440000000  0.4630000000000  0.5531220000000 1.0
C      1  0.3923710000000  0.4954150000000  0.4628080000000 1.0
C      1  0.6085670000000  0.4977400000000  0.5375050000000 1.0
C      1  0.3903370000000  0.5075350000000  0.5366870000000 1.0
C      1  0.6078180000000  0.5056730000000  0.4628670000000 1.0
C      1  0.5122550000000  0.6234560000000  0.4909930000000 1.0
C      1  0.4956930000000  0.6251140000000  0.5119090000000 1.0
C      1  0.5050250000000  0.3746960000000  0.5096510000000 1.0
C      1  0.4881370000000  0.3773230000000  0.4891120000000 1.0
C      1  0.4998970000000  0.4243620000000  0.4200800000000 1.0
C      1  0.5027790000000  0.4229240000000  0.5819100000000 1.0
C      1  0.4983070000000  0.5749510000000  0.5818040000000 1.0
C      1  0.4999200000000  0.5778900000000  0.4178250000000 1.0
C      1  0.4626780000000  0.5115250000000  0.3992450000000 1.0
C      1  0.5356730000000  0.5130320000000  0.5982590000000 1.0
C      1  0.4633070000000  0.4851000000000  0.6024000000000 1.0
C      1  0.5366640000000  0.4892990000000  0.4010160000000 1.0
C      1  0.4785680000000  0.5166850000000  0.5600170000000 1.0
C      1  0.5082210000000  0.5135050000000  0.4380700000000 1.0
C      1  0.4907610000000  0.4885040000000  0.4386770000000 1.0
C      1  0.5191850000000  0.4821900000000  0.5570450000000 1.0
C      1  0.5133690000000  0.5061010000000  0.3938620000000 1.0
C      1  0.4858520000000  0.5040660000000  0.6036780000000 1.0
C      1  0.5135270000000  0.4945230000000  0.6020100000000 1.0
C      1  0.4861780000000  0.4944570000000  0.3940020000000 1.0
C      1  0.4756200000000  0.5404250000000  0.4435800000000 1.0
C      1  0.5171210000000  0.5322740000000  0.5532870000000 1.0
C      1  0.4805750000000  0.4644190000000  0.5592060000000 1.0
C      1  0.5238230000000  0.4634580000000  0.4482210000000 1.0
C      1  0.4021850000000  0.5135330000000  0.5100800000000 1.0
C      1  0.5950640000000  0.5088420000000  0.4891770000000 1.0
C      1  0.4045660000000  0.4932300000000  0.4894550000000 1.0
C      1  0.5979660000000  0.4897460000000  0.5112210000000 1.0
C      1  0.5291400000000  0.5840970000000  0.4627540000000 1.0
C      1  0.4737340000000  0.5888310000000  0.5404280000000 1.0
C      1  0.5267730000000  0.4101000000000  0.5393380000000 1.0
C      1  0.4713070000000  0.4184080000000  0.4634990000000 1.0
C      1  0.4725960000000  0.4752970000000  0.4568320000000 1.0
C      1  0.5368910000000  0.4630860000000  0.5453300000000 1.0
C      1  0.4640050000000  0.5352570000000  0.5437090000000 1.0
C      1  0.5269300000000  0.5268360000000  0.4552780000000 1.0
C      1  0.4188240000000  0.4996620000000  0.5791670000000 1.0
C      1  0.5875000000000  0.5062700000000  0.4133860000000 1.0
C      1  0.4125450000000  0.4935630000000  0.4132790000000 1.0
C      1  0.5875240000000  0.5002530000000  0.5866820000000 1.0
C      1  0.4640040000000  0.5640210000000  0.5024650000000 1.0
C      1  0.5320480000000  0.5535020000000  0.4974920000000 1.0
C      1  0.4669740000000  0.4470710000000  0.4997480000000 1.0
C      1  0.5371300000000  0.4387200000000  0.5044180000000 1.0
C      1  0.5479060000000  0.5308510000000  0.5008050000000 1.0
C      1  0.4468540000000  0.5405180000000  0.4990680000000 1.0
C      1  0.5554920000000  0.4613510000000  0.5023400000000 1.0
C      1  0.4507040000000  0.4705880000000  0.5049690000000 1.0
C      1  0.4451080000000  0.4833240000000  0.4526340000000 1.0
C      1  0.5619410000000  0.4774910000000  0.5485920000000 1.0
C      1  0.4377630000000  0.5237260000000  0.5457410000000 1.0
C      1  0.5543220000000  0.5185880000000  0.4507030000000 1.0
C      1  0.5637370000000  0.5010310000000  0.4005050000000 1.0
C      1  0.4358400000000  0.4958970000000  0.6023610000000 1.0
C      1  0.5635250000000  0.5037490000000  0.5996430000000 1.0
C      1  0.4359550000000  0.4989620000000  0.3998620000000 1.0
C      1  0.5182150000000  0.5862310000000  0.5661320000000 1.0
C      1  0.4808380000000  0.5916840000000  0.4322450000000 1.0
C      1  0.5191690000000  0.4112940000000  0.4347420000000 1.0
C      1  0.4830420000000  0.4110610000000  0.5664490000000 1.0
C      1  0.5611990000000  0.4907820000000  0.4537000000000 1.0
C      1  0.4372700000000  0.4938540000000  0.5547210000000 1.0
C      1  0.5580630000000  0.5064140000000  0.5442320000000 1.0
C      1  0.4389170000000  0.5114420000000  0.4520250000000 1.0
C      1  0.5241550000000  0.4427290000000  0.5863660000000 1.0
C      1  0.4792190000000  0.4445240000000  0.4158420000000 1.0
C      1  0.5201460000000  0.5570130000000  0.4140530000000 1.0
C      1  0.4757610000000  0.5566490000000  0.5869200000000 1.0
C      1  0.5350330000000  0.4658800000000  0.4200440000000 1.0
C      1  0.4658140000000  0.4614360000000  0.5849060000000 1.0
C      1  0.5324320000000  0.5346660000000  0.5787690000000 1.0
C      1  0.4636370000000  0.5365110000000  0.4161050000000 1.0
C      1  0.4751940000000  0.3933280000000  0.4720660000000 1.0
C      1  0.5198010000000  0.3865370000000  0.5285330000000 1.0
C      1  0.4810340000000  0.6127490000000  0.5305670000000 1.0
C      1  0.5251120000000  0.6086110000000  0.4728450000000 1.0
C      1  0.4868090000000  0.5061510000000  0.5038260000000 1.0
END
