TITL C-3623282-6910-1306 -1.17256894526367e-05 125000 -1177.99108882893 0 0 195 (D5) n - 1
REM
REM in /home/nfs/bkarasulu/CARBON/AIRSS/Generating-Clusters/LCBOP/Higher-Symm/SD-CG/FIRE-CG
REM
REM
REM
REM
REM
REM ./C.cell (b20cbc046b6831c77cfcea5457e17084)
REM AIRSS Version 0.9.1 bugfix July 2018 build 013d7b7c2542+ Fri, 06 Jul 2018 19:26:36 +0100
REM compiler GCC version 9.2.1 20190827 (Red Hat 9.2.1-1)
REM options -cpp -mtune=generic -march=x86-64 -g -O0 -fpre-include=/usr/include/finclude/math-vector-fortran.h
REM seed -221436560 -1690181372 1308749133 -276826664 -1122178831 1640990643 1983861315 -1213395502 -1399644880 279724664 1084356243 847264913 -1801163030 1330422614 259508803 -432793853 -892531129 -536430463 -1949836158 -551784548 -629456573 -76457087 336471910 -1395657372 -2068824149 -1385964436 -1999229887 2113980863 -1413816149 215134293 -1737435660 46922698 1225046309
REM
CELL 1.54180   50.00000   50.00000   50.00000   90.00000   90.00000   90.00000
LATT -1
SFAC C  
C      1  0.4476610000000  0.4758930000000  0.3968160000000 1.0
C      1  0.3856920000000  0.4758930000000  0.5178910000000 1.0
C      1  0.4816930000000  0.4758930000000  0.6142420000000 1.0
C      1  0.6029930000000  0.4758930000000  0.5527140000000 1.0
C      1  0.5819610000000  0.4758930000000  0.4183370000000 1.0
C      1  0.4476620000000  0.5234740000000  0.6031850000000 1.0
C      1  0.3856920000000  0.5234740000000  0.4821090000000 1.0
C      1  0.4816920000000  0.5234740000000  0.3857580000000 1.0
C      1  0.6029930000000  0.5234740000000  0.4472860000000 1.0
C      1  0.5819610000000  0.5234740000000  0.5816630000000 1.0
C      1  0.4585270000000  0.5896400000000  0.4482340000000 1.0
C      1  0.4379520000000  0.5896400000000  0.5234470000000 1.0
C      1  0.5031250000000  0.5896400000000  0.5662570000000 1.0
C      1  0.5639800000000  0.5896400000000  0.5175020000000 1.0
C      1  0.5364160000000  0.5896400000000  0.4445600000000 1.0
C      1  0.4585270000000  0.4097270000000  0.5517660000000 1.0
C      1  0.4379520000000  0.4097270000000  0.4765530000000 1.0
C      1  0.5031250000000  0.4097270000000  0.4337430000000 1.0
C      1  0.5639800000000  0.4097270000000  0.4824980000000 1.0
C      1  0.5364170000000  0.4097270000000  0.5554400000000 1.0
C      1  0.5775730000000  0.5669230000000  0.4631810000000 1.0
C      1  0.4889550000000  0.5669230000000  0.4148460000000 1.0
C      1  0.4156010000000  0.5669230000000  0.4841910000000 1.0
C      1  0.4588840000000  0.5669230000000  0.5753830000000 1.0
C      1  0.5589880000000  0.5669230000000  0.5623990000000 1.0
C      1  0.5775730000000  0.4324430000000  0.5368180000000 1.0
C      1  0.4889550000000  0.4324430000000  0.5851540000000 1.0
C      1  0.4156010000000  0.4324430000000  0.5158100000000 1.0
C      1  0.4588830000000  0.4324430000000  0.4246170000000 1.0
C      1  0.5589880000000  0.4324430000000  0.4376010000000 1.0
C      1  0.5267010000000  0.4783230000000  0.4550840000000 1.0
C      1  0.4655330000000  0.4783230000000  0.4607260000000 1.0
C      1  0.4519980000000  0.4783240000000  0.5206440000000 1.0
C      1  0.5048000000000  0.4783240000000  0.5520320000000 1.0
C      1  0.5509690000000  0.4783240000000  0.5115140000000 1.0
C      1  0.5267010000000  0.5210430000000  0.5449160000000 1.0
C      1  0.4655330000000  0.5210430000000  0.5392740000000 1.0
C      1  0.4519980000000  0.5210430000000  0.4793560000000 1.0
C      1  0.5048000000000  0.5210430000000  0.4479680000000 1.0
C      1  0.5509690000000  0.5210430000000  0.4884860000000 1.0
C      1  0.4846050000000  0.4107920000000  0.5647470000000 1.0
C      1  0.5568210000000  0.4107920000000  0.5346500000000 1.0
C      1  0.5505120000000  0.4107920000000  0.4566680000000 1.0
C      1  0.4743980000000  0.4107920000000  0.4385690000000 1.0
C      1  0.4336650000000  0.4107920000000  0.5053660000000 1.0
C      1  0.4846040000000  0.5885750000000  0.4352530000000 1.0
C      1  0.5568210000000  0.5885750000000  0.4653500000000 1.0
C      1  0.5505130000000  0.5885750000000  0.5433320000000 1.0
C      1  0.4743980000000  0.5885750000000  0.5614310000000 1.0
C      1  0.4336650000000  0.5885750000000  0.4946340000000 1.0
C      1  0.5052290000000  0.5066550000000  0.3875600000000 1.0
C      1  0.3946790000000  0.5066550000000  0.4602810000000 1.0
C      1  0.4296790000000  0.5066550000000  0.5878920000000 1.0
C      1  0.5618600000000  0.5066550000000  0.5940400000000 1.0
C      1  0.6085530000000  0.5066550000000  0.4702270000000 1.0
C      1  0.5052300000000  0.4927110000000  0.6124400000000 1.0
C      1  0.3946790000000  0.4927110000000  0.5397200000000 1.0
C      1  0.4296790000000  0.4927110000000  0.4121080000000 1.0
C      1  0.5618600000000  0.4927110000000  0.4059600000000 1.0
C      1  0.6085530000000  0.4927110000000  0.5297720000000 1.0
C      1  0.5224810000000  0.4804650000000  0.5068610000000 1.0
C      1  0.5134720000000  0.4804650000000  0.4807390000000 1.0
C      1  0.4858450000000  0.4804650000000  0.4812350000000 1.0
C      1  0.4777800000000  0.4804650000000  0.5076630000000 1.0
C      1  0.5004220000000  0.4804650000000  0.5235010000000 1.0
C      1  0.5224810000000  0.5189020000000  0.4931390000000 1.0
C      1  0.5134720000000  0.5189020000000  0.5192600000000 1.0
C      1  0.4858450000000  0.5189020000000  0.5187650000000 1.0
C      1  0.4777800000000  0.5189020000000  0.4923370000000 1.0
C      1  0.5004220000000  0.5189020000000  0.4764990000000 1.0
C      1  0.5170750000000  0.4505770000000  0.4493610000000 1.0
C      1  0.4571160000000  0.4505770000000  0.4681130000000 1.0
C      1  0.4564220000000  0.4505770000000  0.5309320000000 1.0
C      1  0.5159510000000  0.4505770000000  0.5510040000000 1.0
C      1  0.5534370000000  0.4505770000000  0.5005910000000 1.0
C      1  0.5170750000000  0.5487900000000  0.5506390000000 1.0
C      1  0.4571160000000  0.5487890000000  0.5318870000000 1.0
C      1  0.4564210000000  0.5487890000000  0.4690680000000 1.0
C      1  0.5159510000000  0.5487890000000  0.4489960000000 1.0
C      1  0.5534370000000  0.5487890000000  0.4994090000000 1.0
C      1  0.5112440000000  0.6128750000000  0.5225630000000 1.0
C      1  0.5249330000000  0.6128750000000  0.4962790000000 1.0
C      1  0.5041660000000  0.6128750000000  0.4751370000000 1.0
C      1  0.4776420000000  0.6128750000000  0.4883550000000 1.0
C      1  0.4820160000000  0.6128750000000  0.5176660000000 1.0
C      1  0.5112440000000  0.3864920000000  0.4774370000000 1.0
C      1  0.5249330000000  0.3864920000000  0.5037210000000 1.0
C      1  0.5041660000000  0.3864920000000  0.5248630000000 1.0
C      1  0.4776420000000  0.3864920000000  0.5116450000000 1.0
C      1  0.4820160000000  0.3864920000000  0.4823340000000 1.0
C      1  0.4289150000000  0.4839660000000  0.5020530000000 1.0
C      1  0.4799860000000  0.4839660000000  0.5682400000000 1.0
C      1  0.5587160000000  0.4839660000000  0.5401220000000 1.0
C      1  0.5563020000000  0.4839660000000  0.4565560000000 1.0
C      1  0.4760810000000  0.4839660000000  0.4330290000000 1.0
C      1  0.4289150000000  0.5154000000000  0.4979470000000 1.0
C      1  0.4799860000000  0.5154000000000  0.4317600000000 1.0
C      1  0.5587160000000  0.5154000000000  0.4598780000000 1.0
C      1  0.5563020000000  0.5154000000000  0.5434440000000 1.0
C      1  0.4760810000000  0.5154000000000  0.5669710000000 1.0
C      1  0.4630480000000  0.3985930000000  0.4640380000000 1.0
C      1  0.4543800000000  0.3985930000000  0.5240300000000 1.0
C      1  0.5087570000000  0.3985930000000  0.5508140000000 1.0
C      1  0.5510320000000  0.3985930000000  0.5073740000000 1.0
C      1  0.5227830000000  0.3985930000000  0.4537440000000 1.0
C      1  0.4630480000000  0.6007740000000  0.5359620000000 1.0
C      1  0.4543790000000  0.6007740000000  0.4759700000000 1.0
C      1  0.5087570000000  0.6007740000000  0.4491860000000 1.0
C      1  0.5510320000000  0.6007740000000  0.4926260000000 1.0
C      1  0.5227830000000  0.6007740000000  0.5462560000000 1.0
C      1  0.5137940000000  0.5632180000000  0.5779130000000 1.0
C      1  0.5783620000000  0.5632180000000  0.5109580000000 1.0
C      1  0.5346360000000  0.5632180000000  0.4288600000000 1.0
C      1  0.4430450000000  0.5632180000000  0.4450750000000 1.0
C      1  0.4301630000000  0.5632180000000  0.5371950000000 1.0
C      1  0.5137940000000  0.4361480000000  0.4220870000000 1.0
C      1  0.5783620000000  0.4361480000000  0.4890420000000 1.0
C      1  0.5346370000000  0.4361480000000  0.5711400000000 1.0
C      1  0.4430450000000  0.4361480000000  0.5549250000000 1.0
C      1  0.4301630000000  0.4361480000000  0.4628050000000 1.0
C      1  0.5950820000000  0.5676970000000  0.4860830000000 1.0
C      1  0.5161460000000  0.5676970000000  0.4052710000000 1.0
C      1  0.4148970000000  0.5676970000000  0.4553720000000 1.0
C      1  0.4312580000000  0.5676970000000  0.5671470000000 1.0
C      1  0.5426180000000  0.5676970000000  0.5861270000000 1.0
C      1  0.5950820000000  0.4316700000000  0.5139170000000 1.0
C      1  0.5161460000000  0.4316700000000  0.5947290000000 1.0
C      1  0.4148970000000  0.4316700000000  0.5446290000000 1.0
C      1  0.4312570000000  0.4316700000000  0.4328530000000 1.0
C      1  0.5426180000000  0.4316700000000  0.4138720000000 1.0
C      1  0.5366880000000  0.5202040000000  0.5937410000000 1.0
C      1  0.6004900000000  0.5202040000000  0.4940750000000 1.0
C      1  0.5254180000000  0.5202040000000  0.4025980000000 1.0
C      1  0.4152200000000  0.5202040000000  0.4457270000000 1.0
C      1  0.4221850000000  0.5202040000000  0.5638600000000 1.0
C      1  0.5366880000000  0.4791620000000  0.4062590000000 1.0
C      1  0.6004900000000  0.4791620000000  0.5059250000000 1.0
C      1  0.5254180000000  0.4791620000000  0.5974020000000 1.0
C      1  0.4152200000000  0.4791620000000  0.5542730000000 1.0
C      1  0.4221840000000  0.4791620000000  0.4361410000000 1.0
C      1  0.5535960000000  0.4774990000000  0.5947810000000 1.0
C      1  0.6067040000000  0.4774990000000  0.4783160000000 1.0
C      1  0.5123500000000  0.4774990000000  0.3918180000000 1.0
C      1  0.4009290000000  0.4774990000000  0.4548240000000 1.0
C      1  0.4264200000000  0.4774990000000  0.5802620000000 1.0
C      1  0.5535960000000  0.5218680000000  0.4052190000000 1.0
C      1  0.6067040000000  0.5218680000000  0.5216840000000 1.0
C      1  0.5123510000000  0.5218680000000  0.6081820000000 1.0
C      1  0.4009290000000  0.5218680000000  0.5451760000000 1.0
C      1  0.4264200000000  0.5218680000000  0.4197380000000 1.0
C      1  0.5077430000000  0.4382620000000  0.4753550000000 1.0
C      1  0.4789540000000  0.4382620000000  0.4850200000000 1.0
C      1  0.4792500000000  0.4382620000000  0.5153870000000 1.0
C      1  0.5082220000000  0.4382620000000  0.5244900000000 1.0
C      1  0.5258320000000  0.4382620000000  0.4997490000000 1.0
C      1  0.5077430000000  0.5611050000000  0.5246450000000 1.0
C      1  0.4789540000000  0.5611050000000  0.5149800000000 1.0
C      1  0.4792500000000  0.5611050000000  0.4846130000000 1.0
C      1  0.5082210000000  0.5611050000000  0.4755100000000 1.0
C      1  0.5258320000000  0.5611050000000  0.5002510000000 1.0
C      1  0.5761380000000  0.4607300000000  0.5529050000000 1.0
C      1  0.5738440000000  0.4607300000000  0.4439370000000 1.0
C      1  0.4695000000000  0.4607300000000  0.4124460000000 1.0
C      1  0.4073060000000  0.4607300000000  0.5019520000000 1.0
C      1  0.4732120000000  0.4607300000000  0.5887610000000 1.0
C      1  0.5761380000000  0.5386370000000  0.4470950000000 1.0
C      1  0.5738440000000  0.5386370000000  0.5560630000000 1.0
C      1  0.4695000000000  0.5386370000000  0.5875540000000 1.0
C      1  0.4073060000000  0.5386370000000  0.4980480000000 1.0
C      1  0.4732120000000  0.5386370000000  0.4112390000000 1.0
C      1  0.4445840000000  0.5447060000000  0.4196630000000 1.0
C      1  0.4064700000000  0.5447060000000  0.5278780000000 1.0
C      1  0.4976110000000  0.5447060000000  0.5975670000000 1.0
C      1  0.5920530000000  0.5447060000000  0.5324220000000 1.0
C      1  0.5592810000000  0.5447060000000  0.4224710000000 1.0
C      1  0.4445850000000  0.4546600000000  0.5803370000000 1.0
C      1  0.4064700000000  0.4546600000000  0.4721220000000 1.0
C      1  0.4976110000000  0.4546600000000  0.4024330000000 1.0
C      1  0.5920530000000  0.4546600000000  0.4675780000000 1.0
C      1  0.5592810000000  0.4546600000000  0.5775290000000 1.0
C      1  0.3934910000000  0.4249810000000  0.5599900000000 1.0
C      1  0.5241400000000  0.4249810000000  0.6198340000000 1.0
C      1  0.6214290000000  0.4249810000000  0.5140720000000 1.0
C      1  0.5509070000000  0.4249800000000  0.3888630000000 1.0
C      1  0.4100330000000  0.4249800000000  0.4172410000000 1.0
C      1  0.3934900000000  0.5743860000000  0.4400110000000 1.0
C      1  0.5241400000000  0.5743860000000  0.3801660000000 1.0
C      1  0.6214290000000  0.5743860000000  0.4859280000000 1.0
C      1  0.5509070000000  0.5743860000000  0.6111370000000 1.0
C      1  0.4100330000000  0.5743860000000  0.5827590000000 1.0
C      1  0.5210530000000  0.4996830000000  0.4352040000000 1.0
C      1  0.5210540000000  0.4996830000000  0.5647960000000 1.0
C      1  0.5681300000000  0.4996830000000  0.5000000000000 1.0
C      1  0.4448810000000  0.4996830000000  0.5400460000000 1.0
C      1  0.4448810000000  0.4996830000000  0.4599540000000 1.0
END
