TITL C-3623286-7563-482 -0.000751683257235075 125000 -719.525513094204 0 0 121 (C1) n - 1
REM
REM in /home/nfs/bkarasulu/CARBON/AIRSS/Generating-Clusters/LCBOP/Higher-Symm/SD-CG/FIRE-CG
REM
REM
REM
REM
REM
REM ./C.cell (b20cbc046b6831c77cfcea5457e17084)
REM AIRSS Version 0.9.1 bugfix July 2018 build 013d7b7c2542+ Fri, 06 Jul 2018 19:26:36 +0100
REM compiler GCC version 9.2.1 20190827 (Red Hat 9.2.1-1)
REM options -cpp -mtune=generic -march=x86-64 -g -O0 -fpre-include=/usr/include/finclude/math-vector-fortran.h
REM seed 1139887280 -1425166469 1797178607 1876454932 -513097668 -1375346 -126878643 -1558089140 482282422 424669276 -1536396021 1383953441 234187852 -803470068 -82686071 2113519749 -1507888667 -676909785 -278565082 -1352752718 330394569 2114593832 -982362157 1338668915 512182952 -794298092 2094746536 228663610 -549487023 -1271524586 1949126869 -848068477 -2005808178
REM
CELL 1.54180   50.00000   50.00000   50.00000   90.00000   90.00000   90.00000
LATT -1
SFAC C  
C      1  0.5719030000000  0.4971180000000  0.4427680000000 1.0
C      1  0.4296440000000  0.5009270000000  0.4420710000000 1.0
C      1  0.4705940000000  0.5120790000000  0.4091260000000 1.0
C      1  0.5296940000000  0.4864070000000  0.4109030000000 1.0
C      1  0.5257970000000  0.5706700000000  0.5242250000000 1.0
C      1  0.4653430000000  0.4285260000000  0.5303470000000 1.0
C      1  0.4690690000000  0.4364360000000  0.4542090000000 1.0
C      1  0.5333260000000  0.5688980000000  0.4591180000000 1.0
C      1  0.3868380000000  0.4964850000000  0.5420470000000 1.0
C      1  0.6109590000000  0.5037780000000  0.5480090000000 1.0
C      1  0.5134350000000  0.4540660000000  0.4713120000000 1.0
C      1  0.4872010000000  0.5522650000000  0.4734130000000 1.0
C      1  0.5562610000000  0.4317520000000  0.4597650000000 1.0
C      1  0.4421720000000  0.5681900000000  0.4584210000000 1.0
C      1  0.5901810000000  0.4843970000000  0.4615880000000 1.0
C      1  0.4102710000000  0.5132550000000  0.4602620000000 1.0
C      1  0.4124160000000  0.5383270000000  0.5633980000000 1.0
C      1  0.5847810000000  0.4618950000000  0.5682490000000 1.0
C      1  0.6317730000000  0.3876850000000  0.4454480000000 1.0
C      1  0.3625650000000  0.6046450000000  0.4421540000000 1.0
C      1  0.4899590000000  0.4644330000000  0.5095060000000 1.0
C      1  0.5127260000000  0.5267180000000  0.5034620000000 1.0
C      1  0.5598050000000  0.5183400000000  0.4549960000000 1.0
C      1  0.4426990000000  0.4817700000000  0.4568610000000 1.0
C      1  0.5131460000000  0.5821870000000  0.5455890000000 1.0
C      1  0.4770910000000  0.4203670000000  0.5533750000000 1.0
C      1  0.5413370000000  0.4337030000000  0.5807010000000 1.0
C      1  0.4555170000000  0.5667800000000  0.5769280000000 1.0
C      1  0.5538030000000  0.4769540000000  0.4277680000000 1.0
C      1  0.4469040000000  0.5215420000000  0.4266540000000 1.0
C      1  0.4646480000000  0.4505770000000  0.5120660000000 1.0
C      1  0.5330400000000  0.5463140000000  0.5111030000000 1.0
C      1  0.5445300000000  0.4980300000000  0.5182300000000 1.0
C      1  0.4563950000000  0.5001110000000  0.5170260000000 1.0
C      1  0.4521280000000  0.4913050000000  0.5918490000000 1.0
C      1  0.5424300000000  0.5079880000000  0.5938420000000 1.0
C      1  0.4859890000000  0.4600790000000  0.5778360000000 1.0
C      1  0.5206540000000  0.5446510000000  0.5710590000000 1.0
C      1  0.6162760000000  0.5443110000000  0.5143610000000 1.0
C      1  0.3833950000000  0.4570340000000  0.5066410000000 1.0
C      1  0.3989890000000  0.5937310000000  0.4711910000000 1.0
C      1  0.5965590000000  0.4028140000000  0.4740850000000 1.0
C      1  0.4320570000000  0.5551830000000  0.5706910000000 1.0
C      1  0.5648270000000  0.4454660000000  0.5754050000000 1.0
C      1  0.4655630000000  0.4927520000000  0.5441470000000 1.0
C      1  0.5326290000000  0.5048000000000  0.5444420000000 1.0
C      1  0.5751050000000  0.5575760000000  0.4886610000000 1.0
C      1  0.4259830000000  0.4431250000000  0.4836480000000 1.0
C      1  0.4150350000000  0.5096490000000  0.4897850000000 1.0
C      1  0.5851990000000  0.4883880000000  0.4909500000000 1.0
C      1  0.4125940000000  0.5349730000000  0.5036180000000 1.0
C      1  0.5872010000000  0.4632280000000  0.5051680000000 1.0
C      1  0.3974070000000  0.5178890000000  0.5544200000000 1.0
C      1  0.5998690000000  0.4822900000000  0.5595700000000 1.0
C      1  0.5777730000000  0.4225930000000  0.4783780000000 1.0
C      1  0.4192570000000  0.5756870000000  0.4762830000000 1.0
C      1  0.5103220000000  0.5521700000000  0.4567360000000 1.0
C      1  0.4914840000000  0.4541890000000  0.4533390000000 1.0
C      1  0.4880970000000  0.4748760000000  0.5530710000000 1.0
C      1  0.5123410000000  0.5262300000000  0.5501410000000 1.0
C      1  0.4658650000000  0.4903190000000  0.4701430000000 1.0
C      1  0.5358600000000  0.5126850000000  0.4675260000000 1.0
C      1  0.4528930000000  0.4727860000000  0.3608240000000 1.0
C      1  0.5571920000000  0.5203330000000  0.3664260000000 1.0
C      1  0.5734340000000  0.4385930000000  0.5026730000000 1.0
C      1  0.4244890000000  0.5605060000000  0.5008870000000 1.0
C      1  0.5113600000000  0.5149390000000  0.6295110000000 1.0
C      1  0.5318640000000  0.4987660000000  0.6185700000000 1.0
C      1  0.4566240000000  0.4681620000000  0.3875790000000 1.0
C      1  0.5451930000000  0.5298390000000  0.3891470000000 1.0
C      1  0.4393960000000  0.4604310000000  0.5019510000000 1.0
C      1  0.5607470000000  0.5382660000000  0.5040220000000 1.0
C      1  0.6176440000000  0.5247920000000  0.5327550000000 1.0
C      1  0.3810850000000  0.4758790000000  0.5257450000000 1.0
C      1  0.4703070000000  0.5078950000000  0.4926380000000 1.0
C      1  0.5252710000000  0.5008190000000  0.4943820000000 1.0
C      1  0.5397530000000  0.5359670000000  0.5894850000000 1.0
C      1  0.4700570000000  0.4718350000000  0.5978930000000 1.0
C      1  0.5147710000000  0.3992250000000  0.6012270000000 1.0
C      1  0.4863890000000  0.5570920000000  0.6125420000000 1.0
C      1  0.5052760000000  0.4625720000000  0.5336940000000 1.0
C      1  0.4870450000000  0.5352380000000  0.5387900000000 1.0
C      1  0.4879040000000  0.5298000000000  0.4911570000000 1.0
C      1  0.5089530000000  0.4751640000000  0.4905820000000 1.0
C      1  0.4760620000000  0.4833470000000  0.4016000000000 1.0
C      1  0.5245560000000  0.5146510000000  0.4013570000000 1.0
C      1  0.5650860000000  0.4503650000000  0.4393100000000 1.0
C      1  0.4351200000000  0.5480900000000  0.4384220000000 1.0
C      1  0.4959080000000  0.5366570000000  0.6269890000000 1.0
C      1  0.5409470000000  0.4763230000000  0.6310750000000 1.0
C      1  0.4438930000000  0.4322730000000  0.4640740000000 1.0
C      1  0.5585020000000  0.5706950000000  0.4694770000000 1.0
C      1  0.4315120000000  0.4887730000000  0.5051640000000 1.0
C      1  0.5689180000000  0.5092280000000  0.5059830000000 1.0
C      1  0.4687400000000  0.5516740000000  0.5267220000000 1.0
C      1  0.5292080000000  0.4478550000000  0.5287380000000 1.0
C      1  0.6207300000000  0.3628590000000  0.4845370000000 1.0
C      1  0.3719910000000  0.6323050000000  0.4797340000000 1.0
C      1  0.5057300000000  0.5690880000000  0.5699320000000 1.0
C      1  0.4921710000000  0.4324160000000  0.5744210000000 1.0
C      1  0.3981940000000  0.4429570000000  0.4887990000000 1.0
C      1  0.6022290000000  0.5585550000000  0.4961840000000 1.0
C      1  0.5161540000000  0.4216140000000  0.5854800000000 1.0
C      1  0.4821480000000  0.5680700000000  0.5866520000000 1.0
C      1  0.4639530000000  0.5666650000000  0.4776300000000 1.0
C      1  0.5345620000000  0.4375460000000  0.4780670000000 1.0
C      1  0.5153820000000  0.5242420000000  0.4516220000000 1.0
C      1  0.4859540000000  0.4825820000000  0.4519770000000 1.0
C      1  0.5037080000000  0.4735440000000  0.4050540000000 1.0
C      1  0.4966740000000  0.5247060000000  0.4024610000000 1.0
C      1  0.5443430000000  0.4391270000000  0.5062800000000 1.0
C      1  0.4533350000000  0.5627500000000  0.5054140000000 1.0
C      1  0.5923790000000  0.4585630000000  0.4489720000000 1.0
C      1  0.4078310000000  0.5389700000000  0.4475220000000 1.0
C      1  0.6165690000000  0.3842480000000  0.4679590000000 1.0
C      1  0.3776180000000  0.6104110000000  0.4642870000000 1.0
C      1  0.5527780000000  0.5538030000000  0.3999820000000 1.0
C      1  0.4418760000000  0.4491640000000  0.4006140000000 1.0
C      1  0.4496700000000  0.5007540000000  0.5665270000000 1.0
C      1  0.5430210000000  0.4941430000000  0.5690080000000 1.0
C      1  0.4990890000000  0.5044520000000  0.4418820000000 1.0
END
