TITL C-3623289-7120-1893 31294.1322827231 125000 -557.337971789706 0 0 94 (C1) n - 1
REM
REM in /home/nfs/bkarasulu/CARBON/AIRSS/Generating-Clusters/LCBOP/Higher-Symm/SD-CG/FIRE-CG
REM
REM
REM
REM
REM
REM ./C.cell (b20cbc046b6831c77cfcea5457e17084)
REM AIRSS Version 0.9.1 bugfix July 2018 build 013d7b7c2542+ Fri, 06 Jul 2018 19:26:36 +0100
REM compiler GCC version 9.2.1 20190827 (Red Hat 9.2.1-1)
REM options -cpp -mtune=generic -march=x86-64 -g -O0 -fpre-include=/usr/include/finclude/math-vector-fortran.h
REM seed -1188158327 765071605 196368177 -1116386639 879453101 -1673842179 -771558611 311666469 -1853496696 -1495705738 2077221799 -757325615 938762234 -1824689079 1393419400 -1655101433 -235590099 -1004892359 2030728674 -877298588 -1496568587 1188326208 -1559137562 1776719709 388454621 710841990 -1534542901 191897589 -1892733254 -1689055407 -1700524146 -1972430374 866575477
REM
CELL 1.54180   50.00000   50.00000   50.00000   90.00000   90.00000   90.00000
LATT -1
SFAC C  
C      1  0.4745820000000  0.5411920000000  0.5781750000000 1.0
C      1  0.5789870000000  0.5415530000000  0.4809840000000 1.0
C      1  0.4451680000000  0.5401260000000  0.4400810000000 1.0
C      1  0.4749380000000  0.4601810000000  0.4217780000000 1.0
C      1  0.5794560000000  0.4596520000000  0.5166980000000 1.0
C      1  0.4437600000000  0.4604600000000  0.5594010000000 1.0
C      1  0.4703100000000  0.4316080000000  0.4622340000000 1.0
C      1  0.4814410000000  0.4322760000000  0.5426130000000 1.0
C      1  0.5456730000000  0.4312920000000  0.4916650000000 1.0
C      1  0.4705100000000  0.5686240000000  0.5365220000000 1.0
C      1  0.4813060000000  0.5711600000000  0.4545400000000 1.0
C      1  0.5450610000000  0.5684330000000  0.5056580000000 1.0
C      1  0.4307050000000  0.4834490000000  0.5707540000000 1.0
C      1  0.5961280000000  0.4827730000000  0.5223780000000 1.0
C      1  0.4719130000000  0.4835450000000  0.4053890000000 1.0
C      1  0.4318590000000  0.5174500000000  0.4289050000000 1.0
C      1  0.5952740000000  0.5182890000000  0.4752500000000 1.0
C      1  0.4710950000000  0.5178040000000  0.5949660000000 1.0
C      1  0.5115890000000  0.4627390000000  0.5923580000000 1.0
C      1  0.5743250000000  0.4627790000000  0.4415770000000 1.0
C      1  0.4141800000000  0.4629160000000  0.4658780000000 1.0
C      1  0.5126850000000  0.5380730000000  0.4077990000000 1.0
C      1  0.5743900000000  0.5375140000000  0.5568100000000 1.0
C      1  0.4137220000000  0.5386520000000  0.5338380000000 1.0
C      1  0.4275490000000  0.5105830000000  0.5700150000000 1.0
C      1  0.5980630000000  0.5101040000000  0.5253240000000 1.0
C      1  0.4740680000000  0.5106030000000  0.4026970000000 1.0
C      1  0.4284300000000  0.4904870000000  0.4297460000000 1.0
C      1  0.5971080000000  0.4910160000000  0.4726370000000 1.0
C      1  0.4728560000000  0.4905080000000  0.5978390000000 1.0
C      1  0.4989260000000  0.5267560000000  0.4577080000000 1.0
C      1  0.4679260000000  0.5290870000000  0.5187280000000 1.0
C      1  0.5397190000000  0.5285730000000  0.5218370000000 1.0
C      1  0.4949590000000  0.4734060000000  0.5448320000000 1.0
C      1  0.4691630000000  0.4716090000000  0.4826110000000 1.0
C      1  0.5401160000000  0.4739220000000  0.4801630000000 1.0
C      1  0.5849540000000  0.4647730000000  0.4678060000000 1.0
C      1  0.4310660000000  0.4650930000000  0.4433620000000 1.0
C      1  0.4833290000000  0.4644400000000  0.5892160000000 1.0
C      1  0.5851590000000  0.5361120000000  0.5303890000000 1.0
C      1  0.4304440000000  0.5362150000000  0.5565340000000 1.0
C      1  0.4846100000000  0.5363790000000  0.4111200000000 1.0
C      1  0.5732680000000  0.5527350000000  0.5083410000000 1.0
C      1  0.4704290000000  0.5529090000000  0.4309520000000 1.0
C      1  0.4549280000000  0.5522800000000  0.5586400000000 1.0
C      1  0.5737770000000  0.4480110000000  0.4896610000000 1.0
C      1  0.4694720000000  0.4478680000000  0.5685500000000 1.0
C      1  0.4552720000000  0.4490150000000  0.4410130000000 1.0
C      1  0.4664320000000  0.4954280000000  0.4685770000000 1.0
C      1  0.4860640000000  0.4990220000000  0.5516340000000 1.0
C      1  0.5497150000000  0.4991070000000  0.4858700000000 1.0
C      1  0.4638870000000  0.5059050000000  0.5337770000000 1.0
C      1  0.4896040000000  0.5012910000000  0.4526400000000 1.0
C      1  0.5526760000000  0.5044340000000  0.5143550000000 1.0
C      1  0.5009470000000  0.5649810000000  0.5434210000000 1.0
C      1  0.5355420000000  0.5653480000000  0.4760390000000 1.0
C      1  0.4607880000000  0.5656920000000  0.4790510000000 1.0
C      1  0.5009770000000  0.4323720000000  0.4537550000000 1.0
C      1  0.5356230000000  0.4368410000000  0.5211450000000 1.0
C      1  0.4608420000000  0.4371690000000  0.5194400000000 1.0
C      1  0.5010430000000  0.5433610000000  0.5645480000000 1.0
C      1  0.5533040000000  0.5432670000000  0.4660210000000 1.0
C      1  0.4455610000000  0.5409710000000  0.4693210000000 1.0
C      1  0.5013470000000  0.4569280000000  0.4347260000000 1.0
C      1  0.5538470000000  0.4584690000000  0.5316420000000 1.0
C      1  0.4445030000000  0.4602480000000  0.5300230000000 1.0
C      1  0.4106590000000  0.5224590000000  0.5125180000000 1.0
C      1  0.5576340000000  0.5213200000000  0.5705980000000 1.0
C      1  0.5323830000000  0.5211520000000  0.4150410000000 1.0
C      1  0.4106690000000  0.4797850000000  0.4865610000000 1.0
C      1  0.5577110000000  0.4795910000000  0.4285970000000 1.0
C      1  0.5319160000000  0.4788100000000  0.5846840000000 1.0
C      1  0.5131600000000  0.5239980000000  0.5173130000000 1.0
C      1  0.4953650000000  0.5393940000000  0.4803690000000 1.0
C      1  0.4917550000000  0.5371930000000  0.5070500000000 1.0
C      1  0.5157080000000  0.4648690000000  0.4781220000000 1.0
C      1  0.5000730000000  0.4719070000000  0.5180900000000 1.0
C      1  0.4927620000000  0.4617680000000  0.4933780000000 1.0
C      1  0.4448870000000  0.4876550000000  0.5211640000000 1.0
C      1  0.5474250000000  0.4859980000000  0.5375290000000 1.0
C      1  0.5100620000000  0.4842150000000  0.4408830000000 1.0
C      1  0.4463400000000  0.5137430000000  0.4792740000000 1.0
C      1  0.5457370000000  0.5157740000000  0.4620920000000 1.0
C      1  0.5087670000000  0.5156110000000  0.5607710000000 1.0
C      1  0.4623890000000  0.4279620000000  0.4911320000000 1.0
C      1  0.5102330000000  0.4286770000000  0.5342750000000 1.0
C      1  0.5253010000000  0.4235600000000  0.4700400000000 1.0
C      1  0.4625370000000  0.5736000000000  0.5078330000000 1.0
C      1  0.5108440000000  0.5755190000000  0.4622130000000 1.0
C      1  0.5242650000000  0.5726280000000  0.5268310000000 1.0
C      1  0.4270130000000  0.5009380000000  0.4997890000000 1.0
C      1  0.5365450000000  0.5004110000000  0.5639470000000 1.0
C      1  0.5367960000000  0.4998410000000  0.4360130000000 1.0
C      1  0.5099240000000  0.4972470000000  0.5116280000000 1.0
END
