TITL C-3623282-6910-1776 40258.7299578817 125000 -1103.13399241677 0 0 182 (C1) n - 1
REM
REM in /home/nfs/bkarasulu/CARBON/AIRSS/Generating-Clusters/LCBOP/Higher-Symm/SD-CG/FIRE-CG
REM
REM
REM
REM
REM
REM ./C.cell (b20cbc046b6831c77cfcea5457e17084)
REM AIRSS Version 0.9.1 bugfix July 2018 build 013d7b7c2542+ Fri, 06 Jul 2018 19:26:36 +0100
REM compiler GCC version 9.2.1 20190827 (Red Hat 9.2.1-1)
REM options -cpp -mtune=generic -march=x86-64 -g -O0 -fpre-include=/usr/include/finclude/math-vector-fortran.h
REM seed 1766329727 1793212306 873467129 1265618570 2093465475 1749949243 2043264252 -1396229114 -50311264 -641668145 -1621892442 1986980458 -590125545 937741554 1310581273 -1475772443 -1132633001 -884516067 1561251786 -1346577338 955210610 -893325119 -1140408246 -2015793406 501654542 -1902937838 -1249416809 -1107077204 -1453497030 1179720686 -350228507 -794397921 192621056
REM
CELL 1.54180   50.00000   50.00000   50.00000   90.00000   90.00000   90.00000
LATT -1
SFAC C  
C      1  0.4615920000000  0.5655740000000  0.3932700000000 1.0
C      1  0.4611720000000  0.6174790000000  0.5330420000000 1.0
C      1  0.4617990000000  0.5087940000000  0.6264240000000 1.0
C      1  0.4615600000000  0.3830390000000  0.5459380000000 1.0
C      1  0.4609540000000  0.4250480000000  0.4056710000000 1.0
C      1  0.4464190000000  0.5581910000000  0.5648600000000 1.0
C      1  0.4464900000000  0.4482630000000  0.5812790000000 1.0
C      1  0.4467810000000  0.4075060000000  0.4797250000000 1.0
C      1  0.4471990000000  0.4918980000000  0.4131840000000 1.0
C      1  0.4462910000000  0.5896470000000  0.4620930000000 1.0
C      1  0.4299090000000  0.4882570000000  0.5592630000000 1.0
C      1  0.4311500000000  0.4411740000000  0.5082730000000 1.0
C      1  0.4311140000000  0.4759110000000  0.4547240000000 1.0
C      1  0.4303350000000  0.5451830000000  0.4587140000000 1.0
C      1  0.4309990000000  0.5478660000000  0.5212530000000 1.0
C      1  0.5564830000000  0.5348810000000  0.4963850000000 1.0
C      1  0.5568800000000  0.5249460000000  0.5230250000000 1.0
C      1  0.5578470000000  0.4737830000000  0.5198640000000 1.0
C      1  0.5573210000000  0.4705610000000  0.4894760000000 1.0
C      1  0.5581170000000  0.4928460000000  0.4685080000000 1.0
C      1  0.5709110000000  0.5899620000000  0.4999240000000 1.0
C      1  0.5705180000000  0.5268630000000  0.5844340000000 1.0
C      1  0.5710440000000  0.4269850000000  0.5520420000000 1.0
C      1  0.5705030000000  0.4267870000000  0.4473500000000 1.0
C      1  0.5714340000000  0.5271670000000  0.4157710000000 1.0
C      1  0.4727200000000  0.3961550000000  0.4746270000000 1.0
C      1  0.4728070000000  0.4930770000000  0.3995480000000 1.0
C      1  0.4726910000000  0.6012460000000  0.4598420000000 1.0
C      1  0.4720380000000  0.5648880000000  0.5768270000000 1.0
C      1  0.4724850000000  0.4404830000000  0.5900100000000 1.0
C      1  0.4822330000000  0.6197770000000  0.5126690000000 1.0
C      1  0.4816450000000  0.5274450000000  0.6157500000000 1.0
C      1  0.4826100000000  0.3965260000000  0.5614390000000 1.0
C      1  0.4816240000000  0.4112380000000  0.4212740000000 1.0
C      1  0.4828510000000  0.5453670000000  0.3909740000000 1.0
C      1  0.4852380000000  0.5390400000000  0.4184200000000 1.0
C      1  0.4848690000000  0.5923220000000  0.5061480000000 1.0
C      1  0.4827350000000  0.5175730000000  0.5893250000000 1.0
C      1  0.4846380000000  0.4204580000000  0.5459800000000 1.0
C      1  0.4843770000000  0.4298340000000  0.4425210000000 1.0
C      1  0.4358950000000  0.5105540000000  0.6028180000000 1.0
C      1  0.4379820000000  0.4033950000000  0.5405170000000 1.0
C      1  0.4386190000000  0.4357340000000  0.4246810000000 1.0
C      1  0.4378970000000  0.5526610000000  0.4102810000000 1.0
C      1  0.4388240000000  0.5977940000000  0.5232500000000 1.0
C      1  0.5309430000000  0.3944040000000  0.4306960000000 1.0
C      1  0.5318500000000  0.5312400000000  0.3797310000000 1.0
C      1  0.5317780000000  0.6267800000000  0.4945560000000 1.0
C      1  0.5310190000000  0.5445550000000  0.6158860000000 1.0
C      1  0.5320730000000  0.4018020000000  0.5789680000000 1.0
C      1  0.5224230000000  0.3951980000000  0.4985730000000 1.0
C      1  0.5218650000000  0.4721310000000  0.4026180000000 1.0
C      1  0.5226330000000  0.5848570000000  0.4401170000000 1.0
C      1  0.5213280000000  0.5793070000000  0.5626230000000 1.0
C      1  0.5229580000000  0.4639480000000  0.5974320000000 1.0
C      1  0.5296900000000  0.5249690000000  0.4357860000000 1.0
C      1  0.5262020000000  0.5714910000000  0.5026130000000 1.0
C      1  0.5274640000000  0.5163500000000  0.5666510000000 1.0
C      1  0.5264070000000  0.4395030000000  0.5375940000000 1.0
C      1  0.5265860000000  0.4444210000000  0.4571300000000 1.0
C      1  0.5849320000000  0.4570200000000  0.4843400000000 1.0
C      1  0.5833700000000  0.4997060000000  0.4562140000000 1.0
C      1  0.5826690000000  0.5433570000000  0.4873520000000 1.0
C      1  0.5825090000000  0.5251890000000  0.5362170000000 1.0
C      1  0.5833590000000  0.4715140000000  0.5333910000000 1.0
C      1  0.3986650000000  0.5071530000000  0.5273000000000 1.0
C      1  0.3997560000000  0.4766310000000  0.5168230000000 1.0
C      1  0.3978740000000  0.4773900000000  0.4851940000000 1.0
C      1  0.3976200000000  0.5089800000000  0.4742710000000 1.0
C      1  0.3959980000000  0.5272800000000  0.5003600000000 1.0
C      1  0.4437790000000  0.5648120000000  0.4400120000000 1.0
C      1  0.4465320000000  0.5693800000000  0.5349710000000 1.0
C      1  0.4431430000000  0.4836190000000  0.5853850000000 1.0
C      1  0.4449770000000  0.4145560000000  0.5111140000000 1.0
C      1  0.4465070000000  0.4656280000000  0.4312300000000 1.0
C      1  0.5818570000000  0.4550480000000  0.5565420000000 1.0
C      1  0.5818920000000  0.4303810000000  0.4751150000000 1.0
C      1  0.5818200000000  0.5014700000000  0.4280070000000 1.0
C      1  0.5822100000000  0.5705720000000  0.4792820000000 1.0
C      1  0.5816060000000  0.5405680000000  0.5599740000000 1.0
C      1  0.4786080000000  0.3695440000000  0.5251400000000 1.0
C      1  0.4780900000000  0.4409180000000  0.3871130000000 1.0
C      1  0.4786430000000  0.5891640000000  0.4018680000000 1.0
C      1  0.4779400000000  0.6145410000000  0.5575530000000 1.0
C      1  0.4796680000000  0.4847650000000  0.6316410000000 1.0
C      1  0.5640320000000  0.5815960000000  0.5290750000000 1.0
C      1  0.5644760000000  0.4966750000000  0.5860230000000 1.0
C      1  0.5644880000000  0.4156100000000  0.5240970000000 1.0
C      1  0.5639980000000  0.4505830000000  0.4289750000000 1.0
C      1  0.5655110000000  0.5533690000000  0.4315630000000 1.0
C      1  0.5046970000000  0.4374110000000  0.5544830000000 1.0
C      1  0.5069170000000  0.4247140000000  0.4579420000000 1.0
C      1  0.5021270000000  0.5180030000000  0.4274000000000 1.0
C      1  0.5072730000000  0.5876510000000  0.4904350000000 1.0
C      1  0.4999200000000  0.5275660000000  0.5690740000000 1.0
C      1  0.5062360000000  0.4571830000000  0.5005210000000 1.0
C      1  0.5073720000000  0.4889440000000  0.4611270000000 1.0
C      1  0.5063910000000  0.5361970000000  0.4738750000000 1.0
C      1  0.5061040000000  0.5308410000000  0.5245490000000 1.0
C      1  0.5017350000000  0.4856020000000  0.5441540000000 1.0
C      1  0.4986750000000  0.5580660000000  0.5636300000000 1.0
C      1  0.4999480000000  0.4517140000000  0.5800750000000 1.0
C      1  0.5005100000000  0.4086040000000  0.4813850000000 1.0
C      1  0.4994980000000  0.4901890000000  0.4139550000000 1.0
C      1  0.5004470000000  0.5866980000000  0.4622190000000 1.0
C      1  0.5033970000000  0.6051930000000  0.5641120000000 1.0
C      1  0.5043610000000  0.4742340000000  0.6229070000000 1.0
C      1  0.5038990000000  0.3737470000000  0.5138510000000 1.0
C      1  0.5037820000000  0.4518260000000  0.3868400000000 1.0
C      1  0.5038150000000  0.5921490000000  0.4142130000000 1.0
C      1  0.4298450000000  0.5193950000000  0.4185540000000 1.0
C      1  0.4278190000000  0.5863650000000  0.4918200000000 1.0
C      1  0.4284450000000  0.5327530000000  0.5765450000000 1.0
C      1  0.4288920000000  0.4334220000000  0.5558900000000 1.0
C      1  0.4285580000000  0.4270250000000  0.4572190000000 1.0
C      1  0.4726610000000  0.4916990000000  0.5831140000000 1.0
C      1  0.4747180000000  0.4219920000000  0.5192520000000 1.0
C      1  0.4726470000000  0.4573690000000  0.4461030000000 1.0
C      1  0.4740920000000  0.5549170000000  0.4394920000000 1.0
C      1  0.4730080000000  0.5675840000000  0.5185350000000 1.0
C      1  0.5325030000000  0.5473040000000  0.4872420000000 1.0
C      1  0.5333780000000  0.5235750000000  0.5377070000000 1.0
C      1  0.5357760000000  0.4659230000000  0.5347160000000 1.0
C      1  0.5323990000000  0.4546230000000  0.4837740000000 1.0
C      1  0.5350660000000  0.5015010000000  0.4553160000000 1.0
C      1  0.5064060000000  0.5400790000000  0.3762090000000 1.0
C      1  0.5069140000000  0.6333250000000  0.5051920000000 1.0
C      1  0.5056300000000  0.5398180000000  0.6241820000000 1.0
C      1  0.5068970000000  0.3913650000000  0.5757620000000 1.0
C      1  0.5058880000000  0.3955990000000  0.4189790000000 1.0
C      1  0.6044310000000  0.5008210000000  0.4750040000000 1.0
C      1  0.6032560000000  0.5241010000000  0.4926360000000 1.0
C      1  0.6031910000000  0.5138620000000  0.5203920000000 1.0
C      1  0.6042620000000  0.4846870000000  0.5194510000000 1.0
C      1  0.6057050000000  0.4761390000000  0.4912310000000 1.0
C      1  0.4896140000000  0.5134390000000  0.5425760000000 1.0
C      1  0.4926490000000  0.4665770000000  0.5261950000000 1.0
C      1  0.4931200000000  0.4773080000000  0.4834920000000 1.0
C      1  0.4921020000000  0.5141420000000  0.4563240000000 1.0
C      1  0.4927070000000  0.5286600000000  0.4990340000000 1.0
C      1  0.5505650000000  0.5476950000000  0.5954290000000 1.0
C      1  0.5518340000000  0.4226300000000  0.5760750000000 1.0
C      1  0.5508410000000  0.4026510000000  0.4503500000000 1.0
C      1  0.5515040000000  0.5166610000000  0.3943820000000 1.0
C      1  0.5513710000000  0.6080880000000  0.4832580000000 1.0
C      1  0.5719740000000  0.5749550000000  0.4517260000000 1.0
C      1  0.5705050000000  0.5681640000000  0.5554860000000 1.0
C      1  0.5714250000000  0.4677960000000  0.5814140000000 1.0
C      1  0.5712100000000  0.4110020000000  0.4950560000000 1.0
C      1  0.5707940000000  0.4766430000000  0.4153010000000 1.0
C      1  0.5494180000000  0.5958980000000  0.4553040000000 1.0
C      1  0.5476240000000  0.5698050000000  0.5758980000000 1.0
C      1  0.5496380000000  0.4483410000000  0.5913230000000 1.0
C      1  0.5489310000000  0.3959420000000  0.4799120000000 1.0
C      1  0.5483030000000  0.4872670000000  0.3974330000000 1.0
C      1  0.5348250000000  0.5791770000000  0.5286740000000 1.0
C      1  0.5352090000000  0.4956400000000  0.5843120000000 1.0
C      1  0.5350310000000  0.4163490000000  0.5230280000000 1.0
C      1  0.5350000000000  0.4528230000000  0.4311320000000 1.0
C      1  0.5360350000000  0.5527710000000  0.4335510000000 1.0
C      1  0.4145080000000  0.4517240000000  0.5286060000000 1.0
C      1  0.4130750000000  0.4578640000000  0.4673170000000 1.0
C      1  0.4141620000000  0.5236970000000  0.4492550000000 1.0
C      1  0.4120310000000  0.5552120000000  0.5020620000000 1.0
C      1  0.4131730000000  0.5110950000000  0.5542740000000 1.0
C      1  0.4428440000000  0.5225590000000  0.5181020000000 1.0
C      1  0.4505950000000  0.4851980000000  0.5400840000000 1.0
C      1  0.4523080000000  0.4580430000000  0.4992190000000 1.0
C      1  0.4432680000000  0.4957820000000  0.4704530000000 1.0
C      1  0.4529270000000  0.5387170000000  0.4752200000000 1.0
C      1  0.4640680000000  0.4671100000000  0.5238810000000 1.0
C      1  0.4683370000000  0.4618350000000  0.4760090000000 1.0
C      1  0.4631400000000  0.5142120000000  0.4622170000000 1.0
C      1  0.4695040000000  0.5475930000000  0.4959810000000 1.0
C      1  0.4611720000000  0.5117600000000  0.5362930000000 1.0
C      1  0.4947990000000  0.5564950000000  0.5343610000000 1.0
C      1  0.4907290000000  0.4770330000000  0.5691780000000 1.0
C      1  0.4930260000000  0.4301640000000  0.5000450000000 1.0
C      1  0.4951170000000  0.4742770000000  0.4385900000000 1.0
C      1  0.4912060000000  0.5587820000000  0.4611820000000 1.0
C      1  0.4363920000000  0.5042120000000  0.4970460000000 1.0
C      1  0.4857020000000  0.5007420000000  0.4984910000000 1.0
END
