TITL C-3623284-6838-1506 0.782800635792941 125000 -327.438798820813 0 0 55 (C1) n - 1
REM
REM in /home/nfs/bkarasulu/CARBON/AIRSS/Generating-Clusters/LCBOP/Higher-Symm/SD-CG/FIRE-CG
REM
REM
REM
REM
REM
REM ./C.cell (b20cbc046b6831c77cfcea5457e17084)
REM AIRSS Version 0.9.1 bugfix July 2018 build 013d7b7c2542+ Fri, 06 Jul 2018 19:26:36 +0100
REM compiler GCC version 9.2.1 20190827 (Red Hat 9.2.1-1)
REM options -cpp -mtune=generic -march=x86-64 -g -O0 -fpre-include=/usr/include/finclude/math-vector-fortran.h
REM seed -1621075668 361188347 422801283 -1029457156 -933870750 935380178 -2042181936 1221787517 -1752628575 530970638 -1936743178 -339336516 -1190465849 -1802136387 -481439496 145458609 1233539164 -489632841 -1321515214 -207543421 -1927853845 -2038972654 988104428 1658142931 -458995698 -2043268775 -155315238 101288179 -932750906 -1514844200 287733771 -812979576 -2040370284
REM
CELL 1.54180   50.00000   50.00000   50.00000   90.00000   90.00000   90.00000
LATT -1
SFAC C  
C      1  0.4637370000000  0.5601710000000  0.4955350000000 1.0
C      1  0.4520560000000  0.4677770000000  0.5426010000000 1.0
C      1  0.4479090000000  0.4845470000000  0.4644030000000 1.0
C      1  0.5567500000000  0.4634800000000  0.4519960000000 1.0
C      1  0.5576300000000  0.5357170000000  0.4820830000000 1.0
C      1  0.5474650000000  0.5108380000000  0.5505810000000 1.0
C      1  0.5004960000000  0.5665060000000  0.5249570000000 1.0
C      1  0.4948730000000  0.4499550000000  0.5483030000000 1.0
C      1  0.4796480000000  0.4901370000000  0.4280010000000 1.0
C      1  0.4600330000000  0.5304090000000  0.5356010000000 1.0
C      1  0.4747650000000  0.4467300000000  0.4996910000000 1.0
C      1  0.4702570000000  0.5316630000000  0.4561970000000 1.0
C      1  0.5229450000000  0.4522130000000  0.5473720000000 1.0
C      1  0.5048430000000  0.4776290000000  0.4326330000000 1.0
C      1  0.5280010000000  0.5556190000000  0.5281960000000 1.0
C      1  0.4803770000000  0.4940460000000  0.5108840000000 1.0
C      1  0.4876640000000  0.4868920000000  0.4838610000000 1.0
C      1  0.4968170000000  0.5307350000000  0.4947870000000 1.0
C      1  0.4925030000000  0.4163730000000  0.4666330000000 1.0
C      1  0.4831880000000  0.5759090000000  0.4793570000000 1.0
C      1  0.4662290000000  0.4862800000000  0.5619280000000 1.0
C      1  0.4621180000000  0.5042230000000  0.4462860000000 1.0
C      1  0.4714440000000  0.5561330000000  0.5247740000000 1.0
C      1  0.4723730000000  0.4500990000000  0.5290550000000 1.0
C      1  0.5013950000000  0.5160360000000  0.5470740000000 1.0
C      1  0.5236880000000  0.4484340000000  0.4868530000000 1.0
C      1  0.5171570000000  0.5432980000000  0.4573770000000 1.0
C      1  0.5335550000000  0.4489040000000  0.4594740000000 1.0
C      1  0.5382520000000  0.5543500000000  0.4727850000000 1.0
C      1  0.5222670000000  0.5057930000000  0.5631510000000 1.0
C      1  0.5038790000000  0.5118770000000  0.5171460000000 1.0
C      1  0.5329990000000  0.4695990000000  0.5045060000000 1.0
C      1  0.5135500000000  0.5084780000000  0.4686260000000 1.0
C      1  0.4910620000000  0.5529590000000  0.4518270000000 1.0
C      1  0.4737430000000  0.5145350000000  0.5561590000000 1.0
C      1  0.4983970000000  0.4328850000000  0.4894440000000 1.0
C      1  0.5512600000000  0.4887440000000  0.4433030000000 1.0
C      1  0.5502880000000  0.5196940000000  0.5041750000000 1.0
C      1  0.5588510000000  0.4853630000000  0.5425830000000 1.0
C      1  0.4952010000000  0.4271210000000  0.4415710000000 1.0
C      1  0.5047320000000  0.5812020000000  0.4978440000000 1.0
C      1  0.4891710000000  0.4701880000000  0.5700890000000 1.0
C      1  0.5237790000000  0.4957970000000  0.4449450000000 1.0
C      1  0.5461020000000  0.5324760000000  0.5301330000000 1.0
C      1  0.5420040000000  0.4646700000000  0.5313480000000 1.0
C      1  0.4549310000000  0.5089530000000  0.5161000000000 1.0
C      1  0.4675370000000  0.4671920000000  0.4782840000000 1.0
C      1  0.4701500000000  0.5338550000000  0.4848540000000 1.0
C      1  0.4307220000000  0.4951650000000  0.5093790000000 1.0
C      1  0.4280160000000  0.4748420000000  0.5291360000000 1.0
C      1  0.4263170000000  0.4917070000000  0.4815770000000 1.0
C      1  0.5150770000000  0.4809820000000  0.5745230000000 1.0
C      1  0.5115810000000  0.4501860000000  0.4394270000000 1.0
C      1  0.5311580000000  0.5734650000000  0.4922660000000 1.0
C      1  0.5283040000000  0.4990770000000  0.5001960000000 1.0
END
