TITL C-3623285-6872-1656 -8.72443891556057e-07 125000 -318.919265027641 0 0 54 (S4) n - 1
REM
REM in /home/nfs/bkarasulu/CARBON/AIRSS/Generating-Clusters/LCBOP/Higher-Symm/SD-CG/FIRE-CG
REM
REM
REM
REM
REM
REM ./C.cell (b20cbc046b6831c77cfcea5457e17084)
REM AIRSS Version 0.9.1 bugfix July 2018 build 013d7b7c2542+ Fri, 06 Jul 2018 19:26:36 +0100
REM compiler GCC version 9.2.1 20190827 (Red Hat 9.2.1-1)
REM options -cpp -mtune=generic -march=x86-64 -g -O0 -fpre-include=/usr/include/finclude/math-vector-fortran.h
REM seed 1477594291 -1224516793 437977847 26207868 767128489 994489706 -808476899 1401624676 -1503757528 1168868604 2107949675 -653410268 -101342163 -1101099934 185586797 -1968151791 -351910748 -1624293781 -474737386 1560350167 995369959 1175639658 -1198795979 -1406127890 -1428227171 -1540120306 -920209744 -1183671930 -308081998 -272461747 -52224536 -383568723 -462010049
REM
CELL 1.54180   50.00000   50.00000   50.00000   90.00000   90.00000   90.00000
LATT -1
SFAC C  
C      1  0.4832170000000  0.4936200000000  0.4513560000000 1.0
C      1  0.5167750000000  0.4522580000000  0.5060300000000 1.0
C      1  0.4832230000000  0.5069380000000  0.5473900000000 1.0
C      1  0.5167850000000  0.5482920000000  0.4927120000000 1.0
C      1  0.5519820000000  0.4957590000000  0.4858320000000 1.0
C      1  0.4480160000000  0.4867460000000  0.5038870000000 1.0
C      1  0.5519840000000  0.5047840000000  0.5129060000000 1.0
C      1  0.4480180000000  0.5138200000000  0.4948620000000 1.0
C      1  0.4952510000000  0.4475890000000  0.4850390000000 1.0
C      1  0.5047430000000  0.4859440000000  0.5520600000000 1.0
C      1  0.4952640000000  0.5529660000000  0.5137050000000 1.0
C      1  0.5047410000000  0.5146090000000  0.4466830000000 1.0
C      1  0.4514460000000  0.4772750000000  0.5303710000000 1.0
C      1  0.5485580000000  0.5312690000000  0.5223770000000 1.0
C      1  0.4514480000000  0.5232900000000  0.4683780000000 1.0
C      1  0.5485490000000  0.4692750000000  0.4763620000000 1.0
C      1  0.5519510000000  0.5149150000000  0.4637920000000 1.0
C      1  0.4480440000000  0.4647060000000  0.4847310000000 1.0
C      1  0.5519510000000  0.4856280000000  0.5349460000000 1.0
C      1  0.4480540000000  0.5358600000000  0.5140180000000 1.0
C      1  0.5062900000000  0.4323610000000  0.4615410000000 1.0
C      1  0.4937000000000  0.4624480000000  0.5672880000000 1.0
C      1  0.5063090000000  0.5681920000000  0.5372010000000 1.0
C      1  0.4937010000000  0.5381080000000  0.4314560000000 1.0
C      1  0.5452530000000  0.4529460000000  0.4999290000000 1.0
C      1  0.4547440000000  0.5008420000000  0.5467000000000 1.0
C      1  0.5452630000000  0.5475980000000  0.4988100000000 1.0
C      1  0.4547390000000  0.4997220000000  0.4520480000000 1.0
C      1  0.5328790000000  0.4994790000000  0.5539010000000 1.0
C      1  0.4671300000000  0.5548120000000  0.5001680000000 1.0
C      1  0.5328740000000  0.5010680000000  0.4448390000000 1.0
C      1  0.4671180000000  0.4457490000000  0.4985790000000 1.0
C      1  0.4780680000000  0.5561310000000  0.4457280000000 1.0
C      1  0.5219270000000  0.4466300000000  0.4435190000000 1.0
C      1  0.4780620000000  0.4444280000000  0.5530180000000 1.0
C      1  0.5219440000000  0.5539190000000  0.5552220000000 1.0
C      1  0.5087350000000  0.4714330000000  0.5249980000000 1.0
C      1  0.4912670000000  0.5259050000000  0.5282160000000 1.0
C      1  0.5087390000000  0.5291200000000  0.4737450000000 1.0
C      1  0.4912590000000  0.4746510000000  0.4705280000000 1.0
C      1  0.4354110000000  0.5216300000000  0.5364850000000 1.0
C      1  0.5645960000000  0.5373800000000  0.4780230000000 1.0
C      1  0.4354030000000  0.4789390000000  0.4622650000000 1.0
C      1  0.5645900000000  0.4631600000000  0.5207140000000 1.0
C      1  0.5359850000000  0.5298350000000  0.5489330000000 1.0
C      1  0.4640250000000  0.5498440000000  0.4698120000000 1.0
C      1  0.5359730000000  0.4707120000000  0.4498070000000 1.0
C      1  0.4640170000000  0.4507180000000  0.5289350000000 1.0
C      1  0.4098850000000  0.4895660000000  0.4746680000000 1.0
C      1  0.5901100000000  0.4755590000000  0.5100880000000 1.0
C      1  0.4098900000000  0.5110080000000  0.5240850000000 1.0
C      1  0.5901150000000  0.5249760000000  0.4886460000000 1.0
C      1  0.4023580000000  0.5002880000000  0.4993770000000 1.0
C      1  0.5976420000000  0.5002670000000  0.4993670000000 1.0
END
