TITL C-3623287-7182-456 70.9308921734978 125000 -351.195704409211 0 0 61 (C1) n - 1
REM
REM in /home/nfs/bkarasulu/CARBON/AIRSS/Generating-Clusters/LCBOP/Higher-Symm/SD-CG/FIRE-CG
REM
REM
REM
REM
REM
REM ./C.cell (b20cbc046b6831c77cfcea5457e17084)
REM AIRSS Version 0.9.1 bugfix July 2018 build 013d7b7c2542+ Fri, 06 Jul 2018 19:26:36 +0100
REM compiler GCC version 9.2.1 20190827 (Red Hat 9.2.1-1)
REM options -cpp -mtune=generic -march=x86-64 -g -O0 -fpre-include=/usr/include/finclude/math-vector-fortran.h
REM seed 484989602 607097498 -1284004978 1731909022 -1740710379 -1704484545 1189927279 667375963 739065330 818234773 2118542913 -1044669356 329421161 -340249813 1708132222 2135031678 -1488498909 -1510515904 -1316052258 -653663781 1398614282 -1129080129 539365892 -250060089 1927241144 -419518815 -841923442 776687124 -1160456211 -1138602543 1950176179 906733570 -737869515
REM
CELL 1.54180   50.00000   50.00000   50.00000   90.00000   90.00000   90.00000
LATT -1
SFAC C  
C      1  0.5019010000000  0.5414830000000  0.5538850000000 1.0
C      1  0.4558580000000  0.5006160000000  0.5564590000000 1.0
C      1  0.4989770000000  0.4574820000000  0.5538090000000 1.0
C      1  0.5442340000000  0.4983710000000  0.5563090000000 1.0
C      1  0.4992280000000  0.5270270000000  0.5028930000000 1.0
C      1  0.4665920000000  0.4991680000000  0.5114280000000 1.0
C      1  0.5015910000000  0.4719060000000  0.5029050000000 1.0
C      1  0.5342470000000  0.4998700000000  0.5113050000000 1.0
C      1  0.5493530000000  0.4836360000000  0.4702480000000 1.0
C      1  0.5207940000000  0.5485200000000  0.4680470000000 1.0
C      1  0.4516260000000  0.5153690000000  0.4702280000000 1.0
C      1  0.4796000000000  0.4503020000000  0.4683380000000 1.0
C      1  0.5183070000000  0.4498700000000  0.5098160000000 1.0
C      1  0.5561970000000  0.5180650000000  0.5158490000000 1.0
C      1  0.4824730000000  0.5489580000000  0.5100520000000 1.0
C      1  0.4446150000000  0.4809270000000  0.5158250000000 1.0
C      1  0.5157790000000  0.5235330000000  0.4801250000000 1.0
C      1  0.4711010000000  0.5004040000000  0.4841890000000 1.0
C      1  0.4848700000000  0.4752800000000  0.4803150000000 1.0
C      1  0.5296850000000  0.4984880000000  0.4840780000000 1.0
C      1  0.4585160000000  0.4072950000000  0.4786120000000 1.0
C      1  0.5882970000000  0.4545890000000  0.4764060000000 1.0
C      1  0.5420440000000  0.5915090000000  0.4781430000000 1.0
C      1  0.4125440000000  0.5442740000000  0.4762340000000 1.0
C      1  0.4724580000000  0.4523940000000  0.5410420000000 1.0
C      1  0.5480780000000  0.4718770000000  0.5411320000000 1.0
C      1  0.5282750000000  0.5467300000000  0.5408650000000 1.0
C      1  0.4525240000000  0.5270500000000  0.5412140000000 1.0
C      1  0.4991750000000  0.5486300000000  0.4479670000000 1.0
C      1  0.4485040000000  0.4969460000000  0.4472940000000 1.0
C      1  0.5007310000000  0.4503520000000  0.4477520000000 1.0
C      1  0.5526820000000  0.5020510000000  0.4474450000000 1.0
C      1  0.5655410000000  0.4693000000000  0.5172070000000 1.0
C      1  0.5304030000000  0.5628560000000  0.5162000000000 1.0
C      1  0.4352300000000  0.5297170000000  0.5171440000000 1.0
C      1  0.4702570000000  0.4360880000000  0.5165090000000 1.0
C      1  0.4735380000000  0.5646520000000  0.4880520000000 1.0
C      1  0.4315990000000  0.4725420000000  0.4904080000000 1.0
C      1  0.5270570000000  0.4344250000000  0.4875380000000 1.0
C      1  0.5693510000000  0.5264720000000  0.4905920000000 1.0
C      1  0.5312010000000  0.5679690000000  0.4872530000000 1.0
C      1  0.4330960000000  0.5299850000000  0.4876910000000 1.0
C      1  0.4693340000000  0.4308850000000  0.4876080000000 1.0
C      1  0.5677750000000  0.4689830000000  0.4877800000000 1.0
C      1  0.5225580000000  0.4362340000000  0.4604230000000 1.0
C      1  0.5676360000000  0.5236730000000  0.4622030000000 1.0
C      1  0.4777110000000  0.5630110000000  0.4608980000000 1.0
C      1  0.4334800000000  0.4752730000000  0.4619650000000 1.0
C      1  0.4766080000000  0.5004680000000  0.5756060000000 1.0
C      1  0.5000220000000  0.4773610000000  0.5741900000000 1.0
C      1  0.5221350000000  0.4986020000000  0.5743820000000 1.0
C      1  0.5016830000000  0.5215140000000  0.5742220000000 1.0
C      1  0.5016700000000  0.4759360000000  0.4338370000000 1.0
C      1  0.5257750000000  0.5018490000000  0.4335080000000 1.0
C      1  0.4973940000000  0.5231820000000  0.4340770000000 1.0
C      1  0.4764750000000  0.4975050000000  0.4338300000000 1.0
C      1  0.4511960000000  0.4736540000000  0.5431800000000 1.0
C      1  0.5238900000000  0.4543310000000  0.5380930000000 1.0
C      1  0.5494360000000  0.5253950000000  0.5431510000000 1.0
C      1  0.4768850000000  0.5443880000000  0.5383130000000 1.0
C      1  0.5004330000000  0.4994580000000  0.5212190000000 1.0
END
