TITL C-3623287-7182-489 -10654.1316020609 125000 -844.87261171399 0 0 143 (C1) n - 1
REM
REM in /home/nfs/bkarasulu/CARBON/AIRSS/Generating-Clusters/LCBOP/Higher-Symm/SD-CG/FIRE-CG
REM
REM
REM
REM
REM
REM ./C.cell (b20cbc046b6831c77cfcea5457e17084)
REM AIRSS Version 0.9.1 bugfix July 2018 build 013d7b7c2542+ Fri, 06 Jul 2018 19:26:36 +0100
REM compiler GCC version 9.2.1 20190827 (Red Hat 9.2.1-1)
REM options -cpp -mtune=generic -march=x86-64 -g -O0 -fpre-include=/usr/include/finclude/math-vector-fortran.h
REM seed -1037616271 855147176 -1657989821 845251945 -1899677742 -73218366 382077692 -457856631 -486937674 -1056562714 510745498 -1240499076 1725317056 -1755252788 180369942 786767514 644349111 -429836847 -1544952254 1034878195 -2027682646 1169968805 -1465362954 1422672903 105464954 2017671234 -274755214 -728776134 1962301236 913466918 -1642951547 402758989 -768351290
REM
CELL 1.54180   50.00000   50.00000   50.00000   90.00000   90.00000   90.00000
LATT -1
SFAC C  
C      1  0.5079780000000  0.5620930000000  0.4509970000000 1.0
C      1  0.5154750000000  0.5748490000000  0.5230520000000 1.0
C      1  0.4980510000000  0.5098230000000  0.4345510000000 1.0
C      1  0.5014360000000  0.4999790000000  0.5797990000000 1.0
C      1  0.4349180000000  0.5915830000000  0.4410990000000 1.0
C      1  0.4541250000000  0.5968760000000  0.5475950000000 1.0
C      1  0.5061880000000  0.5062830000000  0.4649060000000 1.0
C      1  0.5122150000000  0.4908450000000  0.5555810000000 1.0
C      1  0.4884660000000  0.5506210000000  0.6161460000000 1.0
C      1  0.4775200000000  0.5389390000000  0.3782220000000 1.0
C      1  0.3895080000000  0.5422570000000  0.5677540000000 1.0
C      1  0.3840190000000  0.5215670000000  0.4453050000000 1.0
C      1  0.4748480000000  0.5229460000000  0.4247400000000 1.0
C      1  0.4816680000000  0.5211930000000  0.5788610000000 1.0
C      1  0.5615800000000  0.4705490000000  0.5771910000000 1.0
C      1  0.5619510000000  0.5062090000000  0.4389680000000 1.0
C      1  0.6003110000000  0.3828270000000  0.4798950000000 1.0
C      1  0.5559740000000  0.3786420000000  0.4628170000000 1.0
C      1  0.4786940000000  0.4048400000000  0.5403440000000 1.0
C      1  0.4868450000000  0.4064860000000  0.4570910000000 1.0
C      1  0.4089440000000  0.5212420000000  0.4529950000000 1.0
C      1  0.4127540000000  0.5351980000000  0.5583120000000 1.0
C      1  0.5854370000000  0.5023300000000  0.4565710000000 1.0
C      1  0.5828230000000  0.4677780000000  0.5575760000000 1.0
C      1  0.5274220000000  0.4735680000000  0.4146320000000 1.0
C      1  0.5165720000000  0.4537810000000  0.5965380000000 1.0
C      1  0.4503770000000  0.5371630000000  0.5269330000000 1.0
C      1  0.4529130000000  0.5273640000000  0.4756780000000 1.0
C      1  0.5715080000000  0.4591010000000  0.4277380000000 1.0
C      1  0.5482790000000  0.4251350000000  0.5677360000000 1.0
C      1  0.4405230000000  0.4933270000000  0.4106210000000 1.0
C      1  0.4440800000000  0.4925670000000  0.5877470000000 1.0
C      1  0.5798200000000  0.4917900000000  0.4828030000000 1.0
C      1  0.5841370000000  0.4793350000000  0.5314990000000 1.0
C      1  0.4862590000000  0.5479180000000  0.5881720000000 1.0
C      1  0.4756520000000  0.5437400000000  0.4055440000000 1.0
C      1  0.5073340000000  0.4809920000000  0.6001850000000 1.0
C      1  0.5108680000000  0.4956800000000  0.4147390000000 1.0
C      1  0.6106310000000  0.5066790000000  0.4468470000000 1.0
C      1  0.6048660000000  0.4531780000000  0.5655700000000 1.0
C      1  0.4452700000000  0.4676410000000  0.5981380000000 1.0
C      1  0.4497300000000  0.4692670000000  0.4027710000000 1.0
C      1  0.5082020000000  0.4635460000000  0.5476100000000 1.0
C      1  0.5136770000000  0.4711280000000  0.4660900000000 1.0
C      1  0.4356480000000  0.4399250000000  0.5609790000000 1.0
C      1  0.4491200000000  0.4496080000000  0.4462280000000 1.0
C      1  0.4887880000000  0.5723060000000  0.5729160000000 1.0
C      1  0.4747350000000  0.5696700000000  0.4163690000000 1.0
C      1  0.4614870000000  0.4501390000000  0.4196300000000 1.0
C      1  0.4483560000000  0.4414730000000  0.5874170000000 1.0
C      1  0.3966120000000  0.4267010000000  0.5255210000000 1.0
C      1  0.4025410000000  0.4329280000000  0.4713820000000 1.0
C      1  0.5347130000000  0.5086670000000  0.4883540000000 1.0
C      1  0.5179200000000  0.5035320000000  0.5314720000000 1.0
C      1  0.4753510000000  0.5797200000000  0.5484730000000 1.0
C      1  0.4505820000000  0.5826490000000  0.4214740000000 1.0
C      1  0.4881660000000  0.4116120000000  0.4294600000000 1.0
C      1  0.4766130000000  0.4069070000000  0.5681080000000 1.0
C      1  0.5490040000000  0.5324670000000  0.4417990000000 1.0
C      1  0.5616590000000  0.4931150000000  0.5929290000000 1.0
C      1  0.5662560000000  0.4160200000000  0.5189190000000 1.0
C      1  0.5607040000000  0.4390910000000  0.4731430000000 1.0
C      1  0.5634670000000  0.5845990000000  0.5092620000000 1.0
C      1  0.5491810000000  0.5798580000000  0.4644250000000 1.0
C      1  0.5586320000000  0.4152770000000  0.5447720000000 1.0
C      1  0.5731880000000  0.4420300000000  0.4482250000000 1.0
C      1  0.4745630000000  0.3902310000000  0.4757950000000 1.0
C      1  0.4727020000000  0.3871330000000  0.5195970000000 1.0
C      1  0.4973610000000  0.4332760000000  0.6038820000000 1.0
C      1  0.5138700000000  0.4484760000000  0.4074130000000 1.0
C      1  0.4494820000000  0.5118630000000  0.4297330000000 1.0
C      1  0.4545040000000  0.5138240000000  0.5719580000000 1.0
C      1  0.4893120000000  0.4274700000000  0.5258950000000 1.0
C      1  0.4990310000000  0.4274890000000  0.4723990000000 1.0
C      1  0.5423150000000  0.4490610000000  0.5822790000000 1.0
C      1  0.5538220000000  0.4809340000000  0.4245260000000 1.0
C      1  0.4870090000000  0.5673220000000  0.5231450000000 1.0
C      1  0.4909090000000  0.5554750000000  0.4729850000000 1.0
C      1  0.5395010000000  0.4600040000000  0.4818130000000 1.0
C      1  0.5298250000000  0.4534790000000  0.5320100000000 1.0
C      1  0.4389420000000  0.5279260000000  0.5515670000000 1.0
C      1  0.4367760000000  0.5194610000000  0.4538230000000 1.0
C      1  0.5209480000000  0.6112590000000  0.5924900000000 1.0
C      1  0.5130680000000  0.5984130000000  0.4178480000000 1.0
C      1  0.4801350000000  0.5331520000000  0.3529500000000 1.0
C      1  0.4933010000000  0.5518340000000  0.6417270000000 1.0
C      1  0.4736510000000  0.4266580000000  0.5885970000000 1.0
C      1  0.4876800000000  0.4375240000000  0.4165870000000 1.0
C      1  0.4795700000000  0.5384560000000  0.5278640000000 1.0
C      1  0.4847100000000  0.5254390000000  0.4775400000000 1.0
C      1  0.4124300000000  0.4294000000000  0.5479990000000 1.0
C      1  0.4230150000000  0.4391960000000  0.4537000000000 1.0
C      1  0.5271290000000  0.4328580000000  0.3886790000000 1.0
C      1  0.5019540000000  0.4192290000000  0.6271130000000 1.0
C      1  0.4939050000000  0.4536960000000  0.4639670000000 1.0
C      1  0.4819580000000  0.4548550000000  0.5347990000000 1.0
C      1  0.4987350000000  0.5778880000000  0.4288830000000 1.0
C      1  0.5065200000000  0.5916350000000  0.5832240000000 1.0
C      1  0.5366960000000  0.5568190000000  0.4520500000000 1.0
C      1  0.5406100000000  0.5833910000000  0.5230150000000 1.0
C      1  0.4545900000000  0.4545480000000  0.5455750000000 1.0
C      1  0.4668960000000  0.4607890000000  0.4659010000000 1.0
C      1  0.4750720000000  0.5681650000000  0.4943320000000 1.0
C      1  0.6240690000000  0.4890860000000  0.5047450000000 1.0
C      1  0.4602320000000  0.4662620000000  0.4925350000000 1.0
C      1  0.4058030000000  0.4894780000000  0.5063530000000 1.0
C      1  0.5131220000000  0.6215720000000  0.4762630000000 1.0
C      1  0.4793920000000  0.4739480000000  0.5118780000000 1.0
C      1  0.5324380000000  0.6031680000000  0.4666310000000 1.0
C      1  0.3959090000000  0.5700440000000  0.4977390000000 1.0
C      1  0.4472460000000  0.5457650000000  0.4982830000000 1.0
C      1  0.5708680000000  0.5789640000000  0.4826620000000 1.0
C      1  0.5358650000000  0.5180100000000  0.5153670000000 1.0
C      1  0.5225220000000  0.6454490000000  0.4875540000000 1.0
C      1  0.4356890000000  0.5974160000000  0.4686290000000 1.0
C      1  0.3962890000000  0.4395070000000  0.4993610000000 1.0
C      1  0.6401650000000  0.4663870000000  0.5066190000000 1.0
C      1  0.4868760000000  0.5211050000000  0.5067480000000 1.0
C      1  0.5560960000000  0.5329020000000  0.5256900000000 1.0
C      1  0.4393680000000  0.4501550000000  0.5015550000000 1.0
C      1  0.4136920000000  0.4627900000000  0.5038280000000 1.0
C      1  0.5278920000000  0.4442930000000  0.5055000000000 1.0
C      1  0.3738340000000  0.5836400000000  0.5068350000000 1.0
C      1  0.5747080000000  0.3922520000000  0.4774660000000 1.0
C      1  0.4555530000000  0.3954760000000  0.4969150000000 1.0
C      1  0.4166400000000  0.5851090000000  0.4855090000000 1.0
C      1  0.4850900000000  0.6173340000000  0.4759830000000 1.0
C      1  0.4953020000000  0.4963910000000  0.5148070000000 1.0
C      1  0.6198910000000  0.5595790000000  0.4814260000000 1.0
C      1  0.5673930000000  0.4166650000000  0.4904640000000 1.0
C      1  0.4588190000000  0.6116710000000  0.4769510000000 1.0
C      1  0.5957070000000  0.4867360000000  0.5062720000000 1.0
C      1  0.6337980000000  0.5393360000000  0.4915520000000 1.0
C      1  0.5970960000000  0.5722590000000  0.4764740000000 1.0
C      1  0.6352190000000  0.5143930000000  0.5005720000000 1.0
C      1  0.3964760000000  0.5418540000000  0.5012480000000 1.0
C      1  0.6533760000000  0.4439540000000  0.5077940000000 1.0
C      1  0.5074500000000  0.4216060000000  0.5012130000000 1.0
C      1  0.5032150000000  0.3899160000000  0.5006070000000 1.0
C      1  0.5316550000000  0.6663020000000  0.5002410000000 1.0
C      1  0.4428600000000  0.4210660000000  0.4998630000000 1.0
C      1  0.3986100000000  0.5153240000000  0.5051990000000 1.0
C      1  0.5523590000000  0.4867600000000  0.4858040000000 1.0
END
