TITL C-3623289-7120-978 9.71843114568246e-07 125000 -885.812124661495 0 0 142 (C1) n - 1
REM
REM in /home/nfs/bkarasulu/CARBON/AIRSS/Generating-Clusters/LCBOP/Higher-Symm/SD-CG/FIRE-CG
REM
REM
REM
REM
REM
REM ./C.cell (b20cbc046b6831c77cfcea5457e17084)
REM AIRSS Version 0.9.1 bugfix July 2018 build 013d7b7c2542+ Fri, 06 Jul 2018 19:26:36 +0100
REM compiler GCC version 9.2.1 20190827 (Red Hat 9.2.1-1)
REM options -cpp -mtune=generic -march=x86-64 -g -O0 -fpre-include=/usr/include/finclude/math-vector-fortran.h
REM seed 160200948 -2126202312 590788289 -782885399 107728632 -240306566 764479767 1633829363 -1976774140 458772311 74369135 -1972236159 1799609478 1402868934 -437816326 -2060982473 -1219773250 -1992365084 750403769 153124252 -2026544389 449095694 274265568 1189257045 1134878789 2003490057 1599459963 -77954604 -740952182 -382686222 -2075982253 -908031560 817599988
REM
CELL 1.54180   50.00000   50.00000   50.00000   90.00000   90.00000   90.00000
LATT -1
SFAC C  
C      1  0.5456800000000  0.5221850000000  0.4934490000000 1.0
C      1  0.4923670000000  0.4519050000000  0.4972290000000 1.0
C      1  0.4614450000000  0.5308100000000  0.4950860000000 1.0
C      1  0.5307430000000  0.5006890000000  0.5344250000000 1.0
C      1  0.4741700000000  0.4733830000000  0.5384020000000 1.0
C      1  0.4885100000000  0.5358320000000  0.5354350000000 1.0
C      1  0.5329110000000  0.5231180000000  0.5188580000000 1.0
C      1  0.4960600000000  0.4634190000000  0.5234640000000 1.0
C      1  0.4679680000000  0.5219020000000  0.5219220000000 1.0
C      1  0.4310520000000  0.5264130000000  0.4175210000000 1.0
C      1  0.5590600000000  0.5452520000000  0.4191410000000 1.0
C      1  0.5132180000000  0.4241750000000  0.4240440000000 1.0
C      1  0.5808680000000  0.5431520000000  0.5825650000000 1.0
C      1  0.4879510000000  0.4063430000000  0.5819960000000 1.0
C      1  0.4283050000000  0.5493420000000  0.5797720000000 1.0
C      1  0.5313460000000  0.5037490000000  0.4758300000000 1.0
C      1  0.4880830000000  0.4730730000000  0.4775240000000 1.0
C      1  0.4826210000000  0.5246200000000  0.4761440000000 1.0
C      1  0.5707780000000  0.5369970000000  0.4844530000000 1.0
C      1  0.4931700000000  0.4228270000000  0.4875290000000 1.0
C      1  0.4366460000000  0.5452790000000  0.4841010000000 1.0
C      1  0.5547980000000  0.4862520000000  0.4021590000000 1.0
C      1  0.4680900000000  0.4599170000000  0.4019880000000 1.0
C      1  0.4850010000000  0.5497920000000  0.3952270000000 1.0
C      1  0.5168840000000  0.6013770000000  0.4660480000000 1.0
C      1  0.5737920000000  0.4405120000000  0.4827930000000 1.0
C      1  0.4049230000000  0.4666320000000  0.4696560000000 1.0
C      1  0.4547050000000  0.4911370000000  0.4537520000000 1.0
C      1  0.5151650000000  0.5429920000000  0.4504470000000 1.0
C      1  0.5296850000000  0.4627000000000  0.4564020000000 1.0
C      1  0.5460680000000  0.5858560000000  0.5214090000000 1.0
C      1  0.5439770000000  0.4183310000000  0.5314720000000 1.0
C      1  0.4050620000000  0.5031040000000  0.5240280000000 1.0
C      1  0.4071860000000  0.5009840000000  0.4603750000000 1.0
C      1  0.5462950000000  0.5820740000000  0.4586800000000 1.0
C      1  0.5473360000000  0.4201760000000  0.4692580000000 1.0
C      1  0.4595640000000  0.4568680000000  0.5566180000000 1.0
C      1  0.4830890000000  0.5542180000000  0.5563790000000 1.0
C      1  0.5504930000000  0.4966630000000  0.5535650000000 1.0
C      1  0.4985440000000  0.5499480000000  0.5809890000000 1.0
C      1  0.5416840000000  0.4729470000000  0.5677290000000 1.0
C      1  0.4551580000000  0.4670350000000  0.5828430000000 1.0
C      1  0.6134010000000  0.5255240000000  0.4611070000000 1.0
C      1  0.4629870000000  0.3916840000000  0.4627340000000 1.0
C      1  0.4299630000000  0.5878510000000  0.4580430000000 1.0
C      1  0.5113240000000  0.5581620000000  0.4996410000000 1.0
C      1  0.5400820000000  0.4635920000000  0.5096640000000 1.0
C      1  0.4459280000000  0.4855950000000  0.5038440000000 1.0
C      1  0.5142310000000  0.5510180000000  0.3996230000000 1.0
C      1  0.5435370000000  0.4592060000000  0.4060010000000 1.0
C      1  0.4497390000000  0.4830570000000  0.4025650000000 1.0
C      1  0.4959980000000  0.4429310000000  0.6148470000000 1.0
C      1  0.4597940000000  0.5264040000000  0.6131900000000 1.0
C      1  0.5566640000000  0.5066110000000  0.6056010000000 1.0
C      1  0.5210510000000  0.4044320000000  0.5338270000000 1.0
C      1  0.4050440000000  0.5294270000000  0.5296720000000 1.0
C      1  0.5692480000000  0.5744070000000  0.5287230000000 1.0
C      1  0.5462470000000  0.5701920000000  0.4318660000000 1.0
C      1  0.5411760000000  0.4226330000000  0.4397630000000 1.0
C      1  0.4166740000000  0.5043000000000  0.4328190000000 1.0
C      1  0.5005100000000  0.4665360000000  0.5993570000000 1.0
C      1  0.4790170000000  0.5097670000000  0.6000170000000 1.0
C      1  0.5280320000000  0.5059570000000  0.5979820000000 1.0
C      1  0.5498760000000  0.4516520000000  0.4350050000000 1.0
C      1  0.4377340000000  0.4813960000000  0.4310580000000 1.0
C      1  0.5163200000000  0.5630000000000  0.4282320000000 1.0
C      1  0.4482840000000  0.5118280000000  0.3968790000000 1.0
C      1  0.5392160000000  0.5353700000000  0.3984960000000 1.0
C      1  0.5173740000000  0.4459420000000  0.4026960000000 1.0
C      1  0.4928660000000  0.4031690000000  0.5334780000000 1.0
C      1  0.4193250000000  0.5537290000000  0.5311250000000 1.0
C      1  0.5840290000000  0.5506560000000  0.5317390000000 1.0
C      1  0.4361820000000  0.4507360000000  0.4345190000000 1.0
C      1  0.4914800000000  0.5805770000000  0.4294910000000 1.0
C      1  0.5737060000000  0.4700640000000  0.4421540000000 1.0
C      1  0.5353060000000  0.5073250000000  0.4012670000000 1.0
C      1  0.4957440000000  0.4651390000000  0.4035930000000 1.0
C      1  0.4741460000000  0.5237110000000  0.3985160000000 1.0
C      1  0.5024280000000  0.4680950000000  0.4517690000000 1.0
C      1  0.4709560000000  0.5141220000000  0.4505640000000 1.0
C      1  0.5265020000000  0.5166450000000  0.4485080000000 1.0
C      1  0.4378610000000  0.5614270000000  0.4563670000000 1.0
C      1  0.5860190000000  0.5279590000000  0.4590780000000 1.0
C      1  0.4799180000000  0.4134200000000  0.4612080000000 1.0
C      1  0.4697460000000  0.5458460000000  0.6314760000000 1.0
C      1  0.5733180000000  0.4822200000000  0.6021730000000 1.0
C      1  0.4740470000000  0.4433900000000  0.6330850000000 1.0
C      1  0.4606280000000  0.5710420000000  0.5474390000000 1.0
C      1  0.5761730000000  0.5077200000000  0.5482510000000 1.0
C      1  0.4568460000000  0.4296060000000  0.5480120000000 1.0
C      1  0.4184860000000  0.4822640000000  0.5109740000000 1.0
C      1  0.5222570000000  0.5834440000000  0.5070230000000 1.0
C      1  0.5581790000000  0.4444460000000  0.5279100000000 1.0
C      1  0.5621400000000  0.4541900000000  0.5628370000000 1.0
C      1  0.4385160000000  0.4553190000000  0.6025410000000 1.0
C      1  0.4981870000000  0.5700420000000  0.6011970000000 1.0
C      1  0.5235440000000  0.4155910000000  0.4841890000000 1.0
C      1  0.4145970000000  0.5229910000000  0.4770660000000 1.0
C      1  0.5617940000000  0.5665620000000  0.4768240000000 1.0
C      1  0.4609880000000  0.4395370000000  0.4227210000000 1.0
C      1  0.4696350000000  0.5658040000000  0.4162380000000 1.0
C      1  0.5734500000000  0.4937480000000  0.4246190000000 1.0
C      1  0.5700680000000  0.5313760000000  0.6041530000000 1.0
C      1  0.5004690000000  0.4181850000000  0.6024010000000 1.0
C      1  0.4362410000000  0.5333070000000  0.5995630000000 1.0
C      1  0.4340710000000  0.5605890000000  0.5549540000000 1.0
C      1  0.5818850000000  0.5352080000000  0.5559250000000 1.0
C      1  0.4775740000000  0.4108380000000  0.5566740000000 1.0
C      1  0.4448140000000  0.5519590000000  0.4292540000000 1.0
C      1  0.5740140000000  0.5228390000000  0.4331940000000 1.0
C      1  0.4845810000000  0.4244610000000  0.4349000000000 1.0
C      1  0.4506480000000  0.4241100000000  0.5190320000000 1.0
C      1  0.4581470000000  0.5809720000000  0.5180780000000 1.0
C      1  0.5889460000000  0.5025770000000  0.5216230000000 1.0
C      1  0.4478710000000  0.4463750000000  0.6264390000000 1.0
C      1  0.4857140000000  0.5668440000000  0.6251070000000 1.0
C      1  0.5796910000000  0.4607220000000  0.5851860000000 1.0
C      1  0.4808850000000  0.5180030000000  0.4256300000000 1.0
C      1  0.5197210000000  0.5022540000000  0.4249800000000 1.0
C      1  0.5017470000000  0.4815030000000  0.4264840000000 1.0
C      1  0.5117060000000  0.5403330000000  0.5207780000000 1.0
C      1  0.5204990000000  0.4766690000000  0.5245830000000 1.0
C      1  0.4616710000000  0.4948730000000  0.5254070000000 1.0
C      1  0.5437730000000  0.4757870000000  0.4793890000000 1.0
C      1  0.4585860000000  0.4790020000000  0.4788160000000 1.0
C      1  0.5016740000000  0.5477710000000  0.4747850000000 1.0
C      1  0.5944370000000  0.4748950000000  0.5146160000000 1.0
C      1  0.4276040000000  0.4354600000000  0.5053790000000 1.0
C      1  0.4772680000000  0.5974220000000  0.5029960000000 1.0
C      1  0.4126160000000  0.4474570000000  0.4500770000000 1.0
C      1  0.4979340000000  0.6031460000000  0.4450300000000 1.0
C      1  0.5724490000000  0.4675360000000  0.4708210000000 1.0
C      1  0.5049200000000  0.6011850000000  0.4930050000000 1.0
C      1  0.5831540000000  0.4475010000000  0.5109180000000 1.0
C      1  0.4113550000000  0.4586720000000  0.4968390000000 1.0
C      1  0.4768070000000  0.4822210000000  0.5939770000000 1.0
C      1  0.5042110000000  0.5229160000000  0.5921760000000 1.0
C      1  0.5238100000000  0.4782920000000  0.5889000000000 1.0
C      1  0.4333620000000  0.5652510000000  0.5079080000000 1.0
C      1  0.5881840000000  0.5312310000000  0.5096510000000 1.0
C      1  0.4767140000000  0.4105130000000  0.5102070000000 1.0
C      1  0.5008690000000  0.5005860000000  0.4842110000000 1.0
END
