TITL C-3623287-7182-200 -92.9993315438851 125000 -657.60562587125 0 0 108 (C1) n - 1
REM
REM in /home/nfs/bkarasulu/CARBON/AIRSS/Generating-Clusters/LCBOP/Higher-Symm/SD-CG/FIRE-CG
REM
REM
REM
REM
REM
REM ./C.cell (b20cbc046b6831c77cfcea5457e17084)
REM AIRSS Version 0.9.1 bugfix July 2018 build 013d7b7c2542+ Fri, 06 Jul 2018 19:26:36 +0100
REM compiler GCC version 9.2.1 20190827 (Red Hat 9.2.1-1)
REM options -cpp -mtune=generic -march=x86-64 -g -O0 -fpre-include=/usr/include/finclude/math-vector-fortran.h
REM seed 13990241 2086202024 -789053606 691925260 1151761888 -86605822 -1538388540 541490903 -1845210721 70838001 1490360854 -1048065037 899707498 280089018 -458100538 -1915856721 -992210056 1723716357 1876045771 -537032027 872569472 218689275 -1573522478 788388146 -1116431225 980684671 -1343422619 672806349 956803993 60270338 -207885465 191464656 1565548144
REM
CELL 1.54180   50.00000   50.00000   50.00000   90.00000   90.00000   90.00000
LATT -1
SFAC C  
C      1  0.5038900000000  0.5088970000000  0.4030950000000 1.0
C      1  0.5777290000000  0.4979010000000  0.4025500000000 1.0
C      1  0.5334990000000  0.4773370000000  0.5962390000000 1.0
C      1  0.4628700000000  0.5805230000000  0.4949220000000 1.0
C      1  0.5409420000000  0.5889120000000  0.5144930000000 1.0
C      1  0.5399530000000  0.5130680000000  0.4603590000000 1.0
C      1  0.4793450000000  0.4041350000000  0.5676030000000 1.0
C      1  0.5373450000000  0.4913140000000  0.5298760000000 1.0
C      1  0.4339380000000  0.4942450000000  0.5804400000000 1.0
C      1  0.4818450000000  0.4864780000000  0.6029930000000 1.0
C      1  0.4561070000000  0.5072920000000  0.5286470000000 1.0
C      1  0.5776840000000  0.5320800000000  0.4970750000000 1.0
C      1  0.4609490000000  0.4376480000000  0.4790730000000 1.0
C      1  0.4075950000000  0.4177020000000  0.4781140000000 1.0
C      1  0.4878890000000  0.4584330000000  0.5540200000000 1.0
C      1  0.4611580000000  0.4464020000000  0.5524130000000 1.0
C      1  0.4568230000000  0.4908100000000  0.5941370000000 1.0
C      1  0.5124920000000  0.5224470000000  0.5672910000000 1.0
C      1  0.4972660000000  0.4073690000000  0.5206700000000 1.0
C      1  0.5073350000000  0.5381100000000  0.4895560000000 1.0
C      1  0.4940790000000  0.5718560000000  0.5629890000000 1.0
C      1  0.5232560000000  0.4169140000000  0.4745640000000 1.0
C      1  0.5082840000000  0.4817520000000  0.6048160000000 1.0
C      1  0.5211160000000  0.4489460000000  0.5081150000000 1.0
C      1  0.4219540000000  0.4928070000000  0.4643780000000 1.0
C      1  0.4226550000000  0.4424610000000  0.5164770000000 1.0
C      1  0.4588040000000  0.4224280000000  0.5679720000000 1.0
C      1  0.4525200000000  0.4372330000000  0.4537780000000 1.0
C      1  0.5035020000000  0.4659530000000  0.4660580000000 1.0
C      1  0.4911200000000  0.5412690000000  0.5322490000000 1.0
C      1  0.4067910000000  0.4637740000000  0.5060930000000 1.0
C      1  0.4765250000000  0.5648740000000  0.4360590000000 1.0
C      1  0.5675250000000  0.5456420000000  0.4751960000000 1.0
C      1  0.4155710000000  0.4991300000000  0.5613720000000 1.0
C      1  0.5644630000000  0.4707990000000  0.4539750000000 1.0
C      1  0.4788150000000  0.5344080000000  0.4853360000000 1.0
C      1  0.5470890000000  0.5410640000000  0.4548080000000 1.0
C      1  0.6028890000000  0.4725860000000  0.5339040000000 1.0
C      1  0.5618590000000  0.5446530000000  0.5650050000000 1.0
C      1  0.5373010000000  0.4519760000000  0.5550390000000 1.0
C      1  0.4710090000000  0.5258980000000  0.5407390000000 1.0
C      1  0.4994530000000  0.6109010000000  0.5060680000000 1.0
C      1  0.5542690000000  0.6532130000000  0.4820480000000 1.0
C      1  0.5343290000000  0.5643340000000  0.5261550000000 1.0
C      1  0.4381260000000  0.6106720000000  0.4645720000000 1.0
C      1  0.5269500000000  0.4091560000000  0.4478140000000 1.0
C      1  0.4949050000000  0.4369390000000  0.5137680000000 1.0
C      1  0.4491660000000  0.4475940000000  0.5262700000000 1.0
C      1  0.4967890000000  0.5457600000000  0.4326400000000 1.0
C      1  0.4586880000000  0.5524140000000  0.4987080000000 1.0
C      1  0.5412110000000  0.6329140000000  0.4929590000000 1.0
C      1  0.5165930000000  0.3997560000000  0.4975480000000 1.0
C      1  0.4869310000000  0.5201950000000  0.4227330000000 1.0
C      1  0.4499100000000  0.5033920000000  0.5015760000000 1.0
C      1  0.5146540000000  0.5516320000000  0.5672430000000 1.0
C      1  0.4390990000000  0.5110460000000  0.4458340000000 1.0
C      1  0.4687600000000  0.4440280000000  0.5052900000000 1.0
C      1  0.5843790000000  0.4932720000000  0.5378210000000 1.0
C      1  0.5245980000000  0.5156260000000  0.4840710000000 1.0
C      1  0.5819270000000  0.5141680000000  0.5174150000000 1.0
C      1  0.4240480000000  0.5017220000000  0.4919700000000 1.0
C      1  0.5023700000000  0.4112000000000  0.5515430000000 1.0
C      1  0.4032320000000  0.4398110000000  0.4625810000000 1.0
C      1  0.5386240000000  0.4614800000000  0.5278370000000 1.0
C      1  0.4646550000000  0.5029180000000  0.4321210000000 1.0
C      1  0.4810560000000  0.5857860000000  0.5430500000000 1.0
C      1  0.5110200000000  0.4391770000000  0.5584080000000 1.0
C      1  0.5164730000000  0.4996190000000  0.5502900000000 1.0
C      1  0.4973800000000  0.4655030000000  0.4381450000000 1.0
C      1  0.5275580000000  0.6114910000000  0.5042420000000 1.0
C      1  0.4711450000000  0.4749050000000  0.4309380000000 1.0
C      1  0.4152930000000  0.5352970000000  0.5284590000000 1.0
C      1  0.5112300000000  0.4473940000000  0.4216000000000 1.0
C      1  0.5499080000000  0.4717830000000  0.5733340000000 1.0
C      1  0.4088290000000  0.4662960000000  0.4689800000000 1.0
C      1  0.4882800000000  0.4840980000000  0.4833440000000 1.0
C      1  0.4984310000000  0.4855630000000  0.5102900000000 1.0
C      1  0.5812170000000  0.4509880000000  0.4594110000000 1.0
C      1  0.5515570000000  0.4933420000000  0.4437840000000 1.0
C      1  0.5244350000000  0.5515360000000  0.4400420000000 1.0
C      1  0.4368640000000  0.5404230000000  0.4485110000000 1.0
C      1  0.5212340000000  0.4461230000000  0.4793530000000 1.0
C      1  0.5801900000000  0.6934950000000  0.4603750000000 1.0
C      1  0.6012830000000  0.4981380000000  0.3914030000000 1.0
C      1  0.5988460000000  0.4379760000000  0.4744380000000 1.0
C      1  0.5529840000000  0.4973180000000  0.4154320000000 1.0
C      1  0.6129100000000  0.4519470000000  0.5205150000000 1.0
C      1  0.4214170000000  0.4163020000000  0.5030940000000 1.0
C      1  0.4077170000000  0.5083570000000  0.5356990000000 1.0
C      1  0.4429040000000  0.3980870000000  0.5094570000000 1.0
C      1  0.4521150000000  0.4543260000000  0.4330010000000 1.0
C      1  0.4518660000000  0.5653730000000  0.4499880000000 1.0
C      1  0.5673380000000  0.6735210000000  0.4711230000000 1.0
C      1  0.4504060000000  0.5868410000000  0.4696280000000 1.0
C      1  0.4786590000000  0.5940170000000  0.5151520000000 1.0
C      1  0.5678720000000  0.5197550000000  0.5736170000000 1.0
C      1  0.5397070000000  0.5577970000000  0.5536250000000 1.0
C      1  0.4708520000000  0.5067430000000  0.4831440000000 1.0
C      1  0.5247350000000  0.4981060000000  0.5054010000000 1.0
C      1  0.5293000000000  0.5011230000000  0.4010580000000 1.0
C      1  0.5689490000000  0.4932290000000  0.5629490000000 1.0
C      1  0.5121720000000  0.5497010000000  0.5150540000000 1.0
C      1  0.5223640000000  0.4231910000000  0.4252800000000 1.0
C      1  0.4067250000000  0.4911270000000  0.5127080000000 1.0
C      1  0.4342400000000  0.5472680000000  0.5131290000000 1.0
C      1  0.4942530000000  0.4826600000000  0.5400260000000 1.0
C      1  0.6115360000000  0.4380300000000  0.4978520000000 1.0
C      1  0.4693030000000  0.3945780000000  0.5156010000000 1.0
END
