TITL C-3623289-7120-1950 -130121.244962315 125000 -690.79812830982 0 0 118 (C1) n - 1
REM
REM in /home/nfs/bkarasulu/CARBON/AIRSS/Generating-Clusters/LCBOP/Higher-Symm/SD-CG/FIRE-CG
REM
REM
REM
REM
REM
REM ./C.cell (b20cbc046b6831c77cfcea5457e17084)
REM AIRSS Version 0.9.1 bugfix July 2018 build 013d7b7c2542+ Fri, 06 Jul 2018 19:26:36 +0100
REM compiler GCC version 9.2.1 20190827 (Red Hat 9.2.1-1)
REM options -cpp -mtune=generic -march=x86-64 -g -O0 -fpre-include=/usr/include/finclude/math-vector-fortran.h
REM seed -672620922 -312555282 1405268948 1729588384 1646292464 381488734 533571270 -30703792 2124412499 -1328294545 -1100603735 -1251273870 834212578 -469172064 1306314651 1978425301 866063545 1404600991 502840899 1720569158 -1659683016 -724690526 468605745 -2010495974 -1137208342 413757600 1843025129 517899509 -1793013247 2022968613 -543598419 -820808230 1023663676
REM
CELL 1.54180   50.00000   50.00000   50.00000   90.00000   90.00000   90.00000
LATT -1
SFAC C  
C      1  0.4741530000000  0.4252130000000  0.4410270000000 1.0
C      1  0.4759660000000  0.5679440000000  0.5581490000000 1.0
C      1  0.5311950000000  0.4249710000000  0.4395900000000 1.0
C      1  0.5298670000000  0.5645120000000  0.5565190000000 1.0
C      1  0.4743860000000  0.5690640000000  0.4414170000000 1.0
C      1  0.4743260000000  0.4245000000000  0.5592550000000 1.0
C      1  0.5274410000000  0.5624060000000  0.4440820000000 1.0
C      1  0.5312830000000  0.4260350000000  0.5592210000000 1.0
C      1  0.6221030000000  0.4970620000000  0.5152190000000 1.0
C      1  0.5503720000000  0.4842650000000  0.4854680000000 1.0
C      1  0.3692500000000  0.4916200000000  0.5125230000000 1.0
C      1  0.4436900000000  0.4962130000000  0.4872740000000 1.0
C      1  0.5490570000000  0.4844820000000  0.5143390000000 1.0
C      1  0.6232420000000  0.4965720000000  0.4882710000000 1.0
C      1  0.4424140000000  0.4914300000000  0.5160020000000 1.0
C      1  0.3703960000000  0.4923570000000  0.4855960000000 1.0
C      1  0.4607260000000  0.5540980000000  0.5797620000000 1.0
C      1  0.4661350000000  0.4487560000000  0.4270790000000 1.0
C      1  0.5430430000000  0.5565450000000  0.5816620000000 1.0
C      1  0.5386830000000  0.4489040000000  0.4254140000000 1.0
C      1  0.4659470000000  0.4476580000000  0.5737920000000 1.0
C      1  0.4612790000000  0.5547170000000  0.4188670000000 1.0
C      1  0.5385170000000  0.4499260000000  0.5733870000000 1.0
C      1  0.5419620000000  0.5543020000000  0.4195840000000 1.0
C      1  0.5301620000000  0.4048120000000  0.4859970000000 1.0
C      1  0.5301560000000  0.5904860000000  0.5131630000000 1.0
C      1  0.4764460000000  0.4050760000000  0.4864460000000 1.0
C      1  0.4774350000000  0.5963540000000  0.5134750000000 1.0
C      1  0.5296310000000  0.5901370000000  0.4860830000000 1.0
C      1  0.5301220000000  0.4054170000000  0.5131140000000 1.0
C      1  0.4771100000000  0.5973660000000  0.4857730000000 1.0
C      1  0.4763760000000  0.4049950000000  0.5133900000000 1.0
C      1  0.4427820000000  0.4652640000000  0.4382820000000 1.0
C      1  0.4372140000000  0.5315020000000  0.5648510000000 1.0
C      1  0.5623540000000  0.4647440000000  0.4365560000000 1.0
C      1  0.5670880000000  0.5331310000000  0.5667000000000 1.0
C      1  0.4377350000000  0.5313850000000  0.4343110000000 1.0
C      1  0.4412200000000  0.4629500000000  0.5638960000000 1.0
C      1  0.5657290000000  0.5312340000000  0.4346200000000 1.0
C      1  0.5624660000000  0.4652250000000  0.5631130000000 1.0
C      1  0.3900930000000  0.4925820000000  0.5294690000000 1.0
C      1  0.4189400000000  0.4972350000000  0.4738900000000 1.0
C      1  0.5994160000000  0.4962520000000  0.5295900000000 1.0
C      1  0.5750240000000  0.4929830000000  0.4747620000000 1.0
C      1  0.4167910000000  0.4936100000000  0.5277030000000 1.0
C      1  0.3924810000000  0.4946390000000  0.4704610000000 1.0
C      1  0.5728100000000  0.4940100000000  0.5263520000000 1.0
C      1  0.6016940000000  0.4951440000000  0.4722590000000 1.0
C      1  0.5173820000000  0.5841040000000  0.4608080000000 1.0
C      1  0.5177620000000  0.4127800000000  0.5379160000000 1.0
C      1  0.4876330000000  0.5896090000000  0.4592110000000 1.0
C      1  0.4886720000000  0.4122990000000  0.5380140000000 1.0
C      1  0.5176700000000  0.4119710000000  0.4611580000000 1.0
C      1  0.5184170000000  0.5848150000000  0.5387850000000 1.0
C      1  0.4885780000000  0.4123220000000  0.4617260000000 1.0
C      1  0.4883410000000  0.5882330000000  0.5396630000000 1.0
C      1  0.5275320000000  0.4734780000000  0.4721640000000 1.0
C      1  0.5211880000000  0.5246870000000  0.5254090000000 1.0
C      1  0.4716880000000  0.4918210000000  0.4754540000000 1.0
C      1  0.4753180000000  0.5302530000000  0.5290830000000 1.0
C      1  0.5166650000000  0.5214960000000  0.4729820000000 1.0
C      1  0.5249060000000  0.4749260000000  0.5267730000000 1.0
C      1  0.4737670000000  0.5378600000000  0.4776940000000 1.0
C      1  0.4661490000000  0.4803830000000  0.5285110000000 1.0
C      1  0.5795480000000  0.5434520000000  0.5413620000000 1.0
C      1  0.5755840000000  0.4508480000000  0.4595090000000 1.0
C      1  0.4277590000000  0.5415270000000  0.5329930000000 1.0
C      1  0.4297960000000  0.4525750000000  0.4613700000000 1.0
C      1  0.5756660000000  0.4514780000000  0.5400570000000 1.0
C      1  0.5789180000000  0.5423060000000  0.4596170000000 1.0
C      1  0.4281050000000  0.4497310000000  0.5410660000000 1.0
C      1  0.4212870000000  0.5425240000000  0.4568960000000 1.0
C      1  0.4848280000000  0.5460320000000  0.4542160000000 1.0
C      1  0.4813190000000  0.4899060000000  0.5505660000000 1.0
C      1  0.5115900000000  0.5356130000000  0.4484430000000 1.0
C      1  0.5103010000000  0.4870080000000  0.5470740000000 1.0
C      1  0.4833290000000  0.4909530000000  0.4479780000000 1.0
C      1  0.4888440000000  0.5446420000000  0.5481060000000 1.0
C      1  0.5121950000000  0.4847710000000  0.4518190000000 1.0
C      1  0.5168790000000  0.5370320000000  0.5508700000000 1.0
C      1  0.4525750000000  0.5421890000000  0.5194900000000 1.0
C      1  0.4765810000000  0.4642710000000  0.4852370000000 1.0
C      1  0.5426650000000  0.5322390000000  0.5103950000000 1.0
C      1  0.5151910000000  0.4533180000000  0.4861860000000 1.0
C      1  0.4803730000000  0.4615630000000  0.5124910000000 1.0
C      1  0.4555790000000  0.5509570000000  0.4935030000000 1.0
C      1  0.5091850000000  0.4562650000000  0.5129810000000 1.0
C      1  0.5406570000000  0.5287940000000  0.4843720000000 1.0
C      1  0.5198520000000  0.5408310000000  0.5946910000000 1.0
C      1  0.5173300000000  0.4648080000000  0.4125690000000 1.0
C      1  0.4822260000000  0.5406060000000  0.5972590000000 1.0
C      1  0.4866560000000  0.4635920000000  0.4118390000000 1.0
C      1  0.5171250000000  0.4657410000000  0.5857130000000 1.0
C      1  0.5191110000000  0.5398400000000  0.4051380000000 1.0
C      1  0.4867810000000  0.4635130000000  0.5874060000000 1.0
C      1  0.4816090000000  0.5410210000000  0.4014810000000 1.0
C      1  0.4245850000000  0.4432710000000  0.5145840000000 1.0
C      1  0.4105580000000  0.5462120000000  0.4824230000000 1.0
C      1  0.5796180000000  0.4439760000000  0.5136480000000 1.0
C      1  0.5849530000000  0.5476290000000  0.4864130000000 1.0
C      1  0.4088660000000  0.5452920000000  0.5104580000000 1.0
C      1  0.4252230000000  0.4446250000000  0.4872280000000 1.0
C      1  0.5852740000000  0.5480580000000  0.5143660000000 1.0
C      1  0.5796280000000  0.4436130000000  0.4860020000000 1.0
C      1  0.4783600000000  0.4914710000000  0.4186360000000 1.0
C      1  0.4770970000000  0.5125260000000  0.5985170000000 1.0
C      1  0.5219280000000  0.4911710000000  0.4253770000000 1.0
C      1  0.5204500000000  0.5197270000000  0.5757830000000 1.0
C      1  0.4762590000000  0.5129620000000  0.4002830000000 1.0
C      1  0.4776570000000  0.4909870000000  0.5802850000000 1.0
C      1  0.5175130000000  0.5186060000000  0.4236750000000 1.0
C      1  0.5211440000000  0.4923160000000  0.5730720000000 1.0
C      1  0.4352530000000  0.4972610000000  0.5695180000000 1.0
C      1  0.5665730000000  0.4990730000000  0.4305720000000 1.0
C      1  0.4372590000000  0.4994120000000  0.4316880000000 1.0
C      1  0.5672370000000  0.4989760000000  0.5706230000000 1.0
C      1  0.4957510000000  0.5174010000000  0.5144380000000 1.0
C      1  0.4899030000000  0.5143720000000  0.4866110000000 1.0
END
