TITL C-3623284-6838-806 6383.87043160918 125000 -739.55175558367 0 0 121 (C1) n - 1
REM
REM in /home/nfs/bkarasulu/CARBON/AIRSS/Generating-Clusters/LCBOP/Higher-Symm/SD-CG/FIRE-CG
REM
REM
REM
REM
REM
REM ./C.cell (b20cbc046b6831c77cfcea5457e17084)
REM AIRSS Version 0.9.1 bugfix July 2018 build 013d7b7c2542+ Fri, 06 Jul 2018 19:26:36 +0100
REM compiler GCC version 9.2.1 20190827 (Red Hat 9.2.1-1)
REM options -cpp -mtune=generic -march=x86-64 -g -O0 -fpre-include=/usr/include/finclude/math-vector-fortran.h
REM seed 731939339 -126525188 443774309 1877317836 -1897632402 720942429 -1483537084 899643943 -1812706883 -78350102 1199816965 2101854573 -1257395247 4555248 1767590346 -659612154 152432769 349047098 1735366125 -1294981773 1657216356 377900014 985570526 -1874635460 -92723072 -1287836440 653642922 1139412553 -664685711 1154754265 1121868190 255000683 1453556548
REM
CELL 1.54180   50.00000   50.00000   50.00000   90.00000   90.00000   90.00000
LATT -1
SFAC C  
C      1  0.5419480000000  0.4318670000000  0.4926330000000 1.0
C      1  0.5354760000000  0.5368760000000  0.4504640000000 1.0
C      1  0.5385750000000  0.5219770000000  0.5602680000000 1.0
C      1  0.4246950000000  0.4858370000000  0.4844450000000 1.0
C      1  0.4198490000000  0.5210750000000  0.5417480000000 1.0
C      1  0.4297850000000  0.4694330000000  0.5079510000000 1.0
C      1  0.4176830000000  0.6691250000000  0.5114890000000 1.0
C      1  0.3992060000000  0.4653640000000  0.6194510000000 1.0
C      1  0.4178270000000  0.4033890000000  0.3599590000000 1.0
C      1  0.4159250000000  0.4616240000000  0.5313420000000 1.0
C      1  0.4101910000000  0.4738100000000  0.4631590000000 1.0
C      1  0.4107480000000  0.5455140000000  0.5304580000000 1.0
C      1  0.5959830000000  0.5062390000000  0.5672620000000 1.0
C      1  0.5952890000000  0.4339170000000  0.4668480000000 1.0
C      1  0.5875010000000  0.5582070000000  0.4555130000000 1.0
C      1  0.5188600000000  0.5749860000000  0.5653130000000 1.0
C      1  0.5185000000000  0.4050200000000  0.5354280000000 1.0
C      1  0.5044440000000  0.5150800000000  0.4081310000000 1.0
C      1  0.5907190000000  0.5058290000000  0.4722450000000 1.0
C      1  0.5888540000000  0.5157220000000  0.5145650000000 1.0
C      1  0.5951250000000  0.4745250000000  0.5020760000000 1.0
C      1  0.5186670000000  0.5020150000000  0.5582450000000 1.0
C      1  0.5243830000000  0.4505970000000  0.4804080000000 1.0
C      1  0.5220180000000  0.5388480000000  0.4757900000000 1.0
C      1  0.5970030000000  0.4616100000000  0.4545700000000 1.0
C      1  0.5907760000000  0.5539650000000  0.4848050000000 1.0
C      1  0.5999870000000  0.4826140000000  0.5495570000000 1.0
C      1  0.4593640000000  0.5865970000000  0.5447190000000 1.0
C      1  0.4616300000000  0.4209360000000  0.5615800000000 1.0
C      1  0.4511100000000  0.4793070000000  0.4133560000000 1.0
C      1  0.4757120000000  0.4719280000000  0.5259250000000 1.0
C      1  0.4716760000000  0.4905200000000  0.4738790000000 1.0
C      1  0.4630180000000  0.5328270000000  0.5181360000000 1.0
C      1  0.4214620000000  0.4480590000000  0.5539870000000 1.0
C      1  0.4134450000000  0.4629760000000  0.4388510000000 1.0
C      1  0.4164240000000  0.5715720000000  0.5279650000000 1.0
C      1  0.4295670000000  0.4605890000000  0.4157620000000 1.0
C      1  0.4341880000000  0.5929850000000  0.5327600000000 1.0
C      1  0.4380360000000  0.4333850000000  0.5719810000000 1.0
C      1  0.5091230000000  0.4832640000000  0.4465700000000 1.0
C      1  0.5085740000000  0.5536180000000  0.5208590000000 1.0
C      1  0.5161980000000  0.4548130000000  0.5450320000000 1.0
C      1  0.5977340000000  0.5266480000000  0.4898340000000 1.0
C      1  0.6025900000000  0.4923320000000  0.5226890000000 1.0
C      1  0.6031640000000  0.4805350000000  0.4756910000000 1.0
C      1  0.5590160000000  0.5145460000000  0.5166040000000 1.0
C      1  0.5663550000000  0.4700370000000  0.5038520000000 1.0
C      1  0.5615630000000  0.5028010000000  0.4708600000000 1.0
C      1  0.5959180000000  0.4528520000000  0.5450580000000 1.0
C      1  0.5880400000000  0.4808350000000  0.4321610000000 1.0
C      1  0.5834480000000  0.5636120000000  0.5124520000000 1.0
C      1  0.5964900000000  0.5337820000000  0.5552240000000 1.0
C      1  0.6030200000000  0.4302510000000  0.4959020000000 1.0
C      1  0.5930390000000  0.5354290000000  0.4366340000000 1.0
C      1  0.4307290000000  0.4322930000000  0.5989380000000 1.0
C      1  0.4245680000000  0.4414000000000  0.3962520000000 1.0
C      1  0.4273980000000  0.6192240000000  0.5264100000000 1.0
C      1  0.5039730000000  0.4661260000000  0.5219570000000 1.0
C      1  0.4982480000000  0.4980640000000  0.4685550000000 1.0
C      1  0.4913980000000  0.5319850000000  0.5258790000000 1.0
C      1  0.5062960000000  0.5751290000000  0.5401560000000 1.0
C      1  0.5093230000000  0.4271060000000  0.5507380000000 1.0
C      1  0.4986820000000  0.4903330000000  0.4204470000000 1.0
C      1  0.4154790000000  0.4443050000000  0.6172510000000 1.0
C      1  0.4211660000000  0.4225480000000  0.3779600000000 1.0
C      1  0.4223710000000  0.6442230000000  0.5192440000000 1.0
C      1  0.5195920000000  0.4743700000000  0.5664250000000 1.0
C      1  0.5161580000000  0.4555880000000  0.4533900000000 1.0
C      1  0.5136620000000  0.5601620000000  0.4928830000000 1.0
C      1  0.4785180000000  0.4714200000000  0.4117160000000 1.0
C      1  0.4844540000000  0.5924010000000  0.5321300000000 1.0
C      1  0.4882580000000  0.4257670000000  0.5709270000000 1.0
C      1  0.5419840000000  0.4038360000000  0.4905930000000 1.0
C      1  0.5307980000000  0.5533870000000  0.4280050000000 1.0
C      1  0.5429820000000  0.5354410000000  0.5850640000000 1.0
C      1  0.5051560000000  0.4371370000000  0.4347700000000 1.0
C      1  0.5020340000000  0.5854670000000  0.4865250000000 1.0
C      1  0.5100590000000  0.4645490000000  0.5913870000000 1.0
C      1  0.5790560000000  0.4118470000000  0.4580760000000 1.0
C      1  0.5706290000000  0.5779730000000  0.4436150000000 1.0
C      1  0.5829160000000  0.5065490000000  0.5925740000000 1.0
C      1  0.5600350000000  0.3960570000000  0.4700030000000 1.0
C      1  0.5481510000000  0.5757440000000  0.4282870000000 1.0
C      1  0.5625330000000  0.5225840000000  0.6009090000000 1.0
C      1  0.4570980000000  0.4277840000000  0.5126400000000 1.0
C      1  0.4408170000000  0.5161330000000  0.4469670000000 1.0
C      1  0.4565350000000  0.5390470000000  0.5652680000000 1.0
C      1  0.4700570000000  0.4945130000000  0.5432780000000 1.0
C      1  0.4675980000000  0.4631700000000  0.4800630000000 1.0
C      1  0.4503990000000  0.5295260000000  0.4935880000000 1.0
C      1  0.5314530000000  0.5611940000000  0.5848580000000 1.0
C      1  0.5289870000000  0.3929340000000  0.5133840000000 1.0
C      1  0.5146140000000  0.5401650000000  0.4089920000000 1.0
C      1  0.4143890000000  0.3840490000000  0.3421720000000 1.0
C      1  0.4130740000000  0.6939300000000  0.5033830000000 1.0
C      1  0.3903680000000  0.4860790000000  0.6051770000000 1.0
C      1  0.4039790000000  0.7430010000000  0.4868430000000 1.0
C      1  0.4032500000000  0.5073660000000  0.5595520000000 1.0
C      1  0.4077420000000  0.3454870000000  0.3070570000000 1.0
C      1  0.4871450000000  0.4444480000000  0.4155600000000 1.0
C      1  0.4875400000000  0.6001510000000  0.5046800000000 1.0
C      1  0.4944310000000  0.4422160000000  0.5934150000000 1.0
C      1  0.5611500000000  0.4431950000000  0.5102990000000 1.0
C      1  0.5530510000000  0.5144290000000  0.4465290000000 1.0
C      1  0.5529660000000  0.5321700000000  0.5380550000000 1.0
C      1  0.4956150000000  0.5101240000000  0.5441970000000 1.0
C      1  0.5196970000000  0.4711680000000  0.4994980000000 1.0
C      1  0.5160080000000  0.5127720000000  0.4844410000000 1.0
C      1  0.4498100000000  0.5184430000000  0.5427750000000 1.0
C      1  0.4572910000000  0.4567240000000  0.5071070000000 1.0
C      1  0.4461030000000  0.5070040000000  0.4749790000000 1.0
C      1  0.4110010000000  0.3646200000000  0.3244630000000 1.0
C      1  0.4084900000000  0.7186810000000  0.4950790000000 1.0
C      1  0.3921620000000  0.4997920000000  0.5824600000000 1.0
C      1  0.4592210000000  0.4125250000000  0.5346460000000 1.0
C      1  0.4451260000000  0.5053890000000  0.4226820000000 1.0
C      1  0.4589730000000  0.5659210000000  0.5643410000000 1.0
C      1  0.5876180000000  0.4354330000000  0.5212730000000 1.0
C      1  0.5779010000000  0.5102960000000  0.4304320000000 1.0
C      1  0.5772620000000  0.5497950000000  0.5387560000000 1.0
C      1  0.5461570000000  0.4949310000000  0.4965240000000 1.0
END
