TITL C-3623288-6813-1859 -3.28388601087345e-07 125000 -636.18141524629 0 0 104 (D2d) n - 1
REM
REM in /home/nfs/bkarasulu/CARBON/AIRSS/Generating-Clusters/LCBOP/Higher-Symm/SD-CG/FIRE-CG
REM
REM
REM
REM
REM
REM ./C.cell (b20cbc046b6831c77cfcea5457e17084)
REM AIRSS Version 0.9.1 bugfix July 2018 build 013d7b7c2542+ Fri, 06 Jul 2018 19:26:36 +0100
REM compiler GCC version 9.2.1 20190827 (Red Hat 9.2.1-1)
REM options -cpp -mtune=generic -march=x86-64 -g -O0 -fpre-include=/usr/include/finclude/math-vector-fortran.h
REM seed 392407219 -1911036397 -915107699 -1827613547 885143078 980367217 1930548043 697346330 -410376829 542299424 1248292863 1582611905 -1398151338 1288252362 -37395699 1040454163 -1571552808 980061613 -470944678 1612705408 -2014518112 -1997889594 -1935111076 -853704616 887656718 -1150300903 640643726 1797438927 -1329520294 -2034532936 -1081501132 792291842 -1349878069
REM
CELL 1.54180   50.00000   50.00000   50.00000   90.00000   90.00000   90.00000
LATT -1
SFAC C  
C      1  0.4739390000000  0.5066370000000  0.5400990000000 1.0
C      1  0.5260630000000  0.4933610000000  0.5400970000000 1.0
C      1  0.5260610000000  0.5066390000000  0.4599020000000 1.0
C      1  0.4739370000000  0.4933630000000  0.4599020000000 1.0
C      1  0.5066390000000  0.4739370000000  0.5400970000000 1.0
C      1  0.4933630000000  0.5260610000000  0.5400990000000 1.0
C      1  0.5066370000000  0.5260630000000  0.4599020000000 1.0
C      1  0.4933610000000  0.4739390000000  0.4599020000000 1.0
C      1  0.4398470000000  0.5205950000000  0.4453390000000 1.0
C      1  0.5601510000000  0.4794070000000  0.4453360000000 1.0
C      1  0.5601530000000  0.5205930000000  0.5546620000000 1.0
C      1  0.4398490000000  0.4794050000000  0.5546630000000 1.0
C      1  0.5205930000000  0.4398490000000  0.4453360000000 1.0
C      1  0.4794050000000  0.5601530000000  0.4453390000000 1.0
C      1  0.5205950000000  0.5601510000000  0.5546630000000 1.0
C      1  0.4794070000000  0.4398470000000  0.5546620000000 1.0
C      1  0.3958730000000  0.5044690000000  0.4614230000000 1.0
C      1  0.6041260000000  0.4955330000000  0.4614190000000 1.0
C      1  0.6041270000000  0.5044670000000  0.5385770000000 1.0
C      1  0.3958740000000  0.4955320000000  0.5385810000000 1.0
C      1  0.5044670000000  0.3958740000000  0.4614190000000 1.0
C      1  0.4955320000000  0.6041270000000  0.4614230000000 1.0
C      1  0.5044690000000  0.6041260000000  0.5385810000000 1.0
C      1  0.4955330000000  0.3958730000000  0.5385770000000 1.0
C      1  0.5011310000000  0.4556150000000  0.5157000000000 1.0
C      1  0.4988690000000  0.5443850000000  0.5157020000000 1.0
C      1  0.4988690000000  0.4556150000000  0.4842980000000 1.0
C      1  0.5011310000000  0.5443850000000  0.4843000000000 1.0
C      1  0.4556150000000  0.5011310000000  0.5157020000000 1.0
C      1  0.5443850000000  0.4988690000000  0.5157000000000 1.0
C      1  0.4556150000000  0.4988690000000  0.4843000000000 1.0
C      1  0.5443850000000  0.5011310000000  0.4842980000000 1.0
C      1  0.4363220000000  0.5262890000000  0.5193250000000 1.0
C      1  0.5636790000000  0.4737110000000  0.5193220000000 1.0
C      1  0.5636780000000  0.5262890000000  0.4806760000000 1.0
C      1  0.4363210000000  0.4737110000000  0.4806770000000 1.0
C      1  0.5262890000000  0.4363210000000  0.5193220000000 1.0
C      1  0.4737110000000  0.5636780000000  0.5193250000000 1.0
C      1  0.5262890000000  0.5636790000000  0.4806770000000 1.0
C      1  0.4737110000000  0.4363220000000  0.4806760000000 1.0
C      1  0.4749210000000  0.4251450000000  0.4357450000000 1.0
C      1  0.5250770000000  0.5748570000000  0.4357470000000 1.0
C      1  0.5250790000000  0.4251430000000  0.5642520000000 1.0
C      1  0.4749240000000  0.5748550000000  0.5642560000000 1.0
C      1  0.4251430000000  0.4749240000000  0.4357470000000 1.0
C      1  0.5748550000000  0.5250790000000  0.4357450000000 1.0
C      1  0.4251460000000  0.5250770000000  0.5642560000000 1.0
C      1  0.5748570000000  0.4749210000000  0.5642520000000 1.0
C      1  0.5612950000000  0.4591280000000  0.5446440000000 1.0
C      1  0.4387070000000  0.5408710000000  0.5446480000000 1.0
C      1  0.4387050000000  0.4591300000000  0.4553540000000 1.0
C      1  0.5612930000000  0.5408720000000  0.4553530000000 1.0
C      1  0.4591300000000  0.5612930000000  0.5446480000000 1.0
C      1  0.5408720000000  0.4387050000000  0.5446440000000 1.0
C      1  0.4591280000000  0.4387070000000  0.4553530000000 1.0
C      1  0.5408710000000  0.5612950000000  0.4553540000000 1.0
C      1  0.5020810000000  0.4175660000000  0.4427680000000 1.0
C      1  0.4979170000000  0.5824360000000  0.4427710000000 1.0
C      1  0.4979190000000  0.4175640000000  0.5572290000000 1.0
C      1  0.5020840000000  0.5824340000000  0.5572320000000 1.0
C      1  0.4175640000000  0.5020840000000  0.4427710000000 1.0
C      1  0.5824340000000  0.4979180000000  0.4427680000000 1.0
C      1  0.4175660000000  0.4979170000000  0.5572320000000 1.0
C      1  0.5824360000000  0.5020810000000  0.5572290000000 1.0
C      1  0.4875960000000  0.4673350000000  0.5620610000000 1.0
C      1  0.5124060000000  0.5326630000000  0.5620620000000 1.0
C      1  0.5124040000000  0.4673370000000  0.4379380000000 1.0
C      1  0.4875940000000  0.5326650000000  0.4379390000000 1.0
C      1  0.4673370000000  0.4875940000000  0.5620620000000 1.0
C      1  0.5326660000000  0.5124040000000  0.5620610000000 1.0
C      1  0.4673340000000  0.5124060000000  0.4379390000000 1.0
C      1  0.5326630000000  0.4875960000000  0.4379380000000 1.0
C      1  0.5736030000000  0.5375440000000  0.5047850000000 1.0
C      1  0.4263970000000  0.4624560000000  0.5047870000000 1.0
C      1  0.4263970000000  0.5375440000000  0.4952160000000 1.0
C      1  0.5736030000000  0.4624560000000  0.4952120000000 1.0
C      1  0.5375440000000  0.5736030000000  0.5047870000000 1.0
C      1  0.4624560000000  0.4263970000000  0.5047850000000 1.0
C      1  0.5375440000000  0.4263970000000  0.4952120000000 1.0
C      1  0.4624560000000  0.5736030000000  0.4952160000000 1.0
C      1  0.5017270000000  0.6136570000000  0.5134030000000 1.0
C      1  0.4982730000000  0.3863420000000  0.5133990000000 1.0
C      1  0.4982730000000  0.6136580000000  0.4866010000000 1.0
C      1  0.5017260000000  0.3863430000000  0.4865970000000 1.0
C      1  0.6136580000000  0.5017260000000  0.5133990000000 1.0
C      1  0.3863430000000  0.4982730000000  0.5134030000000 1.0
C      1  0.6136570000000  0.4982730000000  0.4865970000000 1.0
C      1  0.3863420000000  0.5017270000000  0.4866010000000 1.0
C      1  0.5543160000000  0.4714850000000  0.4745340000000 1.0
C      1  0.4456830000000  0.5285160000000  0.4745370000000 1.0
C      1  0.4456840000000  0.4714840000000  0.5254650000000 1.0
C      1  0.5543170000000  0.5285150000000  0.5254640000000 1.0
C      1  0.4714840000000  0.5543170000000  0.4745370000000 1.0
C      1  0.5285150000000  0.4456840000000  0.4745340000000 1.0
C      1  0.4714850000000  0.4456830000000  0.5254640000000 1.0
C      1  0.5285160000000  0.5543160000000  0.5254650000000 1.0
C      1  0.4167280000000  0.4359890000000  0.5066670000000 1.0
C      1  0.5832720000000  0.5640100000000  0.5066660000000 1.0
C      1  0.5832720000000  0.4359890000000  0.4933310000000 1.0
C      1  0.4167280000000  0.5640110000000  0.4933360000000 1.0
C      1  0.4359890000000  0.4167280000000  0.5066660000000 1.0
C      1  0.5640110000000  0.5832720000000  0.5066670000000 1.0
C      1  0.4359890000000  0.5832720000000  0.4933360000000 1.0
C      1  0.5640100000000  0.4167280000000  0.4933310000000 1.0
END
