TITL C-3623284-6838-297 -3.02269697382401e-05 125000 -766.85024591158 0 0 122 (C1) n - 1
REM
REM in /home/nfs/bkarasulu/CARBON/AIRSS/Generating-Clusters/LCBOP/Higher-Symm/SD-CG/FIRE-CG
REM
REM
REM
REM
REM
REM ./C.cell (b20cbc046b6831c77cfcea5457e17084)
REM AIRSS Version 0.9.1 bugfix July 2018 build 013d7b7c2542+ Fri, 06 Jul 2018 19:26:36 +0100
REM compiler GCC version 9.2.1 20190827 (Red Hat 9.2.1-1)
REM options -cpp -mtune=generic -march=x86-64 -g -O0 -fpre-include=/usr/include/finclude/math-vector-fortran.h
REM seed 514145879 -148121924 -259920879 1485695198 -1077841177 -1558878038 -503654705 -109699262 1548105719 -96562627 25887938 1773526118 1849928531 140774236 1224405239 2134500705 -1480989072 -611996205 -1421621448 679497372 1787523656 -1805307009 1521448128 1809997322 -325605694 746523107 1626276945 55784978 1444711186 -1565392597 -1151856874 -1777472337 801701575
REM
CELL 1.54180   50.00000   50.00000   50.00000   90.00000   90.00000   90.00000
LATT -1
SFAC C  
C      1  0.3815480000000  0.4982510000000  0.5042840000000 1.0
C      1  0.5536410000000  0.4182260000000  0.5440470000000 1.0
C      1  0.5298160000000  0.5039300000000  0.3998930000000 1.0
C      1  0.5257300000000  0.5270940000000  0.4483470000000 1.0
C      1  0.5792640000000  0.5544890000000  0.4731210000000 1.0
C      1  0.3960310000000  0.5124360000000  0.5243370000000 1.0
C      1  0.4565280000000  0.5983800000000  0.5239850000000 1.0
C      1  0.6138180000000  0.4894020000000  0.5667260000000 1.0
C      1  0.4866920000000  0.5310340000000  0.5280820000000 1.0
C      1  0.4757170000000  0.6044280000000  0.5022730000000 1.0
C      1  0.5073870000000  0.4880890000000  0.5589080000000 1.0
C      1  0.4315520000000  0.4445980000000  0.5487720000000 1.0
C      1  0.5911840000000  0.5361990000000  0.4267640000000 1.0
C      1  0.4725420000000  0.5292810000000  0.4414330000000 1.0
C      1  0.5939310000000  0.4406740000000  0.5232140000000 1.0
C      1  0.5704360000000  0.5774440000000  0.4351790000000 1.0
C      1  0.5268860000000  0.4747420000000  0.5423970000000 1.0
C      1  0.3940740000000  0.5036280000000  0.5527390000000 1.0
C      1  0.4365230000000  0.5182320000000  0.5481180000000 1.0
C      1  0.3895020000000  0.4584930000000  0.5311530000000 1.0
C      1  0.5176220000000  0.4563560000000  0.4220870000000 1.0
C      1  0.5299480000000  0.5539130000000  0.4419580000000 1.0
C      1  0.4117570000000  0.4172270000000  0.4568810000000 1.0
C      1  0.5327240000000  0.5073710000000  0.4668670000000 1.0
C      1  0.4858290000000  0.5308590000000  0.4162560000000 1.0
C      1  0.5297920000000  0.5163440000000  0.5905010000000 1.0
C      1  0.4383920000000  0.5552280000000  0.5941610000000 1.0
C      1  0.5507340000000  0.5598740000000  0.4230770000000 1.0
C      1  0.4781260000000  0.5740910000000  0.5655030000000 1.0
C      1  0.4205700000000  0.4282720000000  0.5044240000000 1.0
C      1  0.5576630000000  0.5730640000000  0.4733240000000 1.0
C      1  0.5690100000000  0.4410320000000  0.5891860000000 1.0
C      1  0.3452690000000  0.5383250000000  0.4448670000000 1.0
C      1  0.5044030000000  0.5625500000000  0.5604960000000 1.0
C      1  0.4188270000000  0.5376010000000  0.5881420000000 1.0
C      1  0.4887090000000  0.4274860000000  0.4800430000000 1.0
C      1  0.6113440000000  0.5163500000000  0.4292750000000 1.0
C      1  0.5353680000000  0.4275350000000  0.4893520000000 1.0
C      1  0.5305720000000  0.4761810000000  0.4067290000000 1.0
C      1  0.5641730000000  0.4871520000000  0.6056070000000 1.0
C      1  0.6232820000000  0.5052610000000  0.4065790000000 1.0
C      1  0.4093400000000  0.4371070000000  0.5296850000000 1.0
C      1  0.4624760000000  0.5937940000000  0.4774770000000 1.0
C      1  0.4312970000000  0.5923020000000  0.5105540000000 1.0
C      1  0.5161650000000  0.4325040000000  0.4679940000000 1.0
C      1  0.4365260000000  0.5805330000000  0.4847730000000 1.0
C      1  0.4515320000000  0.4663380000000  0.4708390000000 1.0
C      1  0.4790470000000  0.4829230000000  0.5556880000000 1.0
C      1  0.5068520000000  0.5794160000000  0.4767150000000 1.0
C      1  0.5595840000000  0.4238630000000  0.5709390000000 1.0
C      1  0.4806280000000  0.5746030000000  0.4644380000000 1.0
C      1  0.5948320000000  0.5011930000000  0.3666250000000 1.0
C      1  0.4368070000000  0.5308410000000  0.4976410000000 1.0
C      1  0.5056580000000  0.3955760000000  0.5453960000000 1.0
C      1  0.6167110000000  0.5078830000000  0.4556540000000 1.0
C      1  0.4692880000000  0.4478090000000  0.4161880000000 1.0
C      1  0.4641070000000  0.4431130000000  0.4835820000000 1.0
C      1  0.4044610000000  0.4304830000000  0.4809600000000 1.0
C      1  0.5690170000000  0.5516160000000  0.5635630000000 1.0
C      1  0.3677090000000  0.5116350000000  0.4841950000000 1.0
C      1  0.4945590000000  0.4067920000000  0.5010580000000 1.0
C      1  0.5484400000000  0.4466830000000  0.5058930000000 1.0
C      1  0.5556160000000  0.5126490000000  0.4823980000000 1.0
C      1  0.6172670000000  0.4992600000000  0.3811910000000 1.0
C      1  0.4851260000000  0.3972000000000  0.5266700000000 1.0
C      1  0.6145550000000  0.4568100000000  0.5279840000000 1.0
C      1  0.5802400000000  0.4656440000000  0.5970210000000 1.0
C      1  0.4789320000000  0.5089470000000  0.5116330000000 1.0
C      1  0.4139870000000  0.5194260000000  0.5673290000000 1.0
C      1  0.5903270000000  0.5586280000000  0.4455410000000 1.0
C      1  0.5309850000000  0.5708220000000  0.4654060000000 1.0
C      1  0.5517930000000  0.5703150000000  0.5553800000000 1.0
C      1  0.3853380000000  0.4517390000000  0.4835800000000 1.0
C      1  0.4287520000000  0.4184930000000  0.4354830000000 1.0
C      1  0.5320300000000  0.4680500000000  0.5148920000000 1.0
C      1  0.5698770000000  0.5091220000000  0.3722140000000 1.0
C      1  0.3562860000000  0.5250330000000  0.4644000000000 1.0
C      1  0.5257970000000  0.4379260000000  0.4419090000000 1.0
C      1  0.5034010000000  0.5348790000000  0.5516840000000 1.0
C      1  0.4727970000000  0.4391830000000  0.3903150000000 1.0
C      1  0.4183290000000  0.4624510000000  0.5670090000000 1.0
C      1  0.6231300000000  0.4767550000000  0.5435530000000 1.0
C      1  0.5033540000000  0.5948270000000  0.5014470000000 1.0
C      1  0.3948960000000  0.4752130000000  0.5550820000000 1.0
C      1  0.4564170000000  0.4939720000000  0.4730990000000 1.0
C      1  0.5667330000000  0.4349730000000  0.5243770000000 1.0
C      1  0.5111650000000  0.4766940000000  0.4973600000000 1.0
C      1  0.4875900000000  0.4818620000000  0.5118520000000 1.0
C      1  0.5137270000000  0.5142530000000  0.5676810000000 1.0
C      1  0.4226120000000  0.5246670000000  0.5217180000000 1.0
C      1  0.5193260000000  0.5918130000000  0.5244570000000 1.0
C      1  0.5422850000000  0.4872660000000  0.6245060000000 1.0
C      1  0.4748880000000  0.4661580000000  0.5327630000000 1.0
C      1  0.5256160000000  0.5775920000000  0.5481840000000 1.0
C      1  0.4903750000000  0.4636740000000  0.4285760000000 1.0
C      1  0.6038050000000  0.5132070000000  0.4787370000000 1.0
C      1  0.5244010000000  0.4065400000000  0.5054840000000 1.0
C      1  0.6015780000000  0.5147310000000  0.5661990000000 1.0
C      1  0.5312270000000  0.4034370000000  0.5341720000000 1.0
C      1  0.4934090000000  0.4840430000000  0.4491630000000 1.0
C      1  0.4447230000000  0.4413510000000  0.4294430000000 1.0
C      1  0.4565030000000  0.5110390000000  0.4946770000000 1.0
C      1  0.4655230000000  0.5770940000000  0.5400710000000 1.0
C      1  0.4609680000000  0.5680910000000  0.5870610000000 1.0
C      1  0.5796850000000  0.5275000000000  0.4826390000000 1.0
C      1  0.4549790000000  0.4464500000000  0.5317900000000 1.0
C      1  0.4368740000000  0.4612740000000  0.4475550000000 1.0
C      1  0.5767810000000  0.5262730000000  0.5728660000000 1.0
C      1  0.5654540000000  0.5366940000000  0.4119290000000 1.0
C      1  0.5225250000000  0.5047290000000  0.6160790000000 1.0
C      1  0.4645260000000  0.5505700000000  0.4590830000000 1.0
C      1  0.4725890000000  0.5030610000000  0.4519930000000 1.0
C      1  0.4702870000000  0.5537570000000  0.5245850000000 1.0
C      1  0.5586920000000  0.5107110000000  0.5881840000000 1.0
C      1  0.4486420000000  0.4348430000000  0.5059420000000 1.0
C      1  0.6060720000000  0.4726080000000  0.5881270000000 1.0
C      1  0.4586750000000  0.5030290000000  0.5578750000000 1.0
C      1  0.4406120000000  0.5522850000000  0.4782990000000 1.0
C      1  0.5544390000000  0.5174460000000  0.3941920000000 1.0
C      1  0.5055920000000  0.5188910000000  0.4021050000000 1.0
C      1  0.5138990000000  0.4862920000000  0.4703640000000 1.0
C      1  0.3820400000000  0.4696250000000  0.5057480000000 1.0
END
