TITL C-3623285-6872-1524 1.40651871779266e-06 125000 -689.18513781163 0 0 114 (C1) n - 1
REM
REM in /home/nfs/bkarasulu/CARBON/AIRSS/Generating-Clusters/LCBOP/Higher-Symm/SD-CG/FIRE-CG
REM
REM
REM
REM
REM
REM ./C.cell (b20cbc046b6831c77cfcea5457e17084)
REM AIRSS Version 0.9.1 bugfix July 2018 build 013d7b7c2542+ Fri, 06 Jul 2018 19:26:36 +0100
REM compiler GCC version 9.2.1 20190827 (Red Hat 9.2.1-1)
REM options -cpp -mtune=generic -march=x86-64 -g -O0 -fpre-include=/usr/include/finclude/math-vector-fortran.h
REM seed 1889423090 -1074365844 1589461513 1258029997 -1202180332 1567811743 1686250979 -1777708376 330026718 -261368674 2020619815 769330720 -1293773286 -1686405090 -557513702 -1831159199 -995807490 2005067749 298826930 764403160 -974885319 185495340 1441723819 -214020196 -507549264 132536406 2061609907 -732525633 1786286105 -1520131263 -1251130199 -1706413720 432757138
REM
CELL 1.54180   50.00000   50.00000   50.00000   90.00000   90.00000   90.00000
LATT -1
SFAC C  
C      1  0.4418830000000  0.4384780000000  0.5336310000000 1.0
C      1  0.4416070000000  0.5354190000000  0.5588150000000 1.0
C      1  0.4416890000000  0.5655530000000  0.4698760000000 1.0
C      1  0.4443700000000  0.4727800000000  0.4341100000000 1.0
C      1  0.5576800000000  0.4384320000000  0.5338200000000 1.0
C      1  0.5580030000000  0.5352220000000  0.5587350000000 1.0
C      1  0.5578610000000  0.5656930000000  0.4697150000000 1.0
C      1  0.5552360000000  0.4729200000000  0.4341670000000 1.0
C      1  0.4088380000000  0.4676230000000  0.4678010000000 1.0
C      1  0.4069500000000  0.4722000000000  0.5356480000000 1.0
C      1  0.4037410000000  0.5401210000000  0.5297230000000 1.0
C      1  0.4052090000000  0.5341430000000  0.4642040000000 1.0
C      1  0.5909550000000  0.4677630000000  0.4677220000000 1.0
C      1  0.5929910000000  0.4716060000000  0.5366010000000 1.0
C      1  0.5954590000000  0.5392880000000  0.5289120000000 1.0
C      1  0.5943440000000  0.5343870000000  0.4639500000000 1.0
C      1  0.5193240000000  0.5266060000000  0.5860860000000 1.0
C      1  0.5195090000000  0.5921240000000  0.4830650000000 1.0
C      1  0.5199490000000  0.4914370000000  0.4036160000000 1.0
C      1  0.5198570000000  0.4077270000000  0.5216100000000 1.0
C      1  0.4802570000000  0.5266500000000  0.5860850000000 1.0
C      1  0.4800460000000  0.5920950000000  0.4830950000000 1.0
C      1  0.4796060000000  0.4914040000000  0.4035980000000 1.0
C      1  0.4797560000000  0.4077420000000  0.5215590000000 1.0
C      1  0.4853790000000  0.5387760000000  0.5395010000000 1.0
C      1  0.4857650000000  0.5477970000000  0.4673800000000 1.0
C      1  0.4853580000000  0.4487370000000  0.4237760000000 1.0
C      1  0.4853250000000  0.4431070000000  0.5527780000000 1.0
C      1  0.5142030000000  0.5387740000000  0.5395030000000 1.0
C      1  0.5138290000000  0.5478160000000  0.4673720000000 1.0
C      1  0.5143200000000  0.4487510000000  0.4237920000000 1.0
C      1  0.5142000000000  0.4431110000000  0.5527900000000 1.0
C      1  0.5558930000000  0.4352460000000  0.4779380000000 1.0
C      1  0.5576770000000  0.4813920000000  0.5686160000000 1.0
C      1  0.5591640000000  0.5711690000000  0.5223270000000 1.0
C      1  0.5565480000000  0.5282810000000  0.4344010000000 1.0
C      1  0.4437970000000  0.4350480000000  0.4777840000000 1.0
C      1  0.4418120000000  0.4815450000000  0.5683940000000 1.0
C      1  0.4404340000000  0.5713630000000  0.5224760000000 1.0
C      1  0.4429720000000  0.5281380000000  0.4345380000000 1.0
C      1  0.4670930000000  0.4688630000000  0.4148070000000 1.0
C      1  0.4671210000000  0.4243540000000  0.5406400000000 1.0
C      1  0.4695180000000  0.5398270000000  0.5638790000000 1.0
C      1  0.4697300000000  0.5711410000000  0.4681200000000 1.0
C      1  0.5325280000000  0.4689390000000  0.4148460000000 1.0
C      1  0.5324240000000  0.4243310000000  0.5407240000000 1.0
C      1  0.5301050000000  0.5397540000000  0.5638710000000 1.0
C      1  0.5298110000000  0.5712000000000  0.4680490000000 1.0
C      1  0.5367340000000  0.6006950000000  0.5540020000000 1.0
C      1  0.5352970000000  0.5618960000000  0.4062020000000 1.0
C      1  0.5405010000000  0.3949930000000  0.4543550000000 1.0
C      1  0.5375600000000  0.4572610000000  0.6061730000000 1.0
C      1  0.4629680000000  0.6009420000000  0.5540190000000 1.0
C      1  0.4641030000000  0.5618340000000  0.4063410000000 1.0
C      1  0.4593970000000  0.3948690000000  0.4542250000000 1.0
C      1  0.4617820000000  0.4573050000000  0.6059730000000 1.0
C      1  0.5145970000000  0.5183950000000  0.4099390000000 1.0
C      1  0.5150240000000  0.4092090000000  0.4932790000000 1.0
C      1  0.5152080000000  0.4978930000000  0.5914730000000 1.0
C      1  0.5149730000000  0.5923990000000  0.5116290000000 1.0
C      1  0.4849000000000  0.5183660000000  0.4099530000000 1.0
C      1  0.4846800000000  0.4091860000000  0.4932370000000 1.0
C      1  0.4842780000000  0.4979280000000  0.5914380000000 1.0
C      1  0.4846430000000  0.5924210000000  0.5116530000000 1.0
C      1  0.5218520000000  0.4479530000000  0.4515690000000 1.0
C      1  0.5225320000000  0.4675040000000  0.5386180000000 1.0
C      1  0.5244280000000  0.5148260000000  0.5253330000000 1.0
C      1  0.5265160000000  0.5252040000000  0.4777700000000 1.0
C      1  0.4778280000000  0.4479520000000  0.4515560000000 1.0
C      1  0.4770590000000  0.4675110000000  0.5386010000000 1.0
C      1  0.4751560000000  0.5148300000000  0.5253320000000 1.0
C      1  0.4731250000000  0.5251560000000  0.4777530000000 1.0
C      1  0.4313700000000  0.5724410000000  0.4954360000000 1.0
C      1  0.4363140000000  0.5004660000000  0.4344130000000 1.0
C      1  0.4351550000000  0.4372050000000  0.5054490000000 1.0
C      1  0.4329440000000  0.5089130000000  0.5653770000000 1.0
C      1  0.5682250000000  0.5724860000000  0.4952890000000 1.0
C      1  0.5632440000000  0.5006200000000  0.4343890000000 1.0
C      1  0.5644490000000  0.4374160000000  0.5056330000000 1.0
C      1  0.5665840000000  0.5087330000000  0.5654710000000 1.0
C      1  0.5145120000000  0.4632550000000  0.5111930000000 1.0
C      1  0.5142680000000  0.4939000000000  0.5426220000000 1.0
C      1  0.5295650000000  0.5069260000000  0.4983170000000 1.0
C      1  0.5143010000000  0.4703280000000  0.4672390000000 1.0
C      1  0.4851150000000  0.4632510000000  0.5111900000000 1.0
C      1  0.4853210000000  0.4939030000000  0.5426180000000 1.0
C      1  0.4700430000000  0.5069040000000  0.4983130000000 1.0
C      1  0.4853410000000  0.4703310000000  0.4672310000000 1.0
C      1  0.4294450000000  0.5447380000000  0.4540990000000 1.0
C      1  0.4333870000000  0.4560330000000  0.4577950000000 1.0
C      1  0.4305080000000  0.4620090000000  0.5485280000000 1.0
C      1  0.4281030000000  0.5510280000000  0.5389960000000 1.0
C      1  0.5700980000000  0.5449480000000  0.4538640000000 1.0
C      1  0.5662970000000  0.4562180000000  0.4578870000000 1.0
C      1  0.5690850000000  0.4617260000000  0.5489850000000 1.0
C      1  0.5714240000000  0.5505880000000  0.5386400000000 1.0
C      1  0.5351120000000  0.5367210000000  0.4170210000000 1.0
C      1  0.5365680000000  0.4132730000000  0.4745120000000 1.0
C      1  0.5364250000000  0.4784110000000  0.5886560000000 1.0
C      1  0.5366030000000  0.5879100000000  0.5297220000000 1.0
C      1  0.4643620000000  0.5366420000000  0.4171220000000 1.0
C      1  0.4631920000000  0.4131540000000  0.4744000000000 1.0
C      1  0.4630180000000  0.4784870000000  0.5884950000000 1.0
C      1  0.4630300000000  0.5880760000000  0.5297830000000 1.0
C      1  0.6027450000000  0.4863940000000  0.4842220000000 1.0
C      1  0.6039530000000  0.4871300000000  0.5168970000000 1.0
C      1  0.6056420000000  0.5194800000000  0.5127190000000 1.0
C      1  0.6046090000000  0.5166790000000  0.4824910000000 1.0
C      1  0.3974590000000  0.4859850000000  0.4849780000000 1.0
C      1  0.3963860000000  0.4876250000000  0.5153870000000 1.0
C      1  0.3930320000000  0.5200930000000  0.5144940000000 1.0
C      1  0.3946210000000  0.5161380000000  0.4821520000000 1.0
C      1  0.4738730000000  0.4794960000000  0.4910840000000 1.0
C      1  0.5257520000000  0.4795160000000  0.4910920000000 1.0
END
