TITL C-3623286-7563-800 0.000535482910673104 125000 -785.694310499286 0 0 129 (C1) n - 1
REM
REM in /home/nfs/bkarasulu/CARBON/AIRSS/Generating-Clusters/LCBOP/Higher-Symm/SD-CG/FIRE-CG
REM
REM
REM
REM
REM
REM ./C.cell (b20cbc046b6831c77cfcea5457e17084)
REM AIRSS Version 0.9.1 bugfix July 2018 build 013d7b7c2542+ Fri, 06 Jul 2018 19:26:36 +0100
REM compiler GCC version 9.2.1 20190827 (Red Hat 9.2.1-1)
REM options -cpp -mtune=generic -march=x86-64 -g -O0 -fpre-include=/usr/include/finclude/math-vector-fortran.h
REM seed -759280364 -1942185626 -748261813 2066737736 1369358237 1729152740 -2093909124 -2014718613 1073635548 1840965391 837432662 -1284903510 2126084942 -2141027426 562962531 -1452541252 405672286 -709900195 1441879910 1008041526 -1583085309 -1190250962 2056892199 1067129196 1554769194 1749169962 -1438306795 2043168548 -1929199284 -417900940 -123394495 1047602981 1462570108
REM
CELL 1.54180   50.00000   50.00000   50.00000   90.00000   90.00000   90.00000
LATT -1
SFAC C  
C      1  0.5418530000000  0.4843820000000  0.4964830000000 1.0
C      1  0.5887070000000  0.4683250000000  0.4634730000000 1.0
C      1  0.4123370000000  0.5244640000000  0.5390720000000 1.0
C      1  0.5619050000000  0.4230990000000  0.4794860000000 1.0
C      1  0.5338430000000  0.5309030000000  0.4808490000000 1.0
C      1  0.6048850000000  0.5252480000000  0.5142110000000 1.0
C      1  0.4984370000000  0.4570010000000  0.4394790000000 1.0
C      1  0.5032250000000  0.5031060000000  0.5338340000000 1.0
C      1  0.5965260000000  0.4944400000000  0.4740250000000 1.0
C      1  0.5162150000000  0.5240240000000  0.3898690000000 1.0
C      1  0.5983240000000  0.5507240000000  0.5050640000000 1.0
C      1  0.5029340000000  0.4729460000000  0.6184580000000 1.0
C      1  0.4547380000000  0.5120920000000  0.4225290000000 1.0
C      1  0.4987220000000  0.5665150000000  0.4313720000000 1.0
C      1  0.5485040000000  0.5331970000000  0.4558930000000 1.0
C      1  0.5551940000000  0.4029090000000  0.5259990000000 1.0
C      1  0.5462130000000  0.4145700000000  0.5026170000000 1.0
C      1  0.5086420000000  0.5953650000000  0.5617310000000 1.0
C      1  0.4470260000000  0.6013280000000  0.4591930000000 1.0
C      1  0.4770930000000  0.5429660000000  0.5308580000000 1.0
C      1  0.4019060000000  0.4976690000000  0.5444390000000 1.0
C      1  0.5323730000000  0.5109230000000  0.6144580000000 1.0
C      1  0.4891080000000  0.5275380000000  0.3965060000000 1.0
C      1  0.4333500000000  0.4537060000000  0.4670310000000 1.0
C      1  0.5660990000000  0.5567530000000  0.4547460000000 1.0
C      1  0.5946230000000  0.4801830000000  0.5237810000000 1.0
C      1  0.4967000000000  0.5699380000000  0.5661800000000 1.0
C      1  0.6081540000000  0.5203950000000  0.5425210000000 1.0
C      1  0.4349340000000  0.5362390000000  0.5535480000000 1.0
C      1  0.4494290000000  0.4856750000000  0.5423100000000 1.0
C      1  0.5813230000000  0.5709600000000  0.5012360000000 1.0
C      1  0.4856330000000  0.5730930000000  0.4561280000000 1.0
C      1  0.5030970000000  0.4244080000000  0.6220630000000 1.0
C      1  0.5850700000000  0.4638770000000  0.4355500000000 1.0
C      1  0.5015920000000  0.4892180000000  0.5586450000000 1.0
C      1  0.4816990000000  0.5493710000000  0.4150420000000 1.0
C      1  0.5335180000000  0.5815250000000  0.4828330000000 1.0
C      1  0.5585250000000  0.5086020000000  0.6098700000000 1.0
C      1  0.4355050000000  0.4294410000000  0.5284530000000 1.0
C      1  0.5085100000000  0.4588610000000  0.5583250000000 1.0
C      1  0.4337730000000  0.5776160000000  0.4668110000000 1.0
C      1  0.4430120000000  0.4890460000000  0.4953440000000 1.0
C      1  0.5267150000000  0.5424010000000  0.5400110000000 1.0
C      1  0.4472710000000  0.4132770000000  0.5044060000000 1.0
C      1  0.4481870000000  0.4122010000000  0.4753030000000 1.0
C      1  0.4811490000000  0.4223380000000  0.5367310000000 1.0
C      1  0.4576320000000  0.4313730000000  0.4266200000000 1.0
C      1  0.5758460000000  0.4597040000000  0.5309240000000 1.0
C      1  0.3886710000000  0.5224020000000  0.4951040000000 1.0
C      1  0.4550560000000  0.5415570000000  0.4272210000000 1.0
C      1  0.4091670000000  0.5334230000000  0.5115330000000 1.0
C      1  0.4903560000000  0.4471580000000  0.5807680000000 1.0
C      1  0.5255430000000  0.4872640000000  0.4185890000000 1.0
C      1  0.4433640000000  0.6035220000000  0.5331260000000 1.0
C      1  0.4576870000000  0.4983000000000  0.5189800000000 1.0
C      1  0.4738380000000  0.5987140000000  0.4574090000000 1.0
C      1  0.4090660000000  0.4943260000000  0.4590180000000 1.0
C      1  0.4132780000000  0.4837100000000  0.5016940000000 1.0
C      1  0.5071160000000  0.4463770000000  0.5023300000000 1.0
C      1  0.4426050000000  0.5783420000000  0.5226620000000 1.0
C      1  0.4643080000000  0.4159740000000  0.4508680000000 1.0
C      1  0.3960100000000  0.4980200000000  0.4833040000000 1.0
C      1  0.4620420000000  0.4454610000000  0.5743390000000 1.0
C      1  0.5243880000000  0.6023030000000  0.5385950000000 1.0
C      1  0.4060610000000  0.4745760000000  0.5274630000000 1.0
C      1  0.4489620000000  0.5196280000000  0.5738610000000 1.0
C      1  0.5228530000000  0.4604880000000  0.4567310000000 1.0
C      1  0.4727240000000  0.4044670000000  0.5162530000000 1.0
C      1  0.5456350000000  0.5778340000000  0.4545230000000 1.0
C      1  0.4464950000000  0.4672800000000  0.5843010000000 1.0
C      1  0.5641330000000  0.4635460000000  0.5571750000000 1.0
C      1  0.5260050000000  0.5759200000000  0.4326780000000 1.0
C      1  0.4567880000000  0.4953870000000  0.4451690000000 1.0
C      1  0.5993540000000  0.4987080000000  0.5021350000000 1.0
C      1  0.4528300000000  0.4610060000000  0.4874830000000 1.0
C      1  0.5802170000000  0.4450790000000  0.4785310000000 1.0
C      1  0.4893460000000  0.4845970000000  0.4747080000000 1.0
C      1  0.5710150000000  0.4443240000000  0.4231270000000 1.0
C      1  0.4519810000000  0.5347980000000  0.4750460000000 1.0
C      1  0.5466550000000  0.5848310000000  0.5319010000000 1.0
C      1  0.5379650000000  0.4562630000000  0.5634150000000 1.0
C      1  0.5464050000000  0.5259860000000  0.4284070000000 1.0
C      1  0.4314360000000  0.5433590000000  0.4967000000000 1.0
C      1  0.5475010000000  0.5601470000000  0.5456940000000 1.0
C      1  0.5989980000000  0.4944700000000  0.5499830000000 1.0
C      1  0.5042350000000  0.4688900000000  0.4123140000000 1.0
C      1  0.4436810000000  0.5057000000000  0.4695540000000 1.0
C      1  0.4989420000000  0.4472510000000  0.6078400000000 1.0
C      1  0.4754000000000  0.5266590000000  0.5836750000000 1.0
C      1  0.4454810000000  0.4912640000000  0.5695330000000 1.0
C      1  0.5288900000000  0.4875210000000  0.4475790000000 1.0
C      1  0.4817850000000  0.4616700000000  0.4919530000000 1.0
C      1  0.5165670000000  0.6048950000000  0.4901570000000 1.0
C      1  0.5011300000000  0.4430110000000  0.5324840000000 1.0
C      1  0.4012180000000  0.4560340000000  0.4297660000000 1.0
C      1  0.4767050000000  0.4755080000000  0.4494680000000 1.0
C      1  0.5096200000000  0.5015950000000  0.4640950000000 1.0
C      1  0.5003940000000  0.5534140000000  0.5431260000000 1.0
C      1  0.5992010000000  0.5184540000000  0.4582250000000 1.0
C      1  0.4419080000000  0.5526930000000  0.4511960000000 1.0
C      1  0.4952320000000  0.5049670000000  0.5828680000000 1.0
C      1  0.4917690000000  0.4078640000000  0.4533940000000 1.0
C      1  0.4142070000000  0.4677420000000  0.4506680000000 1.0
C      1  0.5759660000000  0.4963970000000  0.5939320000000 1.0
C      1  0.5919930000000  0.5445270000000  0.4535130000000 1.0
C      1  0.5337460000000  0.5117560000000  0.4079370000000 1.0
C      1  0.4839670000000  0.5541230000000  0.5862280000000 1.0
C      1  0.4783140000000  0.4745710000000  0.4006100000000 1.0
C      1  0.4330480000000  0.5724270000000  0.4959850000000 1.0
C      1  0.4794180000000  0.5153750000000  0.5232470000000 1.0
C      1  0.4133840000000  0.4473200000000  0.5315420000000 1.0
C      1  0.4566170000000  0.4315850000000  0.5499590000000 1.0
C      1  0.5269400000000  0.5174600000000  0.5273580000000 1.0
C      1  0.5087230000000  0.4979870000000  0.6070900000000 1.0
C      1  0.4606680000000  0.4516800000000  0.4078060000000 1.0
C      1  0.5622960000000  0.3913940000000  0.5482710000000 1.0
C      1  0.5137710000000  0.5511680000000  0.4846430000000 1.0
C      1  0.5555020000000  0.5816480000000  0.5045540000000 1.0
C      1  0.5446450000000  0.4160200000000  0.4560340000000 1.0
C      1  0.5385630000000  0.5119550000000  0.5021170000000 1.0
C      1  0.5545600000000  0.4243400000000  0.4309440000000 1.0
C      1  0.4515120000000  0.5545990000000  0.5375350000000 1.0
C      1  0.4717990000000  0.5034710000000  0.4004760000000 1.0
C      1  0.5808160000000  0.4841610000000  0.5695420000000 1.0
C      1  0.5169320000000  0.4110390000000  0.4655850000000 1.0
C      1  0.5130660000000  0.6143900000000  0.5154960000000 1.0
C      1  0.4856370000000  0.5516940000000  0.4761420000000 1.0
C      1  0.5180510000000  0.4181270000000  0.4944050000000 1.0
C      1  0.5277900000000  0.4621710000000  0.4860220000000 1.0
END
