TITL C-3623289-7120-1176 0.315792995032377 125000 -133.600481690077 0 0 24 (C1) n - 1
REM
REM in /home/nfs/bkarasulu/CARBON/AIRSS/Generating-Clusters/LCBOP/Higher-Symm/SD-CG/FIRE-CG
REM
REM
REM
REM
REM
REM ./C.cell (b20cbc046b6831c77cfcea5457e17084)
REM AIRSS Version 0.9.1 bugfix July 2018 build 013d7b7c2542+ Fri, 06 Jul 2018 19:26:36 +0100
REM compiler GCC version 9.2.1 20190827 (Red Hat 9.2.1-1)
REM options -cpp -mtune=generic -march=x86-64 -g -O0 -fpre-include=/usr/include/finclude/math-vector-fortran.h
REM seed 1993813018 1535061200 329780594 1213662678 1902065067 701790321 -1042841238 -1022563880 31276562 -1611322332 -1520009024 2082661173 -2070204637 -963147212 1270257848 -548182157 -128614622 -1851415978 91350865 716061339 -1867182290 1766983122 1316610159 1834473328 573383170 -752246254 135667400 397467380 772066895 -1169807280 -357894600 -592329310 -1743755884
REM
CELL 1.54180   50.00000   50.00000   50.00000   90.00000   90.00000   90.00000
LATT -1
SFAC C  
C      1  0.5093120000000  0.5327040000000  0.5707570000000 1.0
C      1  0.4621380000000  0.4694670000000  0.4417680000000 1.0
C      1  0.5443030000000  0.5597640000000  0.5113970000000 1.0
C      1  0.5445630000000  0.4843880000000  0.4999110000000 1.0
C      1  0.4860820000000  0.5047860000000  0.4189100000000 1.0
C      1  0.4952350000000  0.4862380000000  0.5569750000000 1.0
C      1  0.5205050000000  0.5181840000000  0.5272400000000 1.0
C      1  0.5040870000000  0.4859060000000  0.4598550000000 1.0
C      1  0.5308420000000  0.5452430000000  0.5298830000000 1.0
C      1  0.5271370000000  0.4692330000000  0.4582370000000 1.0
C      1  0.4838020000000  0.4626460000000  0.5607820000000 1.0
C      1  0.4884710000000  0.5220990000000  0.3989990000000 1.0
C      1  0.4995330000000  0.5338270000000  0.5965390000000 1.0
C      1  0.4415600000000  0.4529020000000  0.4437830000000 1.0
C      1  0.5074530000000  0.5105720000000  0.5520070000000 1.0
C      1  0.4840370000000  0.4867210000000  0.4401120000000 1.0
C      1  0.5462430000000  0.4688320000000  0.4776300000000 1.0
C      1  0.5236210000000  0.5533150000000  0.5565890000000 1.0
C      1  0.4725840000000  0.4393950000000  0.5644150000000 1.0
C      1  0.4908720000000  0.5391550000000  0.3794300000000 1.0
C      1  0.4213340000000  0.4365800000000  0.4458150000000 1.0
C      1  0.4900440000000  0.5342080000000  0.6208070000000 1.0
C      1  0.5227720000000  0.5021490000000  0.5045670000000 1.0
C      1  0.5034670000000  0.5016870000000  0.4835900000000 1.0
END
