TITL C-3623285-6872-438 -4.1699177590527e-07 125000 -760.124438468934 0 0 124 (C1) n - 1
REM
REM in /home/nfs/bkarasulu/CARBON/AIRSS/Generating-Clusters/LCBOP/Higher-Symm/SD-CG/FIRE-CG
REM
REM
REM
REM
REM
REM ./C.cell (b20cbc046b6831c77cfcea5457e17084)
REM AIRSS Version 0.9.1 bugfix July 2018 build 013d7b7c2542+ Fri, 06 Jul 2018 19:26:36 +0100
REM compiler GCC version 9.2.1 20190827 (Red Hat 9.2.1-1)
REM options -cpp -mtune=generic -march=x86-64 -g -O0 -fpre-include=/usr/include/finclude/math-vector-fortran.h
REM seed 1784528169 -565174091 -81758350 -1617300770 182117299 -156059826 -1297813677 -912614026 285353089 1065261844 -826958291 -739996845 -1373534672 2093749442 1342519264 -1160202693 1563851691 1964493796 -836831479 -1315220596 77140510 -334456317 708996 132208574 -1721771089 892044533 -1454135852 1472009922 -695138262 -1559508908 -257180601 -697977064 2112187258
REM
CELL 1.54180   50.00000   50.00000   50.00000   90.00000   90.00000   90.00000
LATT -1
SFAC C  
C      1  0.5823710000000  0.5312110000000  0.4757490000000 1.0
C      1  0.5798860000000  0.5248120000000  0.5266440000000 1.0
C      1  0.4879740000000  0.4208300000000  0.5141970000000 1.0
C      1  0.4840730000000  0.4185330000000  0.4857340000000 1.0
C      1  0.5851090000000  0.4510050000000  0.5251980000000 1.0
C      1  0.5851540000000  0.4555220000000  0.4675050000000 1.0
C      1  0.5495850000000  0.5690930000000  0.4403820000000 1.0
C      1  0.5483610000000  0.5692630000000  0.5614410000000 1.0
C      1  0.4701690000000  0.4650560000000  0.3938980000000 1.0
C      1  0.4676220000000  0.4721700000000  0.5980310000000 1.0
C      1  0.5469790000000  0.3908070000000  0.5206100000000 1.0
C      1  0.5390780000000  0.3672470000000  0.5284580000000 1.0
C      1  0.5896920000000  0.4761150000000  0.5125610000000 1.0
C      1  0.5932630000000  0.4787960000000  0.4834710000000 1.0
C      1  0.4973600000000  0.4856830000000  0.4631430000000 1.0
C      1  0.4898020000000  0.4953830000000  0.5206160000000 1.0
C      1  0.5023600000000  0.5563620000000  0.6018950000000 1.0
C      1  0.5007450000000  0.5408720000000  0.4146530000000 1.0
C      1  0.4758170000000  0.5617410000000  0.4485550000000 1.0
C      1  0.4776580000000  0.5550420000000  0.5585850000000 1.0
C      1  0.5324870000000  0.5381970000000  0.4756760000000 1.0
C      1  0.5331510000000  0.5382760000000  0.5278230000000 1.0
C      1  0.4683770000000  0.5762250000000  0.4915310000000 1.0
C      1  0.4706090000000  0.5788800000000  0.5179180000000 1.0
C      1  0.5138110000000  0.5388750000000  0.3898080000000 1.0
C      1  0.5153460000000  0.5370890000000  0.6151670000000 1.0
C      1  0.4474040000000  0.5630990000000  0.4447870000000 1.0
C      1  0.4514340000000  0.5406950000000  0.5616390000000 1.0
C      1  0.4492970000000  0.4601810000000  0.5138790000000 1.0
C      1  0.4598200000000  0.4677370000000  0.4856870000000 1.0
C      1  0.4193460000000  0.5022670000000  0.4797270000000 1.0
C      1  0.4210010000000  0.5042480000000  0.5073040000000 1.0
C      1  0.5330630000000  0.5145140000000  0.4601850000000 1.0
C      1  0.5296000000000  0.5122170000000  0.5375990000000 1.0
C      1  0.5323180000000  0.4770800000000  0.4278160000000 1.0
C      1  0.5536430000000  0.4678630000000  0.5695290000000 1.0
C      1  0.5097750000000  0.5505340000000  0.5172090000000 1.0
C      1  0.5089210000000  0.5486620000000  0.4881570000000 1.0
C      1  0.4667710000000  0.5263990000000  0.4832930000000 1.0
C      1  0.4697240000000  0.5126190000000  0.5080930000000 1.0
C      1  0.5715470000000  0.5884920000000  0.4871060000000 1.0
C      1  0.5709100000000  0.5883930000000  0.5145480000000 1.0
C      1  0.5145980000000  0.4420140000000  0.5507130000000 1.0
C      1  0.5108060000000  0.4366060000000  0.4473920000000 1.0
C      1  0.4646530000000  0.4181080000000  0.5304400000000 1.0
C      1  0.4593140000000  0.4172160000000  0.4695240000000 1.0
C      1  0.5035070000000  0.4703070000000  0.5092670000000 1.0
C      1  0.4905250000000  0.4656070000000  0.4828720000000 1.0
C      1  0.5317660000000  0.5151680000000  0.6090610000000 1.0
C      1  0.5332850000000  0.5183760000000  0.3878210000000 1.0
C      1  0.4304220000000  0.5484520000000  0.4629500000000 1.0
C      1  0.4301120000000  0.5382620000000  0.5375360000000 1.0
C      1  0.4005830000000  0.5190080000000  0.5436570000000 1.0
C      1  0.3864550000000  0.4786520000000  0.4510630000000 1.0
C      1  0.5569730000000  0.4946480000000  0.4211120000000 1.0
C      1  0.5594780000000  0.4932320000000  0.5770900000000 1.0
C      1  0.4406490000000  0.5200340000000  0.4662480000000 1.0
C      1  0.4442990000000  0.5141220000000  0.5230240000000 1.0
C      1  0.4218040000000  0.5568640000000  0.5151170000000 1.0
C      1  0.4198710000000  0.5588360000000  0.4878410000000 1.0
C      1  0.5588070000000  0.5429050000000  0.4878230000000 1.0
C      1  0.5590710000000  0.5415720000000  0.5161070000000 1.0
C      1  0.5509090000000  0.5184550000000  0.5875540000000 1.0
C      1  0.5534320000000  0.5207580000000  0.4091140000000 1.0
C      1  0.4313280000000  0.4284120000000  0.4885280000000 1.0
C      1  0.4438120000000  0.4311090000000  0.5142580000000 1.0
C      1  0.4933830000000  0.4531500000000  0.4051170000000 1.0
C      1  0.4908380000000  0.4562900000000  0.5930770000000 1.0
C      1  0.4512450000000  0.5120180000000  0.5712140000000 1.0
C      1  0.4671670000000  0.5046450000000  0.4237220000000 1.0
C      1  0.4644910000000  0.4226130000000  0.4398750000000 1.0
C      1  0.4685860000000  0.4244020000000  0.5590840000000 1.0
C      1  0.5160120000000  0.6077790000000  0.5158820000000 1.0
C      1  0.5161690000000  0.6065830000000  0.4888770000000 1.0
C      1  0.5452500000000  0.4733700000000  0.4822110000000 1.0
C      1  0.5328440000000  0.4763380000000  0.5067820000000 1.0
C      1  0.5235760000000  0.4913360000000  0.3826680000000 1.0
C      1  0.5246870000000  0.4885700000000  0.6159270000000 1.0
C      1  0.5360550000000  0.4504630000000  0.4436510000000 1.0
C      1  0.5433590000000  0.4468190000000  0.5530140000000 1.0
C      1  0.4070120000000  0.4554440000000  0.4904290000000 1.0
C      1  0.3951640000000  0.4677870000000  0.5161220000000 1.0
C      1  0.5665860000000  0.5810230000000  0.4610850000000 1.0
C      1  0.5650250000000  0.5811250000000  0.5404030000000 1.0
C      1  0.4900910000000  0.4339080000000  0.4276190000000 1.0
C      1  0.4928460000000  0.4384960000000  0.5699020000000 1.0
C      1  0.5460790000000  0.4923520000000  0.5259600000000 1.0
C      1  0.5534900000000  0.4968540000000  0.4690580000000 1.0
C      1  0.5209000000000  0.5799270000000  0.5620240000000 1.0
C      1  0.5216390000000  0.5780260000000  0.4425910000000 1.0
C      1  0.5159020000000  0.5998270000000  0.5417830000000 1.0
C      1  0.5168370000000  0.5974270000000  0.4634380000000 1.0
C      1  0.4408260000000  0.4339390000000  0.4289540000000 1.0
C      1  0.4439100000000  0.4318460000000  0.5711450000000 1.0
C      1  0.5545820000000  0.5447480000000  0.5758080000000 1.0
C      1  0.5565710000000  0.5463030000000  0.4232660000000 1.0
C      1  0.4476770000000  0.4965630000000  0.5469960000000 1.0
C      1  0.4519890000000  0.5001680000000  0.4470810000000 1.0
C      1  0.4937210000000  0.5154490000000  0.4261200000000 1.0
C      1  0.4969120000000  0.5032960000000  0.5698010000000 1.0
C      1  0.5518800000000  0.4248210000000  0.4856880000000 1.0
C      1  0.5531590000000  0.4168490000000  0.5129000000000 1.0
C      1  0.4607010000000  0.4894120000000  0.4008100000000 1.0
C      1  0.4559000000000  0.4961960000000  0.5939420000000 1.0
C      1  0.4334500000000  0.4567440000000  0.4411150000000 1.0
C      1  0.4313700000000  0.4532240000000  0.5602210000000 1.0
C      1  0.4048710000000  0.4783520000000  0.4713490000000 1.0
C      1  0.3994630000000  0.4961170000000  0.5249720000000 1.0
C      1  0.5614380000000  0.4364450000000  0.5322540000000 1.0
C      1  0.5549720000000  0.4487130000000  0.4680230000000 1.0
C      1  0.5036340000000  0.5043860000000  0.5438450000000 1.0
C      1  0.5133710000000  0.4993620000000  0.4428440000000 1.0
C      1  0.4430000000000  0.4700250000000  0.5405100000000 1.0
C      1  0.4483010000000  0.4737050000000  0.4583600000000 1.0
C      1  0.4994520000000  0.4387700000000  0.4730360000000 1.0
C      1  0.5040980000000  0.4431750000000  0.5239470000000 1.0
C      1  0.5815510000000  0.5031550000000  0.4724770000000 1.0
C      1  0.5745520000000  0.4971080000000  0.5248430000000 1.0
C      1  0.5132140000000  0.4655180000000  0.6079370000000 1.0
C      1  0.5170400000000  0.4705630000000  0.4019650000000 1.0
C      1  0.4990180000000  0.5630150000000  0.4322120000000 1.0
C      1  0.4988070000000  0.5657290000000  0.5757050000000 1.0
C      1  0.4811760000000  0.5528720000000  0.4768100000000 1.0
C      1  0.4862910000000  0.5600530000000  0.5316320000000 1.0
END
