TITL C-3623288-6813-933 0.000869331314001816 125000 -521.825653391515 0 0 87 (C1) n - 1
REM
REM in /home/nfs/bkarasulu/CARBON/AIRSS/Generating-Clusters/LCBOP/Higher-Symm/SD-CG/FIRE-CG
REM
REM
REM
REM
REM
REM ./C.cell (b20cbc046b6831c77cfcea5457e17084)
REM AIRSS Version 0.9.1 bugfix July 2018 build 013d7b7c2542+ Fri, 06 Jul 2018 19:26:36 +0100
REM compiler GCC version 9.2.1 20190827 (Red Hat 9.2.1-1)
REM options -cpp -mtune=generic -march=x86-64 -g -O0 -fpre-include=/usr/include/finclude/math-vector-fortran.h
REM seed -2092765192 1195440995 576342821 728328002 -955618601 -1721924142 -2034316981 -1409508374 -379115414 403507150 -2006549274 -1230270629 -401808850 770631765 -2077555290 577770964 2093096075 989443231 -1717808682 -1617077875 -581562546 -170633489 2017551134 -892416660 1673974904 -287432927 -674116491 -2103589039 2107551193 -1515822669 1102494914 -987725578 971161106
REM
CELL 1.54180   50.00000   50.00000   50.00000   90.00000   90.00000   90.00000
LATT -1
SFAC C  
C      1  0.4601970000000  0.5436370000000  0.4425450000000 1.0
C      1  0.3901770000000  0.5124190000000  0.5307370000000 1.0
C      1  0.4848290000000  0.5375580000000  0.5836740000000 1.0
C      1  0.5642330000000  0.5431460000000  0.5315940000000 1.0
C      1  0.5893270000000  0.4847280000000  0.4027000000000 1.0
C      1  0.4971880000000  0.4513620000000  0.4274680000000 1.0
C      1  0.4337690000000  0.4413100000000  0.4880980000000 1.0
C      1  0.4730910000000  0.4433110000000  0.5612660000000 1.0
C      1  0.5522000000000  0.4492170000000  0.5506440000000 1.0
C      1  0.5702110000000  0.4459640000000  0.4656660000000 1.0
C      1  0.5307480000000  0.4889610000000  0.5677860000000 1.0
C      1  0.5736600000000  0.4877150000000  0.4892200000000 1.0
C      1  0.5192510000000  0.4940540000000  0.4232600000000 1.0
C      1  0.4344580000000  0.4810960000000  0.4615770000000 1.0
C      1  0.4428980000000  0.4786560000000  0.5505320000000 1.0
C      1  0.4040030000000  0.5177350000000  0.4468850000000 1.0
C      1  0.4003020000000  0.4665660000000  0.5740900000000 1.0
C      1  0.5380340000000  0.5106930000000  0.6125280000000 1.0
C      1  0.6112100000000  0.5209870000000  0.4912400000000 1.0
C      1  0.5351430000000  0.4958940000000  0.3758410000000 1.0
C      1  0.4996640000000  0.4312110000000  0.4454170000000 1.0
C      1  0.4547350000000  0.4245980000000  0.4891560000000 1.0
C      1  0.4827470000000  0.4263380000000  0.5429120000000 1.0
C      1  0.5416390000000  0.4304090000000  0.5344820000000 1.0
C      1  0.5532160000000  0.4268980000000  0.4736980000000 1.0
C      1  0.4754200000000  0.4963340000000  0.5172370000000 1.0
C      1  0.5033660000000  0.4928300000000  0.5233690000000 1.0
C      1  0.5226190000000  0.4860140000000  0.4994680000000 1.0
C      1  0.5222190000000  0.5073140000000  0.4755180000000 1.0
C      1  0.4825500000000  0.4783990000000  0.4722620000000 1.0
C      1  0.6127440000000  0.4809620000000  0.3908980000000 1.0
C      1  0.4426740000000  0.5629740000000  0.4317950000000 1.0
C      1  0.3978310000000  0.5354130000000  0.5422890000000 1.0
C      1  0.4868820000000  0.5554020000000  0.6051420000000 1.0
C      1  0.5813810000000  0.5649850000000  0.5273130000000 1.0
C      1  0.5029090000000  0.4204310000000  0.4714820000000 1.0
C      1  0.4820600000000  0.4192160000000  0.4924090000000 1.0
C      1  0.4951090000000  0.4201230000000  0.5185870000000 1.0
C      1  0.5239730000000  0.4213810000000  0.5145460000000 1.0
C      1  0.5288320000000  0.4202950000000  0.4856980000000 1.0
C      1  0.4246630000000  0.4843560000000  0.5085650000000 1.0
C      1  0.4848520000000  0.4897230000000  0.5693030000000 1.0
C      1  0.5605910000000  0.4926740000000  0.5328900000000 1.0
C      1  0.5606280000000  0.4880720000000  0.4437740000000 1.0
C      1  0.4698430000000  0.4918320000000  0.4307120000000 1.0
C      1  0.5967480000000  0.5854970000000  0.5225990000000 1.0
C      1  0.6357930000000  0.4772120000000  0.3793080000000 1.0
C      1  0.4267070000000  0.5815210000000  0.4228380000000 1.0
C      1  0.4185630000000  0.5473860000000  0.5541130000000 1.0
C      1  0.4895440000000  0.5719920000000  0.6250610000000 1.0
C      1  0.4868800000000  0.5547040000000  0.4864290000000 1.0
C      1  0.4704230000000  0.5592810000000  0.5098780000000 1.0
C      1  0.4856410000000  0.5529360000000  0.5345860000000 1.0
C      1  0.5138580000000  0.5500440000000  0.5263990000000 1.0
C      1  0.5135840000000  0.5490590000000  0.4974230000000 1.0
C      1  0.5228370000000  0.5042980000000  0.5909890000000 1.0
C      1  0.5883870000000  0.5098400000000  0.5008320000000 1.0
C      1  0.5394700000000  0.4929020000000  0.4024800000000 1.0
C      1  0.4284810000000  0.5060320000000  0.4484310000000 1.0
C      1  0.4144370000000  0.4767040000000  0.5533120000000 1.0
C      1  0.4237340000000  0.5841840000000  0.5016110000000 1.0
C      1  0.4443880000000  0.5498670000000  0.5601130000000 1.0
C      1  0.5368220000000  0.5580670000000  0.5679200000000 1.0
C      1  0.5540510000000  0.5455350000000  0.4708080000000 1.0
C      1  0.5011830000000  0.5680290000000  0.4428380000000 1.0
C      1  0.4260830000000  0.4685400000000  0.4853050000000 1.0
C      1  0.4649980000000  0.4701350000000  0.5655070000000 1.0
C      1  0.5527430000000  0.4774080000000  0.5550260000000 1.0
C      1  0.5729990000000  0.4740330000000  0.4647050000000 1.0
C      1  0.4947640000000  0.4798190000000  0.4223000000000 1.0
C      1  0.5743410000000  0.5171560000000  0.5258510000000 1.0
C      1  0.5650270000000  0.4882830000000  0.4153990000000 1.0
C      1  0.4536430000000  0.5162940000000  0.4362210000000 1.0
C      1  0.4036040000000  0.4878820000000  0.5284160000000 1.0
C      1  0.4942240000000  0.5109000000000  0.5869230000000 1.0
C      1  0.5074580000000  0.4877040000000  0.5506980000000 1.0
C      1  0.5511940000000  0.4824930000000  0.5071620000000 1.0
C      1  0.5334560000000  0.4972030000000  0.4489740000000 1.0
C      1  0.4613760000000  0.4749080000000  0.4540030000000 1.0
C      1  0.4495020000000  0.4880230000000  0.5235440000000 1.0
C      1  0.5378520000000  0.5492820000000  0.5418400000000 1.0
C      1  0.5317800000000  0.5344140000000  0.4820080000000 1.0
C      1  0.4822440000000  0.5545910000000  0.4579790000000 1.0
C      1  0.4454730000000  0.5712890000000  0.5079900000000 1.0
C      1  0.4724860000000  0.5468220000000  0.5592790000000 1.0
C      1  0.5042690000000  0.4654100000000  0.4860090000000 1.0
C      1  0.4923320000000  0.5059480000000  0.4706670000000 1.0
END
