TITL C-3623283-6828-1615 0.6505403658993 125000 -770.728164653652 0 0 125 (C1) n - 1
REM
REM in /home/nfs/bkarasulu/CARBON/AIRSS/Generating-Clusters/LCBOP/Higher-Symm/SD-CG/FIRE-CG
REM
REM
REM
REM
REM
REM ./C.cell (b20cbc046b6831c77cfcea5457e17084)
REM AIRSS Version 0.9.1 bugfix July 2018 build 013d7b7c2542+ Fri, 06 Jul 2018 19:26:36 +0100
REM compiler GCC version 9.2.1 20190827 (Red Hat 9.2.1-1)
REM options -cpp -mtune=generic -march=x86-64 -g -O0 -fpre-include=/usr/include/finclude/math-vector-fortran.h
REM seed 1891451656 1736284299 -711600765 787885366 -1703677313 -101455790 261287282 528970031 1442566998 -1294225396 441645205 1980700744 -1844903496 -361222267 1733651680 -1303681817 -1079996085 1434366318 -933350669 -1829509284 -1367052157 -1848926717 64984909 -1543054637 -546066818 -370231314 -1219659486 -1094740160 -1299262757 570517533 -983415903 1966949972 -556568771
REM
CELL 1.54180   50.00000   50.00000   50.00000   90.00000   90.00000   90.00000
LATT -1
SFAC C  
C      1  0.5360010000000  0.4754090000000  0.5081830000000 1.0
C      1  0.5274420000000  0.4563610000000  0.5304940000000 1.0
C      1  0.4666700000000  0.4667670000000  0.5986000000000 1.0
C      1  0.5136020000000  0.5913960000000  0.4541580000000 1.0
C      1  0.3859780000000  0.4902550000000  0.4943640000000 1.0
C      1  0.4561940000000  0.5305880000000  0.5554440000000 1.0
C      1  0.5736460000000  0.4679040000000  0.5799830000000 1.0
C      1  0.5845790000000  0.4608050000000  0.5539460000000 1.0
C      1  0.5290420000000  0.5614760000000  0.5717440000000 1.0
C      1  0.5178440000000  0.4854910000000  0.5663530000000 1.0
C      1  0.4958910000000  0.4913620000000  0.5489300000000 1.0
C      1  0.5203430000000  0.5257870000000  0.4403350000000 1.0
C      1  0.4009190000000  0.4610280000000  0.5284590000000 1.0
C      1  0.5197450000000  0.4513490000000  0.4402730000000 1.0
C      1  0.4359290000000  0.5106220000000  0.4974450000000 1.0
C      1  0.4531270000000  0.4968480000000  0.4346370000000 1.0
C      1  0.5044080000000  0.5328420000000  0.4881430000000 1.0
C      1  0.4319800000000  0.4258430000000  0.5240650000000 1.0
C      1  0.5113820000000  0.3626030000000  0.5375070000000 1.0
C      1  0.5443130000000  0.5799540000000  0.5273450000000 1.0
C      1  0.4436060000000  0.4675180000000  0.5818640000000 1.0
C      1  0.5227200000000  0.6009680000000  0.5243880000000 1.0
C      1  0.5853550000000  0.5600870000000  0.5112580000000 1.0
C      1  0.4049150000000  0.4791900000000  0.4758770000000 1.0
C      1  0.4712160000000  0.5523140000000  0.6004570000000 1.0
C      1  0.4884890000000  0.5551330000000  0.4957130000000 1.0
C      1  0.4605390000000  0.5373710000000  0.3745230000000 1.0
C      1  0.6133250000000  0.4920630000000  0.4441970000000 1.0
C      1  0.4337120000000  0.4914150000000  0.5710890000000 1.0
C      1  0.5494770000000  0.5391390000000  0.4775590000000 1.0
C      1  0.4866540000000  0.4225190000000  0.5673690000000 1.0
C      1  0.3532540000000  0.5694360000000  0.5551510000000 1.0
C      1  0.5648870000000  0.5330270000000  0.5438800000000 1.0
C      1  0.4449160000000  0.5435440000000  0.4415780000000 1.0
C      1  0.4507520000000  0.4846720000000  0.4597110000000 1.0
C      1  0.4501350000000  0.5519260000000  0.4678450000000 1.0
C      1  0.4668290000000  0.4047470000000  0.5005880000000 1.0
C      1  0.4739150000000  0.5661470000000  0.4738390000000 1.0
C      1  0.5475100000000  0.5575230000000  0.5493600000000 1.0
C      1  0.5291100000000  0.4185540000000  0.4754680000000 1.0
C      1  0.4526760000000  0.6046280000000  0.5501340000000 1.0
C      1  0.4882160000000  0.3640330000000  0.5241870000000 1.0
C      1  0.6270660000000  0.4935730000000  0.3454360000000 1.0
C      1  0.5554630000000  0.4295190000000  0.4726060000000 1.0
C      1  0.5883600000000  0.4875460000000  0.5424210000000 1.0
C      1  0.5625920000000  0.5197950000000  0.4959100000000 1.0
C      1  0.4997160000000  0.4496260000000  0.5251150000000 1.0
C      1  0.5215760000000  0.5473210000000  0.5954660000000 1.0
C      1  0.5623820000000  0.4944230000000  0.5794200000000 1.0
C      1  0.5638110000000  0.4162250000000  0.5320880000000 1.0
C      1  0.5733720000000  0.5090190000000  0.5568330000000 1.0
C      1  0.5115390000000  0.4999220000000  0.4344120000000 1.0
C      1  0.4486550000000  0.5269070000000  0.3959200000000 1.0
C      1  0.5039970000000  0.5108970000000  0.5055300000000 1.0
C      1  0.4880220000000  0.5838840000000  0.4572330000000 1.0
C      1  0.4206220000000  0.5662200000000  0.5322190000000 1.0
C      1  0.5118730000000  0.4859620000000  0.4950620000000 1.0
C      1  0.4594120000000  0.4244700000000  0.5667570000000 1.0
C      1  0.5978910000000  0.4859470000000  0.4650100000000 1.0
C      1  0.4481890000000  0.5222420000000  0.4234050000000 1.0
C      1  0.5524280000000  0.5682420000000  0.4798040000000 1.0
C      1  0.5382510000000  0.5854550000000  0.4627920000000 1.0
C      1  0.3751520000000  0.5584290000000  0.5462930000000 1.0
C      1  0.5238760000000  0.5323480000000  0.4675900000000 1.0
C      1  0.5734250000000  0.4757210000000  0.4742260000000 1.0
C      1  0.5251920000000  0.4575170000000  0.5606130000000 1.0
C      1  0.4772410000000  0.5340930000000  0.5372740000000 1.0
C      1  0.5423020000000  0.3998870000000  0.5236480000000 1.0
C      1  0.4406070000000  0.5078750000000  0.5493720000000 1.0
C      1  0.5624340000000  0.4534890000000  0.4599290000000 1.0
C      1  0.4077280000000  0.4500750000000  0.4771880000000 1.0
C      1  0.5630640000000  0.5766430000000  0.5049140000000 1.0
C      1  0.3967960000000  0.5172720000000  0.5334470000000 1.0
C      1  0.5792570000000  0.4706770000000  0.3957890000000 1.0
C      1  0.5071650000000  0.5559760000000  0.3741490000000 1.0
C      1  0.5271700000000  0.4053280000000  0.5000900000000 1.0
C      1  0.5589560000000  0.4898430000000  0.4951260000000 1.0
C      1  0.4833450000000  0.5579020000000  0.5237100000000 1.0
C      1  0.6039560000000  0.4838220000000  0.3936080000000 1.0
C      1  0.5763290000000  0.5338120000000  0.5173150000000 1.0
C      1  0.4760390000000  0.6096400000000  0.5020310000000 1.0
C      1  0.4435410000000  0.4976840000000  0.5223540000000 1.0
C      1  0.4827700000000  0.5491850000000  0.3657010000000 1.0
C      1  0.4590070000000  0.4737080000000  0.5205950000000 1.0
C      1  0.3990280000000  0.5465700000000  0.5367000000000 1.0
C      1  0.4953280000000  0.5136430000000  0.5322330000000 1.0
C      1  0.6383420000000  0.4983310000000  0.3219240000000 1.0
C      1  0.5232070000000  0.5537250000000  0.3953190000000 1.0
C      1  0.6494320000000  0.5030100000000  0.2987990000000 1.0
C      1  0.4381840000000  0.4441590000000  0.5663410000000 1.0
C      1  0.5082660000000  0.5790310000000  0.5641500000000 1.0
C      1  0.5351060000000  0.4990600000000  0.5839410000000 1.0
C      1  0.4740250000000  0.3804010000000  0.5086370000000 1.0
C      1  0.5597860000000  0.4607410000000  0.4109360000000 1.0
C      1  0.4278290000000  0.4352860000000  0.4620490000000 1.0
C      1  0.3927210000000  0.4901010000000  0.5229990000000 1.0
C      1  0.4965060000000  0.4758970000000  0.4733480000000 1.0
C      1  0.5477990000000  0.4550650000000  0.4353230000000 1.0
C      1  0.6160510000000  0.4916590000000  0.4176940000000 1.0
C      1  0.3960860000000  0.4442850000000  0.5033600000000 1.0
C      1  0.4775240000000  0.6171070000000  0.5469560000000 1.0
C      1  0.4590380000000  0.4558510000000  0.4982080000000 1.0
C      1  0.5290230000000  0.5209730000000  0.5995000000000 1.0
C      1  0.4955110000000  0.6134740000000  0.5234620000000 1.0
C      1  0.4916510000000  0.5753030000000  0.5436650000000 1.0
C      1  0.5054890000000  0.4419210000000  0.5770000000000 1.0
C      1  0.4560540000000  0.5435240000000  0.5802630000000 1.0
C      1  0.4290980000000  0.4933590000000  0.4755020000000 1.0
C      1  0.4691500000000  0.4691280000000  0.4749400000000 1.0
C      1  0.4386350000000  0.5373980000000  0.4893430000000 1.0
C      1  0.4210790000000  0.4445860000000  0.5429720000000 1.0
C      1  0.4382720000000  0.5892670000000  0.5295960000000 1.0
C      1  0.5789320000000  0.4364000000000  0.5413780000000 1.0
C      1  0.4921360000000  0.4571330000000  0.5978870000000 1.0
C      1  0.4805310000000  0.4232100000000  0.4532910000000 1.0
C      1  0.5072260000000  0.4756770000000  0.4472270000000 1.0
C      1  0.4529040000000  0.4285060000000  0.5053130000000 1.0
C      1  0.4969990000000  0.5549010000000  0.6074750000000 1.0
C      1  0.6157970000000  0.4888190000000  0.3689310000000 1.0
C      1  0.5267570000000  0.5432100000000  0.4194840000000 1.0
C      1  0.5094180000000  0.4280750000000  0.4554580000000 1.0
C      1  0.4818910000000  0.4693360000000  0.5362490000000 1.0
C      1  0.4507140000000  0.5987030000000  0.5048980000000 1.0
C      1  0.4530320000000  0.4268410000000  0.4539790000000 1.0
C      1  0.5336290000000  0.3775710000000  0.5384220000000 1.0
END
