TITL C-3623285-6872-1434 456.47034346436 125000 -1131.79054110745 0 0 190 (C1) n - 1
REM
REM in /home/nfs/bkarasulu/CARBON/AIRSS/Generating-Clusters/LCBOP/Higher-Symm/SD-CG/FIRE-CG
REM
REM
REM
REM
REM
REM ./C.cell (b20cbc046b6831c77cfcea5457e17084)
REM AIRSS Version 0.9.1 bugfix July 2018 build 013d7b7c2542+ Fri, 06 Jul 2018 19:26:36 +0100
REM compiler GCC version 9.2.1 20190827 (Red Hat 9.2.1-1)
REM options -cpp -mtune=generic -march=x86-64 -g -O0 -fpre-include=/usr/include/finclude/math-vector-fortran.h
REM seed -198533599 -800021434 -1505629577 -949829876 -1741341511 -940961473 -1900260706 -1838021409 -1368789564 1234975197 1005068604 1991739958 -1375589741 -1410194175 -1469594611 -279160324 958196130 2125560196 220769593 -1997043931 1021039907 -613862597 786724692 1591937525 -1975110735 -1655651071 -1410421438 -2082222860 -1790707250 -1834360749 -873102750 -1200807983 -1908617694
REM
CELL 1.54180   50.00000   50.00000   50.00000   90.00000   90.00000   90.00000
LATT -1
SFAC C  
C      1  0.4893620000000  0.5178040000000  0.4360210000000 1.0
C      1  0.5010480000000  0.5453030000000  0.4829620000000 1.0
C      1  0.4995720000000  0.5265360000000  0.5353700000000 1.0
C      1  0.4907680000000  0.4730000000000  0.5472760000000 1.0
C      1  0.4723150000000  0.4325310000000  0.5208140000000 1.0
C      1  0.4695030000000  0.4248890000000  0.4725670000000 1.0
C      1  0.4901780000000  0.4602860000000  0.4348760000000 1.0
C      1  0.5418580000000  0.5192690000000  0.4234180000000 1.0
C      1  0.5439710000000  0.5772830000000  0.4678740000000 1.0
C      1  0.5375110000000  0.5732510000000  0.5372170000000 1.0
C      1  0.5369160000000  0.5182750000000  0.5789840000000 1.0
C      1  0.5420020000000  0.4488920000000  0.5620490000000 1.0
C      1  0.5429430000000  0.4241980000000  0.4986750000000 1.0
C      1  0.5510000000000  0.4511730000000  0.4361000000000 1.0
C      1  0.5065160000000  0.5346330000000  0.5089720000000 1.0
C      1  0.5011930000000  0.4992930000000  0.5433520000000 1.0
C      1  0.4832720000000  0.4588930000000  0.5234940000000 1.0
C      1  0.4545980000000  0.4295950000000  0.4981150000000 1.0
C      1  0.4816230000000  0.4489560000000  0.4603720000000 1.0
C      1  0.4931410000000  0.4892680000000  0.4323080000000 1.0
C      1  0.4902840000000  0.5270830000000  0.4635950000000 1.0
C      1  0.5903330000000  0.5763540000000  0.4382650000000 1.0
C      1  0.5952000000000  0.5984760000000  0.5200450000000 1.0
C      1  0.5933940000000  0.5498450000000  0.5875890000000 1.0
C      1  0.5919390000000  0.4666160000000  0.5919570000000 1.0
C      1  0.6039460000000  0.4131490000000  0.5285820000000 1.0
C      1  0.6066720000000  0.4277270000000  0.4478020000000 1.0
C      1  0.6034750000000  0.5006350000000  0.4073640000000 1.0
C      1  0.5178680000000  0.5922040000000  0.5383900000000 1.0
C      1  0.5195670000000  0.5290610000000  0.5972200000000 1.0
C      1  0.5244880000000  0.4388470000000  0.5805130000000 1.0
C      1  0.5211370000000  0.4086260000000  0.5033870000000 1.0
C      1  0.5396570000000  0.4298870000000  0.4232070000000 1.0
C      1  0.5298210000000  0.5154090000000  0.3990130000000 1.0
C      1  0.5328070000000  0.5967270000000  0.4519720000000 1.0
C      1  0.4256500000000  0.5238490000000  0.4515500000000 1.0
C      1  0.4293450000000  0.5476310000000  0.4701790000000 1.0
C      1  0.4414260000000  0.5468550000000  0.4977810000000 1.0
C      1  0.4435280000000  0.4914380000000  0.5384330000000 1.0
C      1  0.4306650000000  0.4638990000000  0.5346330000000 1.0
C      1  0.4248730000000  0.4459440000000  0.5034270000000 1.0
C      1  0.4231700000000  0.4672730000000  0.4780920000000 1.0
C      1  0.4024810000000  0.5564320000000  0.4746720000000 1.0
C      1  0.4215020000000  0.5547350000000  0.5179270000000 1.0
C      1  0.4245350000000  0.5113930000000  0.5501540000000 1.0
C      1  0.4050990000000  0.4672840000000  0.5479430000000 1.0
C      1  0.3901050000000  0.4440780000000  0.5079770000000 1.0
C      1  0.3943620000000  0.4662340000000  0.4651980000000 1.0
C      1  0.3975020000000  0.5160200000000  0.4474120000000 1.0
C      1  0.5636200000000  0.4021960000000  0.4574450000000 1.0
C      1  0.5624570000000  0.4755560000000  0.3940430000000 1.0
C      1  0.5417390000000  0.5690090000000  0.4171740000000 1.0
C      1  0.5510990000000  0.6127210000000  0.5025040000000 1.0
C      1  0.5483730000000  0.5718980000000  0.5865000000000 1.0
C      1  0.5434430000000  0.4771610000000  0.6069150000000 1.0
C      1  0.5586250000000  0.4031650000000  0.5474350000000 1.0
C      1  0.6046130000000  0.4378980000000  0.5444260000000 1.0
C      1  0.6102010000000  0.4324880000000  0.4763510000000 1.0
C      1  0.6085040000000  0.4809990000000  0.4285730000000 1.0
C      1  0.5999530000000  0.5486030000000  0.4362690000000 1.0
C      1  0.5991800000000  0.5831500000000  0.4949630000000 1.0
C      1  0.5990960000000  0.5586660000000  0.5601980000000 1.0
C      1  0.5977820000000  0.4938840000000  0.5824160000000 1.0
C      1  0.3488440000000  0.5446970000000  0.4894980000000 1.0
C      1  0.3578710000000  0.5478670000000  0.5191980000000 1.0
C      1  0.3604590000000  0.5271320000000  0.5418780000000 1.0
C      1  0.3520330000000  0.4983240000000  0.5432840000000 1.0
C      1  0.3417500000000  0.4821850000000  0.5193160000000 1.0
C      1  0.3392880000000  0.4904990000000  0.4897380000000 1.0
C      1  0.3418180000000  0.5178800000000  0.4772310000000 1.0
C      1  0.5561380000000  0.4744090000000  0.4219960000000 1.0
C      1  0.5426060000000  0.5450410000000  0.4333210000000 1.0
C      1  0.5492130000000  0.5854220000000  0.4937610000000 1.0
C      1  0.5460370000000  0.5606520000000  0.5602930000000 1.0
C      1  0.5426310000000  0.4914800000000  0.5820340000000 1.0
C      1  0.5525570000000  0.4309320000000  0.5438530000000 1.0
C      1  0.5554520000000  0.4240480000000  0.4740550000000 1.0
C      1  0.3725050000000  0.5182980000000  0.4047430000000 1.0
C      1  0.4077440000000  0.5745820000000  0.4331110000000 1.0
C      1  0.4139330000000  0.6017800000000  0.5318360000000 1.0
C      1  0.4203030000000  0.5337910000000  0.5946970000000 1.0
C      1  0.4134430000000  0.4707470000000  0.5945640000000 1.0
C      1  0.3616570000000  0.4060530000000  0.5214470000000 1.0
C      1  0.3669020000000  0.4345240000000  0.4376300000000 1.0
C      1  0.6029760000000  0.4946090000000  0.4527240000000 1.0
C      1  0.5991730000000  0.5383080000000  0.4627750000000 1.0
C      1  0.5972680000000  0.5559880000000  0.5035120000000 1.0
C      1  0.5969280000000  0.5356980000000  0.5439080000000 1.0
C      1  0.5980220000000  0.4920720000000  0.5540800000000 1.0
C      1  0.6013650000000  0.4583800000000  0.5250080000000 1.0
C      1  0.6043530000000  0.4597090000000  0.4806250000000 1.0
C      1  0.4910200000000  0.4456140000000  0.4109930000000 1.0
C      1  0.4720700000000  0.5344670000000  0.4200950000000 1.0
C      1  0.4941950000000  0.5727580000000  0.4813380000000 1.0
C      1  0.4884030000000  0.5453710000000  0.5533520000000 1.0
C      1  0.4781510000000  0.4666470000000  0.5714540000000 1.0
C      1  0.4774370000000  0.4115690000000  0.5384580000000 1.0
C      1  0.4769430000000  0.3994940000000  0.4633100000000 1.0
C      1  0.5495880000000  0.5498930000000  0.4601700000000 1.0
C      1  0.5496600000000  0.5650950000000  0.5128660000000 1.0
C      1  0.5490350000000  0.5327620000000  0.5575740000000 1.0
C      1  0.5492150000000  0.4766340000000  0.5591530000000 1.0
C      1  0.5541800000000  0.4416530000000  0.5179890000000 1.0
C      1  0.5584100000000  0.4500200000000  0.4635300000000 1.0
C      1  0.5548130000000  0.4980850000000  0.4373690000000 1.0
C      1  0.4874730000000  0.5779460000000  0.4125000000000 1.0
C      1  0.5025760000000  0.6199040000000  0.4918880000000 1.0
C      1  0.4985880000000  0.5774060000000  0.5892550000000 1.0
C      1  0.4906250000000  0.4719070000000  0.6166070000000 1.0
C      1  0.5115660000000  0.3823120000000  0.5566260000000 1.0
C      1  0.5183890000000  0.3761560000000  0.4516650000000 1.0
C      1  0.5207830000000  0.4519190000000  0.3734760000000 1.0
C      1  0.5977030000000  0.5210810000000  0.5929450000000 1.0
C      1  0.6004900000000  0.4455710000000  0.5725360000000 1.0
C      1  0.6109830000000  0.4158570000000  0.5001820000000 1.0
C      1  0.6106380000000  0.4517850000000  0.4308250000000 1.0
C      1  0.6041990000000  0.5289280000000  0.4153660000000 1.0
C      1  0.5964150000000  0.5880060000000  0.4656440000000 1.0
C      1  0.5999840000000  0.5839350000000  0.5454210000000 1.0
C      1  0.4844620000000  0.3888070000000  0.5533110000000 1.0
C      1  0.4903120000000  0.3768110000000  0.4534140000000 1.0
C      1  0.4970640000000  0.4410090000000  0.3839130000000 1.0
C      1  0.4633730000000  0.5621940000000  0.4181040000000 1.0
C      1  0.4849310000000  0.5993590000000  0.4838530000000 1.0
C      1  0.4802320000000  0.5657190000000  0.5712200000000 1.0
C      1  0.4688340000000  0.4695440000000  0.5979920000000 1.0
C      1  0.4044770000000  0.5771030000000  0.5251490000000 1.0
C      1  0.4099930000000  0.5266460000000  0.5704730000000 1.0
C      1  0.3933580000000  0.4712950000000  0.5738370000000 1.0
C      1  0.3656290000000  0.4326820000000  0.5174440000000 1.0
C      1  0.3692070000000  0.4545080000000  0.4559320000000 1.0
C      1  0.3731350000000  0.5172580000000  0.4319560000000 1.0
C      1  0.3867890000000  0.5697630000000  0.4549570000000 1.0
C      1  0.4599480000000  0.4998190000000  0.5161680000000 1.0
C      1  0.4742630000000  0.4773950000000  0.5034710000000 1.0
C      1  0.4705780000000  0.4698220000000  0.4763020000000 1.0
C      1  0.4461130000000  0.4767730000000  0.4620370000000 1.0
C      1  0.4461410000000  0.5047780000000  0.4564890000000 1.0
C      1  0.4659290000000  0.5171780000000  0.4734770000000 1.0
C      1  0.4578150000000  0.5232130000000  0.5002110000000 1.0
C      1  0.6201740000000  0.4978140000000  0.5364170000000 1.0
C      1  0.6224900000000  0.4769380000000  0.5179330000000 1.0
C      1  0.6242130000000  0.4786560000000  0.4900400000000 1.0
C      1  0.6232750000000  0.5003760000000  0.4724440000000 1.0
C      1  0.6210050000000  0.5275640000000  0.4784400000000 1.0
C      1  0.6198880000000  0.5378820000000  0.5045450000000 1.0
C      1  0.6196000000000  0.5249460000000  0.5293970000000 1.0
C      1  0.5274330000000  0.6273850000000  0.4989040000000 1.0
C      1  0.5240780000000  0.5816040000000  0.5967450000000 1.0
C      1  0.5177930000000  0.4733020000000  0.6191910000000 1.0
C      1  0.5378710000000  0.3861560000000  0.5551260000000 1.0
C      1  0.5442860000000  0.3825580000000  0.4524310000000 1.0
C      1  0.5445190000000  0.4637700000000  0.3761640000000 1.0
C      1  0.5149130000000  0.5776400000000  0.4100430000000 1.0
C      1  0.3836320000000  0.4727220000000  0.5071080000000 1.0
C      1  0.3826430000000  0.4864280000000  0.4827640000000 1.0
C      1  0.3875750000000  0.5120490000000  0.4744730000000 1.0
C      1  0.3912780000000  0.5347010000000  0.4897650000000 1.0
C      1  0.4024320000000  0.5330540000000  0.5149330000000 1.0
C      1  0.4040230000000  0.5104070000000  0.5297760000000 1.0
C      1  0.3922170000000  0.4855170000000  0.5296110000000 1.0
C      1  0.5681160000000  0.5403590000000  0.5056400000000 1.0
C      1  0.5677210000000  0.5236470000000  0.5333540000000 1.0
C      1  0.5685130000000  0.4913830000000  0.5375250000000 1.0
C      1  0.5712870000000  0.4682280000000  0.5148380000000 1.0
C      1  0.5731660000000  0.4710530000000  0.4825040000000 1.0
C      1  0.5717900000000  0.4980530000000  0.4646290000000 1.0
C      1  0.5690380000000  0.5290370000000  0.4749480000000 1.0
C      1  0.4650420000000  0.3731230000000  0.5644870000000 1.0
C      1  0.4757810000000  0.3550410000000  0.4453520000000 1.0
C      1  0.4803110000000  0.4262520000000  0.3681630000000 1.0
C      1  0.4346270000000  0.5707290000000  0.4237600000000 1.0
C      1  0.4588640000000  0.6054170000000  0.4781480000000 1.0
C      1  0.4545810000000  0.5751680000000  0.5703780000000 1.0
C      1  0.4400640000000  0.4702940000000  0.6014250000000 1.0
C      1  0.3660890000000  0.4830910000000  0.5670420000000 1.0
C      1  0.3451830000000  0.4528880000000  0.5223860000000 1.0
C      1  0.3456990000000  0.4677420000000  0.4696340000000 1.0
C      1  0.3492050000000  0.5171240000000  0.4485300000000 1.0
C      1  0.3593850000000  0.5652380000000  0.4672760000000 1.0
C      1  0.3760420000000  0.5708960000000  0.5238300000000 1.0
C      1  0.3821380000000  0.5329610000000  0.5623110000000 1.0
C      1  0.5879620000000  0.4067250000000  0.4431340000000 1.0
C      1  0.5854350000000  0.4908800000000  0.3877970000000 1.0
C      1  0.5677680000000  0.5824480000000  0.4205180000000 1.0
C      1  0.5746960000000  0.6180960000000  0.5172380000000 1.0
C      1  0.5724550000000  0.5648670000000  0.5997320000000 1.0
C      1  0.5693880000000  0.4649120000000  0.6100420000000 1.0
C      1  0.5840920000000  0.3951920000000  0.5378800000000 1.0
C      1  0.4229500000000  0.4926700000000  0.4965510000000 1.0
END
