TITL C-3623284-6838-2039 -2.36710524391983e-06 125000 -56.3995301198557 0 0 11 (D2h) n - 1
REM
REM in /home/nfs/bkarasulu/CARBON/AIRSS/Generating-Clusters/LCBOP/Higher-Symm/SD-CG/FIRE-CG
REM
REM
REM
REM
REM
REM ./C.cell (b20cbc046b6831c77cfcea5457e17084)
REM AIRSS Version 0.9.1 bugfix July 2018 build 013d7b7c2542+ Fri, 06 Jul 2018 19:26:36 +0100
REM compiler GCC version 9.2.1 20190827 (Red Hat 9.2.1-1)
REM options -cpp -mtune=generic -march=x86-64 -g -O0 -fpre-include=/usr/include/finclude/math-vector-fortran.h
REM seed 475171687 -771353198 -1807079644 1020260517 133792015 -1701858622 -1702364589 -809481138 -1504530094 -2085861344 962153960 -230974242 -1635921275 -555947880 956802735 -892403334 -1550357926 552268761 829350181 250218593 1384646571 -1638765463 -429755208 921470520 -1158741001 1763078145 833192042 1527651370 -264929189 -1330664945 -987137873 -1792180636 -86947009
REM
CELL 1.54180   50.00000   50.00000   50.00000   90.00000   90.00000   90.00000
LATT -1
SFAC C  
C      1  0.5308050000000  0.5241530000000  0.5343220000000 1.0
C      1  0.4706510000000  0.4803910000000  0.4724980000000 1.0
C      1  0.5341560000000  0.4526130000000  0.5435350000000 1.0
C      1  0.4672820000000  0.5519320000000  0.4633030000000 1.0
C      1  0.5271660000000  0.4758960000000  0.5341400000000 1.0
C      1  0.4742770000000  0.5286490000000  0.4726920000000 1.0
C      1  0.4602600000000  0.4584910000000  0.4629270000000 1.0
C      1  0.5412020000000  0.5460530000000  0.5438880000000 1.0
C      1  0.4818850000000  0.5037710000000  0.4828690000000 1.0
C      1  0.5195640000000  0.5007740000000  0.5239570000000 1.0
C      1  0.5007250000000  0.5022720000000  0.5034130000000 1.0
END
