TITL C-3623283-6828-1412 -1.034398653927e-06 125000 -320.181124876929 0 0 52 (C3) n - 1
REM
REM in /home/nfs/bkarasulu/CARBON/AIRSS/Generating-Clusters/LCBOP/Higher-Symm/SD-CG/FIRE-CG
REM
REM
REM
REM
REM
REM ./C.cell (b20cbc046b6831c77cfcea5457e17084)
REM AIRSS Version 0.9.1 bugfix July 2018 build 013d7b7c2542+ Fri, 06 Jul 2018 19:26:36 +0100
REM compiler GCC version 9.2.1 20190827 (Red Hat 9.2.1-1)
REM options -cpp -mtune=generic -march=x86-64 -g -O0 -fpre-include=/usr/include/finclude/math-vector-fortran.h
REM seed 867578546 -307710016 -1207395821 1807380172 1555430008 -1152146743 -1521681953 -927593771 -516636668 -674719155 -997967821 -1718751215 -1555269635 2070569961 -1132850400 1743361197 -1931926410 1868414459 -552547507 879229197 1451454596 -476713547 -1175002723 -2020566351 -623807195 1642324588 -1123218157 1259565395 1693105916 22815741 -1814241375 1169078285 1986586654
REM
CELL 1.54180   50.00000   50.00000   50.00000   90.00000   90.00000   90.00000
LATT -1
SFAC C  
C      1  0.5642390000000  0.5229220000000  0.5291500000000 1.0
C      1  0.4477550000000  0.5437720000000  0.5291560000000 1.0
C      1  0.4879400000000  0.4324690000000  0.5291530000000 1.0
C      1  0.4870340000000  0.5230330000000  0.5172770000000 1.0
C      1  0.4862600000000  0.4768550000000  0.5172770000000 1.0
C      1  0.5266380000000  0.4992740000000  0.5172750000000 1.0
C      1  0.5138190000000  0.5484810000000  0.5527270000000 1.0
C      1  0.4508310000000  0.4873260000000  0.5527290000000 1.0
C      1  0.5352870000000  0.4633540000000  0.5527240000000 1.0
C      1  0.5052560000000  0.5659950000000  0.5331830000000 1.0
C      1  0.4399440000000  0.4711540000000  0.5331850000000 1.0
C      1  0.5547350000000  0.4620130000000  0.5331790000000 1.0
C      1  0.4605320000000  0.4688460000000  0.4353450000000 1.0
C      1  0.5464320000000  0.4810030000000  0.4353410000000 1.0
C      1  0.4929540000000  0.5493160000000  0.4353440000000 1.0
C      1  0.4409650000000  0.4595450000000  0.5082150000000 1.0
C      1  0.5642770000000  0.4687030000000  0.5082090000000 1.0
C      1  0.4946890000000  0.5709150000000  0.5082140000000 1.0
C      1  0.4775190000000  0.4389070000000  0.4788220000000 1.0
C      1  0.5638700000000  0.5106800000000  0.4788180000000 1.0
C      1  0.4585370000000  0.5495760000000  0.4788240000000 1.0
C      1  0.4839580000000  0.4553270000000  0.4331140000000 1.0
C      1  0.5464280000000  0.5080500000000  0.4331110000000 1.0
C      1  0.4695330000000  0.5357890000000  0.4331150000000 1.0
C      1  0.4470160000000  0.5035710000000  0.4673370000000 1.0
C      1  0.5231200000000  0.4519330000000  0.4673320000000 1.0
C      1  0.5297880000000  0.5436600000000  0.4673330000000 1.0
C      1  0.4724740000000  0.4995080000000  0.5081210000000 1.0
C      1  0.5139130000000  0.4760090000000  0.5081180000000 1.0
C      1  0.5135440000000  0.5236460000000  0.5081190000000 1.0
C      1  0.4702550000000  0.5304760000000  0.5408690000000 1.0
C      1  0.4882050000000  0.4586020000000  0.5408670000000 1.0
C      1  0.5414750000000  0.5100840000000  0.5408650000000 1.0
C      1  0.4853220000000  0.5617530000000  0.4821600000000 1.0
C      1  0.4535810000000  0.4560150000000  0.4821600000000 1.0
C      1  0.5610240000000  0.4813950000000  0.4821550000000 1.0
C      1  0.5180470000000  0.4506170000000  0.4957140000000 1.0
C      1  0.5334660000000  0.5399230000000  0.4957150000000 1.0
C      1  0.4484150000000  0.5086230000000  0.4957190000000 1.0
C      1  0.5206370000000  0.5205670000000  0.5584660000000 1.0
C      1  0.4715960000000  0.5071870000000  0.5584690000000 1.0
C      1  0.5077050000000  0.4714060000000  0.5584660000000 1.0
C      1  0.5456330000000  0.4679090000000  0.4605410000000 1.0
C      1  0.5046950000000  0.5551690000000  0.4605440000000 1.0
C      1  0.4495950000000  0.4760860000000  0.4605460000000 1.0
C      1  0.5487250000000  0.5240790000000  0.4562020000000 1.0
C      1  0.4545040000000  0.5297620000000  0.4562070000000 1.0
C      1  0.4966930000000  0.4453230000000  0.4562040000000 1.0
C      1  0.5606510000000  0.5291770000000  0.5015830000000 1.0
C      1  0.4441290000000  0.5375390000000  0.5015890000000 1.0
C      1  0.4951490000000  0.4324470000000  0.5015850000000 1.0
C      1  0.4999800000000  0.4997200000000  0.5647020000000 1.0
END
