TITL C-3623289-7120-1429 -0.00501023343763642 125000 -725.040233663559 0 0 119 (C1) n - 1
REM
REM in /home/nfs/bkarasulu/CARBON/AIRSS/Generating-Clusters/LCBOP/Higher-Symm/SD-CG/FIRE-CG
REM
REM
REM
REM
REM
REM ./C.cell (b20cbc046b6831c77cfcea5457e17084)
REM AIRSS Version 0.9.1 bugfix July 2018 build 013d7b7c2542+ Fri, 06 Jul 2018 19:26:36 +0100
REM compiler GCC version 9.2.1 20190827 (Red Hat 9.2.1-1)
REM options -cpp -mtune=generic -march=x86-64 -g -O0 -fpre-include=/usr/include/finclude/math-vector-fortran.h
REM seed 994351603 -498991181 2022572472 611635802 -1646525074 2077620595 1790161073 1598161544 -1442436745 604498116 418984808 -737077539 -582054586 -733022398 -1468520439 1180208013 -1362824069 592474258 1431288069 161597901 508419351 -729034955 -1920795559 1521983079 -1752023914 -9694398 -692863748 1478272179 -106347412 -800578045 -1733811901 24402209 -1216565271
REM
CELL 1.54180   50.00000   50.00000   50.00000   90.00000   90.00000   90.00000
LATT -1
SFAC C  
C      1  0.5792840000000  0.4549320000000  0.4256470000000 1.0
C      1  0.5854720000000  0.5450060000000  0.5776570000000 1.0
C      1  0.4733030000000  0.4657280000000  0.6195940000000 1.0
C      1  0.4729340000000  0.5228810000000  0.3777800000000 1.0
C      1  0.4940580000000  0.5817550000000  0.5075100000000 1.0
C      1  0.4784310000000  0.4129520000000  0.4778230000000 1.0
C      1  0.4992990000000  0.5458460000000  0.5378600000000 1.0
C      1  0.4962290000000  0.4558930000000  0.4670880000000 1.0
C      1  0.3859040000000  0.5105770000000  0.5598390000000 1.0
C      1  0.3760450000000  0.4982000000000  0.4339150000000 1.0
C      1  0.5205410000000  0.4851880000000  0.3970260000000 1.0
C      1  0.5139060000000  0.5118010000000  0.6081490000000 1.0
C      1  0.5424990000000  0.5102670000000  0.5223840000000 1.0
C      1  0.5170210000000  0.4940800000000  0.4872790000000 1.0
C      1  0.3829770000000  0.5495410000000  0.4327580000000 1.0
C      1  0.3866790000000  0.4590160000000  0.5652610000000 1.0
C      1  0.5248450000000  0.4855850000000  0.5627740000000 1.0
C      1  0.5227110000000  0.5146650000000  0.4396020000000 1.0
C      1  0.4153840000000  0.4040250000000  0.4730450000000 1.0
C      1  0.4355390000000  0.6006570000000  0.5251140000000 1.0
C      1  0.4657550000000  0.4648390000000  0.5210530000000 1.0
C      1  0.4640820000000  0.5301000000000  0.4738630000000 1.0
C      1  0.4971570000000  0.5221280000000  0.5255250000000 1.0
C      1  0.4800280000000  0.4722930000000  0.4515220000000 1.0
C      1  0.5120480000000  0.4666360000000  0.4878660000000 1.0
C      1  0.5584260000000  0.5284110000000  0.5087800000000 1.0
C      1  0.4149940000000  0.4183380000000  0.5456940000000 1.0
C      1  0.4183560000000  0.5839650000000  0.4531470000000 1.0
C      1  0.5705710000000  0.5573840000000  0.4656920000000 1.0
C      1  0.6311680000000  0.4509500000000  0.5721440000000 1.0
C      1  0.4548280000000  0.4391030000000  0.5140190000000 1.0
C      1  0.4589530000000  0.5576760000000  0.4796720000000 1.0
C      1  0.3908130000000  0.4761060000000  0.4349320000000 1.0
C      1  0.4033470000000  0.5306140000000  0.5583100000000 1.0
C      1  0.4762650000000  0.5211750000000  0.4495290000000 1.0
C      1  0.4779320000000  0.4703970000000  0.5466660000000 1.0
C      1  0.5956270000000  0.5194520000000  0.5802400000000 1.0
C      1  0.5919440000000  0.4794580000000  0.4261020000000 1.0
C      1  0.5969510000000  0.5171820000000  0.4601700000000 1.0
C      1  0.6009960000000  0.4805510000000  0.5479600000000 1.0
C      1  0.4604360000000  0.4815110000000  0.5657990000000 1.0
C      1  0.4699840000000  0.4952960000000  0.4387920000000 1.0
C      1  0.4163330000000  0.4647580000000  0.4331090000000 1.0
C      1  0.4300890000000  0.5383500000000  0.5618000000000 1.0
C      1  0.4726350000000  0.4974050000000  0.3899690000000 1.0
C      1  0.4692150000000  0.4926600000000  0.6118550000000 1.0
C      1  0.4000580000000  0.4365490000000  0.5606940000000 1.0
C      1  0.3994960000000  0.5695000000000  0.4385150000000 1.0
C      1  0.3805640000000  0.4847980000000  0.5634830000000 1.0
C      1  0.3738040000000  0.5246260000000  0.4322520000000 1.0
C      1  0.5448120000000  0.4938450000000  0.5447100000000 1.0
C      1  0.5290900000000  0.5051440000000  0.4648170000000 1.0
C      1  0.4560050000000  0.4989190000000  0.5873210000000 1.0
C      1  0.4574970000000  0.4913120000000  0.4133510000000 1.0
C      1  0.4804210000000  0.3853910000000  0.4814790000000 1.0
C      1  0.5030720000000  0.6030140000000  0.4919470000000 1.0
C      1  0.5366990000000  0.5555450000000  0.3899480000000 1.0
C      1  0.5394060000000  0.4364400000000  0.6065190000000 1.0
C      1  0.4987840000000  0.4277440000000  0.4647030000000 1.0
C      1  0.5102370000000  0.5698830000000  0.5279230000000 1.0
C      1  0.6800080000000  0.4324550000000  0.5780990000000 1.0
C      1  0.5687100000000  0.6094410000000  0.4521270000000 1.0
C      1  0.4030790000000  0.3861920000000  0.4885600000000 1.0
C      1  0.4226650000000  0.6191940000000  0.5109230000000 1.0
C      1  0.5685880000000  0.5844700000000  0.4595800000000 1.0
C      1  0.6557760000000  0.4416120000000  0.5751620000000 1.0
C      1  0.4563880000000  0.5100540000000  0.4921200000000 1.0
C      1  0.4579710000000  0.4870960000000  0.5055180000000 1.0
C      1  0.5012830000000  0.5545080000000  0.4218830000000 1.0
C      1  0.5076320000000  0.4416070000000  0.5714950000000 1.0
C      1  0.4421550000000  0.5566670000000  0.5443970000000 1.0
C      1  0.4256540000000  0.4463670000000  0.4521460000000 1.0
C      1  0.4485190000000  0.5757570000000  0.5248770000000 1.0
C      1  0.4320540000000  0.4265450000000  0.4708920000000 1.0
C      1  0.4675170000000  0.5709650000000  0.5037630000000 1.0
C      1  0.4554660000000  0.4272970000000  0.4876370000000 1.0
C      1  0.5500440000000  0.4282660000000  0.4560960000000 1.0
C      1  0.5624740000000  0.5693300000000  0.5409010000000 1.0
C      1  0.4807330000000  0.3596320000000  0.4854050000000 1.0
C      1  0.5084170000000  0.6238290000000  0.4772110000000 1.0
C      1  0.5606380000000  0.5494840000000  0.4003960000000 1.0
C      1  0.5644440000000  0.4426700000000  0.5996200000000 1.0
C      1  0.5834480000000  0.5527480000000  0.5496520000000 1.0
C      1  0.5699550000000  0.4474020000000  0.4521000000000 1.0
C      1  0.5249250000000  0.4993240000000  0.5873120000000 1.0
C      1  0.5304620000000  0.5000460000000  0.4169490000000 1.0
C      1  0.5945890000000  0.4717130000000  0.5220020000000 1.0
C      1  0.6105810000000  0.5231970000000  0.4842750000000 1.0
C      1  0.4896440000000  0.5105790000000  0.6196580000000 1.0
C      1  0.4962120000000  0.4821660000000  0.3860100000000 1.0
C      1  0.5814760000000  0.4683980000000  0.4696650000000 1.0
C      1  0.5991920000000  0.5311970000000  0.5358790000000 1.0
C      1  0.4419190000000  0.5715780000000  0.4620990000000 1.0
C      1  0.4390280000000  0.4264110000000  0.5336100000000 1.0
C      1  0.5859760000000  0.4670910000000  0.4972090000000 1.0
C      1  0.6102400000000  0.5302760000000  0.5101050000000 1.0
C      1  0.5247760000000  0.4193020000000  0.4576620000000 1.0
C      1  0.5371340000000  0.5757350000000  0.5344390000000 1.0
C      1  0.4135010000000  0.6231550000000  0.4861400000000 1.0
C      1  0.3984510000000  0.3814340000000  0.5144510000000 1.0
C      1  0.5767910000000  0.5416890000000  0.4202720000000 1.0
C      1  0.5845660000000  0.4524800000000  0.5851950000000 1.0
C      1  0.4446510000000  0.5237760000000  0.5809970000000 1.0
C      1  0.4340330000000  0.4760810000000  0.4143220000000 1.0
C      1  0.5923280000000  0.4903990000000  0.4528460000000 1.0
C      1  0.6017270000000  0.5080610000000  0.5543250000000 1.0
C      1  0.5826150000000  0.5387220000000  0.4476060000000 1.0
C      1  0.6054180000000  0.4612230000000  0.5685550000000 1.0
C      1  0.4913690000000  0.4460750000000  0.6162390000000 1.0
C      1  0.4896020000000  0.5440620000000  0.3771340000000 1.0
C      1  0.5089360000000  0.5548490000000  0.3946140000000 1.0
C      1  0.5123820000000  0.4381900000000  0.5991750000000 1.0
C      1  0.5001920000000  0.5323890000000  0.4388980000000 1.0
C      1  0.5045780000000  0.4656000000000  0.5567970000000 1.0
C      1  0.5237690000000  0.4505130000000  0.5066200000000 1.0
C      1  0.5615960000000  0.5470510000000  0.4900450000000 1.0
C      1  0.4036540000000  0.3940020000000  0.5374820000000 1.0
C      1  0.4122110000000  0.6094050000000  0.4632660000000 1.0
C      1  0.5165350000000  0.5083720000000  0.5110380000000 1.0
END
