TITL C-3623286-7563-1838 -10958.9762652167 125000 -1017.91853270526 0 0 165 (C1) n - 1
REM
REM in /home/nfs/bkarasulu/CARBON/AIRSS/Generating-Clusters/LCBOP/Higher-Symm/SD-CG/FIRE-CG
REM
REM
REM
REM
REM
REM ./C.cell (b20cbc046b6831c77cfcea5457e17084)
REM AIRSS Version 0.9.1 bugfix July 2018 build 013d7b7c2542+ Fri, 06 Jul 2018 19:26:36 +0100
REM compiler GCC version 9.2.1 20190827 (Red Hat 9.2.1-1)
REM options -cpp -mtune=generic -march=x86-64 -g -O0 -fpre-include=/usr/include/finclude/math-vector-fortran.h
REM seed -345924108 225554261 -53771580 -588994615 46816864 933711404 350795853 1320522178 535367715 1906855081 224724472 258758109 821643011 2078741191 1267731015 305873838 684435487 506232164 1935737182 1363455643 -1393852835 177220686 -1413338876 1734522756 1750466702 37389513 975715304 551202414 641628378 -6657669 700163671 1223041820 2104328168
REM
CELL 1.54180   50.00000   50.00000   50.00000   90.00000   90.00000   90.00000
LATT -1
SFAC C  
C      1  0.3529160000000  0.4906260000000  0.4940830000000 1.0
C      1  0.6467520000000  0.4957210000000  0.5153000000000 1.0
C      1  0.3532920000000  0.5127040000000  0.5092000000000 1.0
C      1  0.6473010000000  0.5074960000000  0.4911220000000 1.0
C      1  0.3971040000000  0.5099200000000  0.4433580000000 1.0
C      1  0.6053130000000  0.4466420000000  0.4924880000000 1.0
C      1  0.3992540000000  0.4915680000000  0.5576470000000 1.0
C      1  0.6004170000000  0.5536670000000  0.5107180000000 1.0
C      1  0.4722880000000  0.4844550000000  0.6370160000000 1.0
C      1  0.5273250000000  0.6330120000000  0.5116800000000 1.0
C      1  0.4754710000000  0.5109940000000  0.3664930000000 1.0
C      1  0.5263200000000  0.3960050000000  0.4759860000000 1.0
C      1  0.4036470000000  0.4141260000000  0.4775460000000 1.0
C      1  0.5909740000000  0.4757780000000  0.5878470000000 1.0
C      1  0.4068170000000  0.5873290000000  0.5261980000000 1.0
C      1  0.5967310000000  0.5206240000000  0.4133620000000 1.0
C      1  0.4380050000000  0.5155590000000  0.5801300000000 1.0
C      1  0.5625890000000  0.5735350000000  0.4853510000000 1.0
C      1  0.4377270000000  0.4849330000000  0.4236940000000 1.0
C      1  0.5661320000000  0.4242490000000  0.5168980000000 1.0
C      1  0.4084510000000  0.4647970000000  0.5648970000000 1.0
C      1  0.5899820000000  0.5618930000000  0.5369010000000 1.0
C      1  0.4067700000000  0.5365620000000  0.4356500000000 1.0
C      1  0.5990280000000  0.4368880000000  0.4656750000000 1.0
C      1  0.5237630000000  0.5873030000000  0.4554340000000 1.0
C      1  0.4816570000000  0.4563340000000  0.4134030000000 1.0
C      1  0.5229300000000  0.4083970000000  0.5427710000000 1.0
C      1  0.4808270000000  0.5443060000000  0.5969320000000 1.0
C      1  0.5286870000000  0.4139000000000  0.5705440000000 1.0
C      1  0.4744130000000  0.5715690000000  0.5893010000000 1.0
C      1  0.5230600000000  0.5713060000000  0.4305760000000 1.0
C      1  0.4738680000000  0.4289270000000  0.4172230000000 1.0
C      1  0.5799850000000  0.4491490000000  0.5070880000000 1.0
C      1  0.4237930000000  0.5080990000000  0.5543690000000 1.0
C      1  0.5769100000000  0.5490450000000  0.4940810000000 1.0
C      1  0.4213810000000  0.4938560000000  0.4475170000000 1.0
C      1  0.5654950000000  0.4921470000000  0.4722490000000 1.0
C      1  0.4331280000000  0.4747790000000  0.5056770000000 1.0
C      1  0.5624950000000  0.5018970000000  0.5250270000000 1.0
C      1  0.4336590000000  0.5268090000000  0.4958620000000 1.0
C      1  0.5036370000000  0.4732460000000  0.5400430000000 1.0
C      1  0.4944170000000  0.5410060000000  0.5240180000000 1.0
C      1  0.5031460000000  0.5287540000000  0.4479750000000 1.0
C      1  0.4848310000000  0.4517370000000  0.4736160000000 1.0
C      1  0.4571470000000  0.4429640000000  0.5477550000000 1.0
C      1  0.5400930000000  0.5454590000000  0.5566930000000 1.0
C      1  0.4553150000000  0.5583250000000  0.4518760000000 1.0
C      1  0.5475570000000  0.4459210000000  0.4414170000000 1.0
C      1  0.4340430000000  0.4286160000000  0.5405480000000 1.0
C      1  0.5624640000000  0.5378150000000  0.5719910000000 1.0
C      1  0.4330480000000  0.5721590000000  0.4618120000000 1.0
C      1  0.5692390000000  0.4570680000000  0.4277650000000 1.0
C      1  0.5021520000000  0.6209290000000  0.5141890000000 1.0
C      1  0.5006290000000  0.5095820000000  0.3788500000000 1.0
C      1  0.5010470000000  0.3841260000000  0.4856500000000 1.0
C      1  0.4976900000000  0.4850630000000  0.6250990000000 1.0
C      1  0.6158530000000  0.5285990000000  0.4315990000000 1.0
C      1  0.3841830000000  0.4321780000000  0.4700660000000 1.0
C      1  0.6122340000000  0.4703420000000  0.5712220000000 1.0
C      1  0.3866250000000  0.5700130000000  0.5335520000000 1.0
C      1  0.5855540000000  0.5018830000000  0.4543760000000 1.0
C      1  0.4142440000000  0.4550980000000  0.4971100000000 1.0
C      1  0.5807280000000  0.4937960000000  0.5457750000000 1.0
C      1  0.4155140000000  0.5462590000000  0.5060780000000 1.0
C      1  0.5714370000000  0.4921520000000  0.5746050000000 1.0
C      1  0.4250980000000  0.5747610000000  0.5079930000000 1.0
C      1  0.5774610000000  0.5030590000000  0.4253380000000 1.0
C      1  0.4227050000000  0.4260740000000  0.4954240000000 1.0
C      1  0.5326520000000  0.3814430000000  0.4222440000000 1.0
C      1  0.4675710000000  0.4762690000000  0.6901510000000 1.0
C      1  0.5319600000000  0.6867360000000  0.5137330000000 1.0
C      1  0.4723250000000  0.5188150000000  0.3131690000000 1.0
C      1  0.4642350000000  0.4743280000000  0.4272200000000 1.0
C      1  0.5379590000000  0.4247470000000  0.5247720000000 1.0
C      1  0.4649160000000  0.5248250000000  0.5827040000000 1.0
C      1  0.5370010000000  0.5710690000000  0.4740360000000 1.0
C      1  0.4706740000000  0.5875690000000  0.5674500000000 1.0
C      1  0.5390310000000  0.5587230000000  0.4110720000000 1.0
C      1  0.4658360000000  0.4116250000000  0.4364720000000 1.0
C      1  0.5314440000000  0.4345920000000  0.5882590000000 1.0
C      1  0.6110360000000  0.5177560000000  0.4582790000000 1.0
C      1  0.3886100000000  0.4585840000000  0.4815500000000 1.0
C      1  0.6084490000000  0.4814010000000  0.5445110000000 1.0
C      1  0.3899900000000  0.5436600000000  0.5216460000000 1.0
C      1  0.6234460000000  0.5471770000000  0.4967230000000 1.0
C      1  0.3746110000000  0.4966740000000  0.4527770000000 1.0
C      1  0.6269240000000  0.4541300000000  0.5080290000000 1.0
C      1  0.3765130000000  0.5051150000000  0.5493740000000 1.0
C      1  0.6284170000000  0.4768240000000  0.5248010000000 1.0
C      1  0.3722270000000  0.5223360000000  0.5273930000000 1.0
C      1  0.6282060000000  0.5247540000000  0.4799870000000 1.0
C      1  0.3711370000000  0.4802160000000  0.4755700000000 1.0
C      1  0.4892220000000  0.5895540000000  0.4662790000000 1.0
C      1  0.5108240000000  0.4637000000000  0.4149900000000 1.0
C      1  0.4882610000000  0.4085280000000  0.5340410000000 1.0
C      1  0.5098000000000  0.5352600000000  0.5939100000000 1.0
C      1  0.5469730000000  0.5132850000000  0.4811080000000 1.0
C      1  0.4501050000000  0.4848780000000  0.4837920000000 1.0
C      1  0.5456650000000  0.4809220000000  0.5129390000000 1.0
C      1  0.4528530000000  0.5161080000000  0.5161700000000 1.0
C      1  0.5585220000000  0.5280140000000  0.5080900000000 1.0
C      1  0.4379760000000  0.5097180000000  0.4694200000000 1.0
C      1  0.5605710000000  0.4662090000000  0.4893960000000 1.0
C      1  0.4400110000000  0.4921010000000  0.5316180000000 1.0
C      1  0.4930350000000  0.5482750000000  0.5505530000000 1.0
C      1  0.5005130000000  0.5549600000000  0.4367040000000 1.0
C      1  0.5059710000000  0.4396640000000  0.4602360000000 1.0
C      1  0.5035920000000  0.4483520000000  0.5530600000000 1.0
C      1  0.4084840000000  0.5611850000000  0.4509250000000 1.0
C      1  0.5948970000000  0.4499980000000  0.4400440000000 1.0
C      1  0.4096550000000  0.4396190000000  0.5512950000000 1.0
C      1  0.5874330000000  0.5481770000000  0.5619650000000 1.0
C      1  0.4375260000000  0.5078430000000  0.4053650000000 1.0
C      1  0.5708820000000  0.4042290000000  0.4955570000000 1.0
C      1  0.4372020000000  0.4909650000000  0.5964310000000 1.0
C      1  0.5622160000000  0.5921010000000  0.5076400000000 1.0
C      1  0.5606660000000  0.4820750000000  0.4160310000000 1.0
C      1  0.4394900000000  0.4153600000000  0.5156770000000 1.0
C      1  0.5559970000000  0.5132970000000  0.5855640000000 1.0
C      1  0.4415000000000  0.5842720000000  0.4869310000000 1.0
C      1  0.5288590000000  0.5116720000000  0.5982330000000 1.0
C      1  0.4702730000000  0.5936960000000  0.4894510000000 1.0
C      1  0.5317360000000  0.4844060000000  0.4072430000000 1.0
C      1  0.4670260000000  0.4037970000000  0.5128760000000 1.0
C      1  0.5194640000000  0.4854710000000  0.6071770000000 1.0
C      1  0.4802690000000  0.6031460000000  0.5151840000000 1.0
C      1  0.5238270000000  0.5093440000000  0.3947610000000 1.0
C      1  0.4750680000000  0.3947140000000  0.4867980000000 1.0
C      1  0.5219120000000  0.4389660000000  0.5066370000000 1.0
C      1  0.4823270000000  0.5073990000000  0.5690170000000 1.0
C      1  0.5204960000000  0.5506050000000  0.4853730000000 1.0
C      1  0.4780440000000  0.4884660000000  0.4473980000000 1.0
C      1  0.5290520000000  0.4598980000000  0.5980020000000 1.0
C      1  0.4714190000000  0.5953870000000  0.5414080000000 1.0
C      1  0.5370920000000  0.5341500000000  0.3996320000000 1.0
C      1  0.4639020000000  0.4015850000000  0.4614840000000 1.0
C      1  0.4519900000000  0.5091220000000  0.3817320000000 1.0
C      1  0.5500350000000  0.3856520000000  0.4913790000000 1.0
C      1  0.4493830000000  0.4876670000000  0.6211240000000 1.0
C      1  0.5500630000000  0.6169150000000  0.5085780000000 1.0
C      1  0.4818200000000  0.4310080000000  0.5494960000000 1.0
C      1  0.5150840000000  0.5468360000000  0.5679600000000 1.0
C      1  0.4794920000000  0.5703150000000  0.4480390000000 1.0
C      1  0.5201120000000  0.4475450000000  0.4367420000000 1.0
C      1  0.5297290000000  0.6608040000000  0.5123820000000 1.0
C      1  0.4738060000000  0.5145100000000  0.3388310000000 1.0
C      1  0.5299330000000  0.3889670000000  0.4470280000000 1.0
C      1  0.4698190000000  0.4805580000000  0.6645430000000 1.0
C      1  0.5520300000000  0.4407470000000  0.4701000000000 1.0
C      1  0.4548210000000  0.4721560000000  0.5516580000000 1.0
C      1  0.5434420000000  0.5498480000000  0.5277790000000 1.0
C      1  0.4528590000000  0.5295230000000  0.4476090000000 1.0
C      1  0.4351510000000  0.4709660000000  0.5764380000000 1.0
C      1  0.5637570000000  0.5739160000000  0.5294940000000 1.0
C      1  0.4331440000000  0.5298990000000  0.4232010000000 1.0
C      1  0.5755580000000  0.4204220000000  0.4719080000000 1.0
C      1  0.4810650000000  0.5190950000000  0.5123600000000 1.0
C      1  0.5182480000000  0.5219760000000  0.4742120000000 1.0
C      1  0.4786780000000  0.4801110000000  0.4761550000000 1.0
C      1  0.5168660000000  0.4748060000000  0.5134020000000 1.0
C      1  0.5175630000000  0.5517630000000  0.5128520000000 1.0
C      1  0.4789450000000  0.5157150000000  0.4440540000000 1.0
C      1  0.5252320000000  0.4273680000000  0.4792080000000 1.0
C      1  0.4815610000000  0.4859110000000  0.5523340000000 1.0
C      1  0.4989730000000  0.4978240000000  0.4932300000000 1.0
END
