TITL C-3623287-7182-187 -164.166928558108 125000 -1018.80724406449 0 0 167 (C1) n - 1
REM
REM in /home/nfs/bkarasulu/CARBON/AIRSS/Generating-Clusters/LCBOP/Higher-Symm/SD-CG/FIRE-CG
REM
REM
REM
REM
REM
REM ./C.cell (b20cbc046b6831c77cfcea5457e17084)
REM AIRSS Version 0.9.1 bugfix July 2018 build 013d7b7c2542+ Fri, 06 Jul 2018 19:26:36 +0100
REM compiler GCC version 9.2.1 20190827 (Red Hat 9.2.1-1)
REM options -cpp -mtune=generic -march=x86-64 -g -O0 -fpre-include=/usr/include/finclude/math-vector-fortran.h
REM seed 2076402944 1733747985 795607616 675963903 1600745677 -1032590841 1782561487 -1693259201 -1990319822 -965542466 678633331 -751070109 -781326487 -1504430918 525467950 1449180738 452107393 -27386478 -1999332037 -2083046965 1114628312 -1565378402 1874023575 -388566095 1647934648 80324986 861940107 -773913690 1329654610 -336575850 -195499863 -1178658976 -991930318
REM
CELL 1.54180   50.00000   50.00000   50.00000   90.00000   90.00000   90.00000
LATT -1
SFAC C  
C      1  0.5634110000000  0.4054700000000  0.5025490000000 1.0
C      1  0.5607090000000  0.5907840000000  0.4851090000000 1.0
C      1  0.4407370000000  0.4045460000000  0.4984730000000 1.0
C      1  0.4403480000000  0.5943840000000  0.5013170000000 1.0
C      1  0.5590790000000  0.5173420000000  0.4077800000000 1.0
C      1  0.5599620000000  0.4841710000000  0.5911850000000 1.0
C      1  0.4395420000000  0.4972140000000  0.4055980000000 1.0
C      1  0.4396650000000  0.5018370000000  0.5941700000000 1.0
C      1  0.4665130000000  0.5023360000000  0.3960670000000 1.0
C      1  0.4666590000000  0.4974730000000  0.6038390000000 1.0
C      1  0.5376120000000  0.5022240000000  0.6006430000000 1.0
C      1  0.5370950000000  0.4987560000000  0.3995480000000 1.0
C      1  0.4679670000000  0.3954730000000  0.5037000000000 1.0
C      1  0.4674760000000  0.6037080000000  0.4966070000000 1.0
C      1  0.5379590000000  0.6001350000000  0.5021610000000 1.0
C      1  0.5369180000000  0.3969900000000  0.4958150000000 1.0
C      1  0.5549070000000  0.5404860000000  0.5743680000000 1.0
C      1  0.5537120000000  0.4610120000000  0.4269960000000 1.0
C      1  0.4502530000000  0.5403300000000  0.4252780000000 1.0
C      1  0.4504450000000  0.4588230000000  0.5739710000000 1.0
C      1  0.5550420000000  0.5734340000000  0.5413310000000 1.0
C      1  0.5536260000000  0.4278810000000  0.4605220000000 1.0
C      1  0.4510070000000  0.4249600000000  0.5409300000000 1.0
C      1  0.4507370000000  0.5737510000000  0.4586470000000 1.0
C      1  0.5073330000000  0.5723120000000  0.4692530000000 1.0
C      1  0.5085920000000  0.4260760000000  0.5317690000000 1.0
C      1  0.4941210000000  0.5806940000000  0.5384620000000 1.0
C      1  0.4936900000000  0.4194040000000  0.4619740000000 1.0
C      1  0.5061830000000  0.4705730000000  0.5725640000000 1.0
C      1  0.5070840000000  0.5322210000000  0.4259340000000 1.0
C      1  0.4938390000000  0.5390870000000  0.5808670000000 1.0
C      1  0.4935150000000  0.4615540000000  0.4192990000000 1.0
C      1  0.5323910000000  0.5481980000000  0.4318220000000 1.0
C      1  0.5323470000000  0.4608400000000  0.5613380000000 1.0
C      1  0.4683210000000  0.5488070000000  0.5695320000000 1.0
C      1  0.4682360000000  0.4507780000000  0.4299270000000 1.0
C      1  0.5319960000000  0.4352790000000  0.5472720000000 1.0
C      1  0.5338360000000  0.5609850000000  0.4586530000000 1.0
C      1  0.4685520000000  0.5696920000000  0.5484370000000 1.0
C      1  0.4683150000000  0.4295610000000  0.4513160000000 1.0
C      1  0.5180440000000  0.5992360000000  0.5495760000000 1.0
C      1  0.5172190000000  0.4014730000000  0.4498660000000 1.0
C      1  0.4963580000000  0.5960470000000  0.4512920000000 1.0
C      1  0.4962380000000  0.4017740000000  0.5494830000000 1.0
C      1  0.5177780000000  0.5498330000000  0.5996380000000 1.0
C      1  0.5176380000000  0.4511180000000  0.4008970000000 1.0
C      1  0.4952970000000  0.4521860000000  0.5963120000000 1.0
C      1  0.4938930000000  0.5479550000000  0.4008060000000 1.0
C      1  0.5269470000000  0.3915730000000  0.5600190000000 1.0
C      1  0.5257240000000  0.6064860000000  0.4443010000000 1.0
C      1  0.4354400000000  0.3930430000000  0.4421320000000 1.0
C      1  0.4354040000000  0.6060640000000  0.5573910000000 1.0
C      1  0.5224800000000  0.5542740000000  0.3874600000000 1.0
C      1  0.5240930000000  0.4446780000000  0.6062010000000 1.0
C      1  0.4346740000000  0.4410880000000  0.3940940000000 1.0
C      1  0.4349120000000  0.5578060000000  0.6056540000000 1.0
C      1  0.4897850000000  0.5309700000000  0.4486840000000 1.0
C      1  0.4889670000000  0.4692200000000  0.5498600000000 1.0
C      1  0.5108150000000  0.5353290000000  0.5552830000000 1.0
C      1  0.5097680000000  0.4653270000000  0.4452590000000 1.0
C      1  0.4900940000000  0.4484800000000  0.5306760000000 1.0
C      1  0.4894760000000  0.5499680000000  0.4692100000000 1.0
C      1  0.5109470000000  0.5550430000000  0.5348980000000 1.0
C      1  0.5097050000000  0.4453960000000  0.4655560000000 1.0
C      1  0.4617180000000  0.4768820000000  0.4585280000000 1.0
C      1  0.4617780000000  0.5223900000000  0.5410410000000 1.0
C      1  0.5359750000000  0.4809420000000  0.5381730000000 1.0
C      1  0.5264890000000  0.5122990000000  0.4755640000000 1.0
C      1  0.4616450000000  0.4583110000000  0.4771470000000 1.0
C      1  0.4619400000000  0.5409610000000  0.5223890000000 1.0
C      1  0.5375560000000  0.5384530000000  0.4795020000000 1.0
C      1  0.5257090000000  0.4766470000000  0.5118020000000 1.0
C      1  0.4795400000000  0.6140190000000  0.4714830000000 1.0
C      1  0.4798770000000  0.3843810000000  0.5285910000000 1.0
C      1  0.5323640000000  0.6135090000000  0.5274140000000 1.0
C      1  0.5297250000000  0.3845470000000  0.4705220000000 1.0
C      1  0.4784400000000  0.4723220000000  0.6142200000000 1.0
C      1  0.4769230000000  0.5272300000000  0.3844300000000 1.0
C      1  0.5319560000000  0.5275550000000  0.6140550000000 1.0
C      1  0.5316050000000  0.4733400000000  0.3863760000000 1.0
C      1  0.5852270000000  0.4601700000000  0.5528100000000 1.0
C      1  0.5874130000000  0.5353000000000  0.4467910000000 1.0
C      1  0.4214640000000  0.4623700000000  0.4379120000000 1.0
C      1  0.4216100000000  0.5366270000000  0.5618100000000 1.0
C      1  0.5894080000000  0.5534540000000  0.4669370000000 1.0
C      1  0.5785520000000  0.4343860000000  0.5387400000000 1.0
C      1  0.4217350000000  0.4365750000000  0.4634870000000 1.0
C      1  0.4218270000000  0.5623430000000  0.5362470000000 1.0
C      1  0.4889980000000  0.5119940000000  0.5929130000000 1.0
C      1  0.4890340000000  0.4890570000000  0.4079670000000 1.0
C      1  0.5119480000000  0.5059580000000  0.4122270000000 1.0
C      1  0.5117630000000  0.4953580000000  0.5883380000000 1.0
C      1  0.4896730000000  0.5923940000000  0.5110940000000 1.0
C      1  0.4900120000000  0.4075620000000  0.4896000000000 1.0
C      1  0.5138450000000  0.4108440000000  0.5061450000000 1.0
C      1  0.5125700000000  0.5877200000000  0.4945050000000 1.0
C      1  0.4707620000000  0.4379430000000  0.5824280000000 1.0
C      1  0.4698120000000  0.5618180000000  0.4161840000000 1.0
C      1  0.5385730000000  0.4375290000000  0.4166000000000 1.0
C      1  0.5390450000000  0.5637890000000  0.5844730000000 1.0
C      1  0.4709850000000  0.5818690000000  0.4372120000000 1.0
C      1  0.4709970000000  0.4168490000000  0.5625630000000 1.0
C      1  0.5383300000000  0.4175130000000  0.4369870000000 1.0
C      1  0.5388880000000  0.5839640000000  0.5641500000000 1.0
C      1  0.5353740000000  0.4422010000000  0.4778530000000 1.0
C      1  0.5371570000000  0.5589350000000  0.5238180000000 1.0
C      1  0.4648130000000  0.4413520000000  0.5214440000000 1.0
C      1  0.4642210000000  0.5571200000000  0.4780350000000 1.0
C      1  0.5354730000000  0.4777270000000  0.4419360000000 1.0
C      1  0.5367920000000  0.5239690000000  0.5591800000000 1.0
C      1  0.4645240000000  0.5214300000000  0.4418940000000 1.0
C      1  0.4636350000000  0.4778830000000  0.5568530000000 1.0
C      1  0.5463360000000  0.4575690000000  0.5893090000000 1.0
C      1  0.5458310000000  0.5452230000000  0.4057350000000 1.0
C      1  0.4412540000000  0.4512370000000  0.4185800000000 1.0
C      1  0.4414700000000  0.5478290000000  0.5810890000000 1.0
C      1  0.5483660000000  0.5889530000000  0.4573670000000 1.0
C      1  0.5501010000000  0.4163550000000  0.5520960000000 1.0
C      1  0.4416470000000  0.4176800000000  0.4521230000000 1.0
C      1  0.4417600000000  0.5814260000000  0.5474630000000 1.0
C      1  0.6125480000000  0.5365290000000  0.5182050000000 1.0
C      1  0.6116090000000  0.4646280000000  0.4831060000000 1.0
C      1  0.3898370000000  0.5394160000000  0.4797740000000 1.0
C      1  0.3900010000000  0.4594010000000  0.5199930000000 1.0
C      1  0.6120130000000  0.5161440000000  0.5368130000000 1.0
C      1  0.6115100000000  0.4837780000000  0.4630650000000 1.0
C      1  0.3897920000000  0.4790480000000  0.5390630000000 1.0
C      1  0.3897190000000  0.5198030000000  0.4606740000000 1.0
C      1  0.5796960000000  0.4600700000000  0.4381950000000 1.0
C      1  0.5811720000000  0.5401810000000  0.5631000000000 1.0
C      1  0.4232900000000  0.4558600000000  0.5645080000000 1.0
C      1  0.4232260000000  0.5429540000000  0.4351940000000 1.0
C      1  0.5797500000000  0.4393740000000  0.4595340000000 1.0
C      1  0.5810470000000  0.5618690000000  0.5424020000000 1.0
C      1  0.4234710000000  0.5642380000000  0.4560340000000 1.0
C      1  0.4237750000000  0.4346140000000  0.5435990000000 1.0
C      1  0.5934640000000  0.4422490000000  0.4857520000000 1.0
C      1  0.5945020000000  0.5591590000000  0.5165890000000 1.0
C      1  0.4089830000000  0.4381380000000  0.5179840000000 1.0
C      1  0.4087750000000  0.5607250000000  0.4817280000000 1.0
C      1  0.5929200000000  0.4859590000000  0.4407180000000 1.0
C      1  0.5935160000000  0.5133460000000  0.5590140000000 1.0
C      1  0.4085380000000  0.5173080000000  0.4393130000000 1.0
C      1  0.4085580000000  0.4815480000000  0.5604880000000 1.0
C      1  0.4535590000000  0.4959640000000  0.5387020000000 1.0
C      1  0.4544400000000  0.5034800000000  0.4603880000000 1.0
C      1  0.5442580000000  0.4945420000000  0.4622910000000 1.0
C      1  0.5470380000000  0.5065170000000  0.5402250000000 1.0
C      1  0.4539220000000  0.5388100000000  0.4959780000000 1.0
C      1  0.4542760000000  0.4599720000000  0.5037050000000 1.0
C      1  0.5438050000000  0.4626410000000  0.4947730000000 1.0
C      1  0.5475650000000  0.5405910000000  0.5057120000000 1.0
C      1  0.5808620000000  0.5120550000000  0.4299070000000 1.0
C      1  0.5817310000000  0.4866670000000  0.5691450000000 1.0
C      1  0.4198250000000  0.5068640000000  0.5717590000000 1.0
C      1  0.4197510000000  0.4921000000000  0.4280280000000 1.0
C      1  0.5814590000000  0.4275430000000  0.5096760000000 1.0
C      1  0.5831160000000  0.5700530000000  0.4904780000000 1.0
C      1  0.4202430000000  0.5722360000000  0.5066330000000 1.0
C      1  0.4204270000000  0.4266200000000  0.4931010000000 1.0
C      1  0.4422780000000  0.4831160000000  0.5157650000000 1.0
C      1  0.5610450000000  0.4825220000000  0.4826380000000 1.0
C      1  0.4425160000000  0.5157730000000  0.4833620000000 1.0
C      1  0.5598020000000  0.5172790000000  0.5169990000000 1.0
C      1  0.4269710000000  0.4992570000000  0.4992640000000 1.0
C      1  0.5742190000000  0.4999950000000  0.5001400000000 1.0
C      1  0.5126280000000  0.4984460000000  0.4972970000000 1.0
END
