TITL C-3623287-7182-1729 0.00233756508155429 125000 -1192.9365676514 0 0 190 (C1) n - 1
REM
REM in /home/nfs/bkarasulu/CARBON/AIRSS/Generating-Clusters/LCBOP/Higher-Symm/SD-CG/FIRE-CG
REM
REM
REM
REM
REM
REM ./C.cell (b20cbc046b6831c77cfcea5457e17084)
REM AIRSS Version 0.9.1 bugfix July 2018 build 013d7b7c2542+ Fri, 06 Jul 2018 19:26:36 +0100
REM compiler GCC version 9.2.1 20190827 (Red Hat 9.2.1-1)
REM options -cpp -mtune=generic -march=x86-64 -g -O0 -fpre-include=/usr/include/finclude/math-vector-fortran.h
REM seed -418065373 -659445117 -5688002 -70049826 1078126801 676694815 -1233259209 -2125325243 -274418114 -555461312 391649777 2066709258 -959441929 406170340 -19994162 -1310089992 -673038334 -1806083546 -1557542351 662286839 1939396129 -1923436544 1083148272 -369209823 1502937813 1184031813 1109529867 703894338 1148303755 876916456 -1084180000 -1664321781 1180653857
REM
CELL 1.54180   50.00000   50.00000   50.00000   90.00000   90.00000   90.00000
LATT -1
SFAC C  
C      1  0.5326980000000  0.5463790000000  0.4482150000000 1.0
C      1  0.4663890000000  0.4548020000000  0.5673930000000 1.0
C      1  0.4720860000000  0.5503160000000  0.6003440000000 1.0
C      1  0.5133400000000  0.4458370000000  0.3947370000000 1.0
C      1  0.5992430000000  0.5181480000000  0.4432320000000 1.0
C      1  0.4051330000000  0.4861220000000  0.5583110000000 1.0
C      1  0.5405640000000  0.5521130000000  0.5198740000000 1.0
C      1  0.4454870000000  0.4677990000000  0.5037200000000 1.0
C      1  0.5525980000000  0.4230840000000  0.5802440000000 1.0
C      1  0.4465090000000  0.5832270000000  0.4380060000000 1.0
C      1  0.4140220000000  0.5187210000000  0.4217080000000 1.0
C      1  0.5952180000000  0.4881240000000  0.5706080000000 1.0
C      1  0.4595190000000  0.5874430000000  0.4116950000000 1.0
C      1  0.5387710000000  0.4323620000000  0.6043660000000 1.0
C      1  0.4666730000000  0.4511010000000  0.5958420000000 1.0
C      1  0.5459570000000  0.5619260000000  0.4278560000000 1.0
C      1  0.4845930000000  0.4262780000000  0.4636320000000 1.0
C      1  0.4942100000000  0.5706180000000  0.5586780000000 1.0
C      1  0.5927100000000  0.4505720000000  0.4215990000000 1.0
C      1  0.4072340000000  0.5464590000000  0.5452650000000 1.0
C      1  0.4844900000000  0.6201580000000  0.5714920000000 1.0
C      1  0.5013270000000  0.4055650000000  0.4556930000000 1.0
C      1  0.5689200000000  0.5260160000000  0.5948410000000 1.0
C      1  0.4377050000000  0.4843410000000  0.3937170000000 1.0
C      1  0.5218340000000  0.5295350000000  0.6119260000000 1.0
C      1  0.4864640000000  0.4849990000000  0.3847100000000 1.0
C      1  0.4570840000000  0.5389340000000  0.4204210000000 1.0
C      1  0.5507240000000  0.4724710000000  0.5754800000000 1.0
C      1  0.4191540000000  0.4247890000000  0.4367350000000 1.0
C      1  0.5871180000000  0.5767060000000  0.5525910000000 1.0
C      1  0.4022480000000  0.4619940000000  0.5735720000000 1.0
C      1  0.5810760000000  0.5271630000000  0.4200830000000 1.0
C      1  0.4475970000000  0.4095710000000  0.5118110000000 1.0
C      1  0.5668060000000  0.5910460000000  0.4862610000000 1.0
C      1  0.4855050000000  0.4395080000000  0.4882580000000 1.0
C      1  0.5236100000000  0.5999500000000  0.5266160000000 1.0
C      1  0.4975300000000  0.4895610000000  0.6013400000000 1.0
C      1  0.5220970000000  0.5491610000000  0.3822910000000 1.0
C      1  0.5447870000000  0.3781890000000  0.4494770000000 1.0
C      1  0.4353140000000  0.6322870000000  0.5635000000000 1.0
C      1  0.4703910000000  0.5312140000000  0.3971900000000 1.0
C      1  0.5428870000000  0.4862720000000  0.5987910000000 1.0
C      1  0.3857870000000  0.5281310000000  0.5456880000000 1.0
C      1  0.6036120000000  0.4706810000000  0.4353630000000 1.0
C      1  0.4140750000000  0.6185820000000  0.5550980000000 1.0
C      1  0.5702790000000  0.3853660000000  0.4463590000000 1.0
C      1  0.5659400000000  0.4896640000000  0.3895780000000 1.0
C      1  0.3949230000000  0.4622860000000  0.6217320000000 1.0
C      1  0.5785920000000  0.5127380000000  0.5718920000000 1.0
C      1  0.4272880000000  0.4937840000000  0.4180520000000 1.0
C      1  0.4711920000000  0.4639730000000  0.4909720000000 1.0
C      1  0.5244240000000  0.5734830000000  0.5213730000000 1.0
C      1  0.5627430000000  0.5625290000000  0.5593230000000 1.0
C      1  0.4355870000000  0.4312410000000  0.4117840000000 1.0
C      1  0.4489860000000  0.4437250000000  0.5474460000000 1.0
C      1  0.5494570000000  0.5461180000000  0.4718940000000 1.0
C      1  0.5774660000000  0.4367440000000  0.5678160000000 1.0
C      1  0.4221120000000  0.5636990000000  0.4388430000000 1.0
C      1  0.5451270000000  0.5411360000000  0.5992100000000 1.0
C      1  0.4613620000000  0.4694820000000  0.3884410000000 1.0
C      1  0.5151770000000  0.4444350000000  0.6115870000000 1.0
C      1  0.4872610000000  0.5831550000000  0.4047310000000 1.0
C      1  0.3892840000000  0.5618870000000  0.4771500000000 1.0
C      1  0.5989810000000  0.4499060000000  0.5204200000000 1.0
C      1  0.5259870000000  0.4830680000000  0.5344470000000 1.0
C      1  0.4874300000000  0.5173050000000  0.4443900000000 1.0
C      1  0.5245180000000  0.5038220000000  0.4624370000000 1.0
C      1  0.4793720000000  0.4853600000000  0.5324510000000 1.0
C      1  0.5191070000000  0.4792730000000  0.4230770000000 1.0
C      1  0.4914700000000  0.4999630000000  0.5751020000000 1.0
C      1  0.5065310000000  0.4001250000000  0.5640680000000 1.0
C      1  0.4961760000000  0.5938410000000  0.4528490000000 1.0
C      1  0.5145720000000  0.5255320000000  0.4473590000000 1.0
C      1  0.5022340000000  0.4730240000000  0.5223010000000 1.0
C      1  0.5133110000000  0.5500280000000  0.5645280000000 1.0
C      1  0.4891890000000  0.4425180000000  0.4137140000000 1.0
C      1  0.4533900000000  0.5580410000000  0.5270590000000 1.0
C      1  0.5443660000000  0.4262800000000  0.4968310000000 1.0
C      1  0.5233180000000  0.4294310000000  0.5158630000000 1.0
C      1  0.4679890000000  0.5514130000000  0.5011380000000 1.0
C      1  0.5200160000000  0.5110840000000  0.5342480000000 1.0
C      1  0.4826050000000  0.4890560000000  0.4501960000000 1.0
C      1  0.3871060000000  0.5784540000000  0.4979720000000 1.0
C      1  0.6126030000000  0.4379220000000  0.4763980000000 1.0
C      1  0.6080830000000  0.4871930000000  0.4832820000000 1.0
C      1  0.3802180000000  0.4872550000000  0.5182960000000 1.0
C      1  0.4958480000000  0.5428090000000  0.6117320000000 1.0
C      1  0.5125140000000  0.4758520000000  0.3945230000000 1.0
C      1  0.4771140000000  0.4806330000000  0.5598470000000 1.0
C      1  0.5357480000000  0.4828220000000  0.4464390000000 1.0
C      1  0.5325390000000  0.5855670000000  0.4209270000000 1.0
C      1  0.4742050000000  0.4106480000000  0.6031880000000 1.0
C      1  0.5197790000000  0.3868270000000  0.4522050000000 1.0
C      1  0.4612020000000  0.6330110000000  0.5697530000000 1.0
C      1  0.4126660000000  0.4590470000000  0.6003190000000 1.0
C      1  0.5644520000000  0.5163850000000  0.3987300000000 1.0
C      1  0.5838210000000  0.5982660000000  0.5333580000000 1.0
C      1  0.4390660000000  0.4139530000000  0.4567600000000 1.0
C      1  0.5862060000000  0.4079010000000  0.4419250000000 1.0
C      1  0.4031660000000  0.5943100000000  0.5464940000000 1.0
C      1  0.5050830000000  0.5914610000000  0.4253940000000 1.0
C      1  0.4932780000000  0.4000120000000  0.5889050000000 1.0
C      1  0.4661590000000  0.5086620000000  0.5232390000000 1.0
C      1  0.5500910000000  0.4461370000000  0.4777200000000 1.0
C      1  0.4682710000000  0.5372960000000  0.4472740000000 1.0
C      1  0.5368570000000  0.4640330000000  0.5515550000000 1.0
C      1  0.6331370000000  0.5172710000000  0.5553920000000 1.0
C      1  0.3835510000000  0.4936370000000  0.4501290000000 1.0
C      1  0.5751380000000  0.5197490000000  0.5430240000000 1.0
C      1  0.4355200000000  0.4809530000000  0.4422900000000 1.0
C      1  0.6088400000000  0.5605340000000  0.5389090000000 1.0
C      1  0.3994850000000  0.4391080000000  0.4553340000000 1.0
C      1  0.5311760000000  0.4156350000000  0.5613490000000 1.0
C      1  0.4687920000000  0.5823960000000  0.4587670000000 1.0
C      1  0.5433180000000  0.5328530000000  0.3873160000000 1.0
C      1  0.4400040000000  0.4531110000000  0.6061880000000 1.0
C      1  0.5421500000000  0.4411750000000  0.3921650000000 1.0
C      1  0.4541590000000  0.5594500000000  0.5792790000000 1.0
C      1  0.5082850000000  0.5179750000000  0.5079510000000 1.0
C      1  0.4851370000000  0.4850030000000  0.4785330000000 1.0
C      1  0.6041900000000  0.5623650000000  0.5088730000000 1.0
C      1  0.4049740000000  0.4276320000000  0.4835550000000 1.0
C      1  0.4220810000000  0.4784800000000  0.4911510000000 1.0
C      1  0.6057860000000  0.5108720000000  0.5009350000000 1.0
C      1  0.3948290000000  0.4393870000000  0.5576670000000 1.0
C      1  0.5742000000000  0.5552580000000  0.4267950000000 1.0
C      1  0.3973080000000  0.4699160000000  0.5037910000000 1.0
C      1  0.6075140000000  0.5386910000000  0.4905890000000 1.0
C      1  0.6045550000000  0.5410530000000  0.4614950000000 1.0
C      1  0.3970670000000  0.4411300000000  0.5074850000000 1.0
C      1  0.4960110000000  0.4246530000000  0.5089220000000 1.0
C      1  0.5350770000000  0.6181220000000  0.5102900000000 1.0
C      1  0.5966230000000  0.5070030000000  0.5276880000000 1.0
C      1  0.4267690000000  0.4911370000000  0.4669940000000 1.0
C      1  0.4272650000000  0.5686940000000  0.5832150000000 1.0
C      1  0.5582110000000  0.4198230000000  0.4019210000000 1.0
C      1  0.5900830000000  0.4350620000000  0.5416580000000 1.0
C      1  0.4000780000000  0.5494650000000  0.4544190000000 1.0
C      1  0.5788400000000  0.4652050000000  0.5750410000000 1.0
C      1  0.4294910000000  0.5424480000000  0.4199730000000 1.0
C      1  0.5394110000000  0.5572950000000  0.5763020000000 1.0
C      1  0.4616940000000  0.4431530000000  0.4018210000000 1.0
C      1  0.5792680000000  0.4257850000000  0.4206200000000 1.0
C      1  0.4097120000000  0.5702490000000  0.5605160000000 1.0
C      1  0.4407390000000  0.4662370000000  0.5316470000000 1.0
C      1  0.5581120000000  0.5212120000000  0.4832060000000 1.0
C      1  0.5873650000000  0.5883730000000  0.5063050000000 1.0
C      1  0.4310730000000  0.4123870000000  0.4849730000000 1.0
C      1  0.3913800000000  0.5913030000000  0.5210140000000 1.0
C      1  0.6046020000000  0.4176260000000  0.4609290000000 1.0
C      1  0.6143010000000  0.4964760000000  0.5496640000000 1.0
C      1  0.3944680000000  0.5205850000000  0.4437290000000 1.0
C      1  0.5182950000000  0.6016150000000  0.4696480000000 1.0
C      1  0.4892500000000  0.3928310000000  0.5421150000000 1.0
C      1  0.5095800000000  0.4993470000000  0.4860650000000 1.0
C      1  0.4819070000000  0.5276570000000  0.5095150000000 1.0
C      1  0.3781230000000  0.4654610000000  0.6414010000000 1.0
C      1  0.5572470000000  0.4646760000000  0.3847960000000 1.0
C      1  0.4677680000000  0.5559470000000  0.4715210000000 1.0
C      1  0.5305460000000  0.4369190000000  0.5423790000000 1.0
C      1  0.4669490000000  0.5637240000000  0.5529250000000 1.0
C      1  0.5600230000000  0.4038920000000  0.4990250000000 1.0
C      1  0.4920000000000  0.4612970000000  0.6070490000000 1.0
C      1  0.5010130000000  0.5662490000000  0.3858270000000 1.0
C      1  0.4605160000000  0.4318030000000  0.4515350000000 1.0
C      1  0.4975540000000  0.5972230000000  0.5675010000000 1.0
C      1  0.4054590000000  0.4297050000000  0.5330250000000 1.0
C      1  0.5877580000000  0.5625170000000  0.4516580000000 1.0
C      1  0.4183500000000  0.5758260000000  0.6080910000000 1.0
C      1  0.5551530000000  0.3947090000000  0.3914410000000 1.0
C      1  0.3846720000000  0.4999460000000  0.5434490000000 1.0
C      1  0.6051300000000  0.4919160000000  0.4538640000000 1.0
C      1  0.4295060000000  0.4892280000000  0.5441870000000 1.0
C      1  0.5620250000000  0.4941880000000  0.4822380000000 1.0
C      1  0.4312610000000  0.5394410000000  0.5320310000000 1.0
C      1  0.6074070000000  0.4593530000000  0.4943760000000 1.0
C      1  0.5598570000000  0.5426970000000  0.5377880000000 1.0
C      1  0.4512440000000  0.4577710000000  0.4444160000000 1.0
C      1  0.5535480000000  0.4713270000000  0.4661570000000 1.0
C      1  0.4402920000000  0.5129190000000  0.5335220000000 1.0
C      1  0.6282250000000  0.5436580000000  0.5507520000000 1.0
C      1  0.3867790000000  0.4656770000000  0.4509970000000 1.0
C      1  0.5078120000000  0.5212370000000  0.5593970000000 1.0
C      1  0.4934700000000  0.4673450000000  0.4337720000000 1.0
C      1  0.4771870000000  0.4056020000000  0.5195560000000 1.0
C      1  0.5423050000000  0.6071700000000  0.4851240000000 1.0
C      1  0.4337860000000  0.4223230000000  0.5346830000000 1.0
C      1  0.5673250000000  0.5682210000000  0.4704970000000 1.0
C      1  0.4822520000000  0.5126450000000  0.3822270000000 1.0
C      1  0.5217210000000  0.5007820000000  0.6104770000000 1.0
END
