TITL C-3623289-7120-418 129556.778234774 125000 -1160.69184506908 0 0 190 (C1) n - 1
REM
REM in /home/nfs/bkarasulu/CARBON/AIRSS/Generating-Clusters/LCBOP/Higher-Symm/SD-CG/FIRE-CG
REM
REM
REM
REM
REM
REM ./C.cell (b20cbc046b6831c77cfcea5457e17084)
REM AIRSS Version 0.9.1 bugfix July 2018 build 013d7b7c2542+ Fri, 06 Jul 2018 19:26:36 +0100
REM compiler GCC version 9.2.1 20190827 (Red Hat 9.2.1-1)
REM options -cpp -mtune=generic -march=x86-64 -g -O0 -fpre-include=/usr/include/finclude/math-vector-fortran.h
REM seed 691687948 1960070816 -1568741901 528518329 -1691295163 369979041 1874080282 1176722678 -113558339 117721764 265279777 1892994860 -495834692 -27160968 1588904285 -457407185 1799433113 -1523700329 -690399648 -318337292 1862892344 1335024046 -2135601722 1918083503 -280892387 -335032242 -949237423 13016952 -634945445 639913590 211683466 549464898 -838481659
REM
CELL 1.54180   50.00000   50.00000   50.00000   90.00000   90.00000   90.00000
LATT -1
SFAC C  
C      1  0.4237570000000  0.4579750000000  0.5038310000000 1.0
C      1  0.5743840000000  0.4645210000000  0.4887110000000 1.0
C      1  0.4164790000000  0.5266050000000  0.5089750000000 1.0
C      1  0.5714280000000  0.5412310000000  0.4869050000000 1.0
C      1  0.4333100000000  0.4457980000000  0.4804970000000 1.0
C      1  0.5665180000000  0.4581970000000  0.5147520000000 1.0
C      1  0.4304170000000  0.5399810000000  0.4893470000000 1.0
C      1  0.5683750000000  0.5258720000000  0.5097310000000 1.0
C      1  0.6076120000000  0.4726910000000  0.4604000000000 1.0
C      1  0.3872730000000  0.4760340000000  0.5184290000000 1.0
C      1  0.6113390000000  0.5230000000000  0.4644290000000 1.0
C      1  0.3851620000000  0.5366900000000  0.5422340000000 1.0
C      1  0.6147080000000  0.4840410000000  0.5125730000000 1.0
C      1  0.3896190000000  0.4711330000000  0.4618790000000 1.0
C      1  0.6117440000000  0.5383170000000  0.5354720000000 1.0
C      1  0.3887350000000  0.5194090000000  0.4694960000000 1.0
C      1  0.5275870000000  0.5324030000000  0.4704590000000 1.0
C      1  0.4893280000000  0.5280360000000  0.5241720000000 1.0
C      1  0.5267690000000  0.4758010000000  0.4782480000000 1.0
C      1  0.4660370000000  0.4746700000000  0.5222850000000 1.0
C      1  0.5204000000000  0.5239630000000  0.5248920000000 1.0
C      1  0.4737260000000  0.5364130000000  0.4719780000000 1.0
C      1  0.5260040000000  0.4719480000000  0.5331120000000 1.0
C      1  0.4726560000000  0.4680170000000  0.4709720000000 1.0
C      1  0.5831840000000  0.5701920000000  0.5572720000000 1.0
C      1  0.4112990000000  0.5537680000000  0.4365450000000 1.0
C      1  0.5932850000000  0.4506720000000  0.5576890000000 1.0
C      1  0.4079480000000  0.4483200000000  0.4211340000000 1.0
C      1  0.5868250000000  0.5588720000000  0.4348940000000 1.0
C      1  0.4227520000000  0.5600740000000  0.5604980000000 1.0
C      1  0.5807970000000  0.4345370000000  0.4402130000000 1.0
C      1  0.4128930000000  0.4343300000000  0.5522260000000 1.0
C      1  0.5089660000000  0.4845160000000  0.5547110000000 1.0
C      1  0.4865750000000  0.4694070000000  0.4440290000000 1.0
C      1  0.5215680000000  0.5120950000000  0.5544680000000 1.0
C      1  0.4864520000000  0.5310600000000  0.4447400000000 1.0
C      1  0.5132320000000  0.4854800000000  0.4501980000000 1.0
C      1  0.4773040000000  0.4874630000000  0.5486830000000 1.0
C      1  0.5135610000000  0.5163700000000  0.4470580000000 1.0
C      1  0.4756200000000  0.5174890000000  0.5476290000000 1.0
C      1  0.4231850000000  0.5764280000000  0.5369910000000 1.0
C      1  0.5899790000000  0.5747970000000  0.4585000000000 1.0
C      1  0.4118650000000  0.4162080000000  0.5296690000000 1.0
C      1  0.5824230000000  0.4191450000000  0.4650710000000 1.0
C      1  0.4282180000000  0.5776900000000  0.4600210000000 1.0
C      1  0.5854990000000  0.5858180000000  0.5337810000000 1.0
C      1  0.4358540000000  0.4041140000000  0.4560730000000 1.0
C      1  0.5945660000000  0.4288450000000  0.5389230000000 1.0
C      1  0.4947110000000  0.5992690000000  0.5385310000000 1.0
C      1  0.5165700000000  0.6065950000000  0.4796080000000 1.0
C      1  0.4784940000000  0.4017470000000  0.5306810000000 1.0
C      1  0.5238680000000  0.4016270000000  0.4764280000000 1.0
C      1  0.4883080000000  0.6101380000000  0.4831290000000 1.0
C      1  0.5235280000000  0.5978520000000  0.5366140000000 1.0
C      1  0.4954670000000  0.3994640000000  0.4720370000000 1.0
C      1  0.5070290000000  0.4018230000000  0.5351750000000 1.0
C      1  0.5376210000000  0.6172110000000  0.5220120000000 1.0
C      1  0.4786030000000  0.6278640000000  0.5028140000000 1.0
C      1  0.5253610000000  0.3846840000000  0.5225850000000 1.0
C      1  0.4788660000000  0.3814830000000  0.4858520000000 1.0
C      1  0.5347570000000  0.6209750000000  0.4954320000000 1.0
C      1  0.4806100000000  0.6216250000000  0.5290810000000 1.0
C      1  0.5342800000000  0.3856500000000  0.4970970000000 1.0
C      1  0.4695020000000  0.3836270000000  0.5111320000000 1.0
C      1  0.3770100000000  0.5374860000000  0.4888170000000 1.0
C      1  0.6233090000000  0.5415620000000  0.5112340000000 1.0
C      1  0.3838740000000  0.4482990000000  0.4783930000000 1.0
C      1  0.6195530000000  0.4581280000000  0.5043660000000 1.0
C      1  0.3893120000000  0.5355490000000  0.5143430000000 1.0
C      1  0.6231690000000  0.5406420000000  0.4840350000000 1.0
C      1  0.3949910000000  0.4548310000000  0.5037970000000 1.0
C      1  0.6015530000000  0.4551860000000  0.4824750000000 1.0
C      1  0.4880080000000  0.5154360000000  0.6120090000000 1.0
C      1  0.5122600000000  0.5173370000000  0.3857530000000 1.0
C      1  0.4818860000000  0.4871610000000  0.6139820000000 1.0
C      1  0.5109950000000  0.4767390000000  0.3882090000000 1.0
C      1  0.4851880000000  0.5127960000000  0.3869580000000 1.0
C      1  0.5136950000000  0.5265310000000  0.6140610000000 1.0
C      1  0.4845300000000  0.4832390000000  0.3860670000000 1.0
C      1  0.5023020000000  0.4695630000000  0.6211390000000 1.0
C      1  0.5744140000000  0.4948180000000  0.5485150000000 1.0
C      1  0.4361990000000  0.4824110000000  0.4431270000000 1.0
C      1  0.5705980000000  0.5216990000000  0.5589380000000 1.0
C      1  0.4370620000000  0.5130840000000  0.4471710000000 1.0
C      1  0.5622250000000  0.4822360000000  0.4435730000000 1.0
C      1  0.4254820000000  0.4812450000000  0.5605870000000 1.0
C      1  0.5646010000000  0.5144270000000  0.4420200000000 1.0
C      1  0.4230690000000  0.5084940000000  0.5521470000000 1.0
C      1  0.4613030000000  0.5232110000000  0.4280920000000 1.0
C      1  0.5387260000000  0.5305640000000  0.5710420000000 1.0
C      1  0.4609980000000  0.4738110000000  0.4253010000000 1.0
C      1  0.5132580000000  0.4637390000000  0.5761770000000 1.0
C      1  0.4773480000000  0.5355840000000  0.5701640000000 1.0
C      1  0.5380470000000  0.5206630000000  0.4251380000000 1.0
C      1  0.4591670000000  0.4704840000000  0.5692040000000 1.0
C      1  0.5354140000000  0.4687550000000  0.4316050000000 1.0
C      1  0.5215560000000  0.4471010000000  0.5202920000000 1.0
C      1  0.4791470000000  0.4444690000000  0.4867050000000 1.0
C      1  0.5283020000000  0.5532180000000  0.5153080000000 1.0
C      1  0.4768330000000  0.5592850000000  0.4895090000000 1.0
C      1  0.5249420000000  0.4488710000000  0.4914760000000 1.0
C      1  0.4726720000000  0.4475770000000  0.5139770000000 1.0
C      1  0.5246640000000  0.5569040000000  0.4862100000000 1.0
C      1  0.4806800000000  0.5548510000000  0.5173280000000 1.0
C      1  0.4295230000000  0.4175700000000  0.4799820000000 1.0
C      1  0.5767240000000  0.4306100000000  0.5172060000000 1.0
C      1  0.4270930000000  0.5682960000000  0.4860210000000 1.0
C      1  0.5846010000000  0.5840300000000  0.5070860000000 1.0
C      1  0.4189450000000  0.4076670000000  0.5047790000000 1.0
C      1  0.5794860000000  0.4162440000000  0.4922050000000 1.0
C      1  0.4238630000000  0.5818250000000  0.5106330000000 1.0
C      1  0.5816100000000  0.5677490000000  0.4844920000000 1.0
C      1  0.4757290000000  0.5950140000000  0.6051050000000 1.0
C      1  0.5208090000000  0.5919880000000  0.4193050000000 1.0
C      1  0.4759170000000  0.4085350000000  0.5968200000000 1.0
C      1  0.5184990000000  0.4026480000000  0.4058530000000 1.0
C      1  0.4672480000000  0.5959470000000  0.4183910000000 1.0
C      1  0.5285160000000  0.5976850000000  0.6047130000000 1.0
C      1  0.4659490000000  0.4018680000000  0.4162580000000 1.0
C      1  0.5301590000000  0.4144820000000  0.5954150000000 1.0
C      1  0.4095570000000  0.5341230000000  0.5579880000000 1.0
C      1  0.5921660000000  0.5297410000000  0.4405950000000 1.0
C      1  0.4057730000000  0.4637830000000  0.5489470000000 1.0
C      1  0.5870830000000  0.4641680000000  0.4408260000000 1.0
C      1  0.4085450000000  0.5275480000000  0.4475550000000 1.0
C      1  0.5895710000000  0.5423880000000  0.5533010000000 1.0
C      1  0.4080990000000  0.4702880000000  0.4392480000000 1.0
C      1  0.5978250000000  0.4781540000000  0.5448840000000 1.0
C      1  0.5743020000000  0.4425480000000  0.5787110000000 1.0
C      1  0.4226580000000  0.4263070000000  0.4161750000000 1.0
C      1  0.5721680000000  0.5809980000000  0.5806650000000 1.0
C      1  0.4247970000000  0.5653340000000  0.4138010000000 1.0
C      1  0.5663440000000  0.4217800000000  0.4190500000000 1.0
C      1  0.4284360000000  0.4239660000000  0.5750760000000 1.0
C      1  0.5691580000000  0.5709290000000  0.4155380000000 1.0
C      1  0.4338450000000  0.5716410000000  0.5835440000000 1.0
C      1  0.5554600000000  0.5279120000000  0.4676360000000 1.0
C      1  0.4279770000000  0.5059100000000  0.5235070000000 1.0
C      1  0.5557460000000  0.4785740000000  0.4733670000000 1.0
C      1  0.4387600000000  0.4809530000000  0.5147850000000 1.0
C      1  0.5459140000000  0.5092800000000  0.5150520000000 1.0
C      1  0.4478690000000  0.5249250000000  0.4733910000000 1.0
C      1  0.5533220000000  0.4830820000000  0.5290070000000 1.0
C      1  0.4449600000000  0.4673640000000  0.4671120000000 1.0
C      1  0.5552790000000  0.5035120000000  0.6088690000000 1.0
C      1  0.4375940000000  0.5129950000000  0.3867150000000 1.0
C      1  0.5481460000000  0.4775140000000  0.6087460000000 1.0
C      1  0.4372080000000  0.4855160000000  0.3851140000000 1.0
C      1  0.5588680000000  0.5068590000000  0.3845930000000 1.0
C      1  0.4418350000000  0.5228020000000  0.6034410000000 1.0
C      1  0.5581570000000  0.4797340000000  0.3882020000000 1.0
C      1  0.4364270000000  0.4960200000000  0.6055400000000 1.0
C      1  0.5013060000000  0.4405690000000  0.5643050000000 1.0
C      1  0.4971280000000  0.4402170000000  0.4430020000000 1.0
C      1  0.5241900000000  0.5570740000000  0.5633910000000 1.0
C      1  0.4957150000000  0.5575910000000  0.4365790000000 1.0
C      1  0.5269220000000  0.4403120000000  0.4435830000000 1.0
C      1  0.4717330000000  0.4420540000000  0.5611160000000 1.0
C      1  0.5151790000000  0.5764020000000  0.4425740000000 1.0
C      1  0.4940560000000  0.5580550000000  0.5638440000000 1.0
C      1  0.4520140000000  0.5855270000000  0.5973560000000 1.0
C      1  0.5471320000000  0.5861860000000  0.4097810000000 1.0
C      1  0.4499470000000  0.4137080000000  0.5890230000000 1.0
C      1  0.5443950000000  0.4097570000000  0.4087800000000 1.0
C      1  0.4430710000000  0.5839920000000  0.4280100000000 1.0
C      1  0.5529720000000  0.5913070000000  0.5961100000000 1.0
C      1  0.4413890000000  0.4090410000000  0.4286010000000 1.0
C      1  0.5538670000000  0.4265780000000  0.5881660000000 1.0
C      1  0.4743280000000  0.5857970000000  0.4802960000000 1.0
C      1  0.5321560000000  0.5705750000000  0.5384080000000 1.0
C      1  0.4857400000000  0.4252540000000  0.4657460000000 1.0
C      1  0.5149030000000  0.4282580000000  0.5413130000000 1.0
C      1  0.4838330000000  0.5729160000000  0.5403710000000 1.0
C      1  0.5227690000000  0.5806640000000  0.4696020000000 1.0
C      1  0.4678360000000  0.4284530000000  0.5348790000000 1.0
C      1  0.5320200000000  0.4288770000000  0.4709680000000 1.0
C      1  0.4587400000000  0.4789820000000  0.5987340000000 1.0
C      1  0.5345980000000  0.4701370000000  0.4014520000000 1.0
C      1  0.4686200000000  0.5296510000000  0.5963440000000 1.0
C      1  0.5372470000000  0.5208640000000  0.3970770000000 1.0
C      1  0.4604500000000  0.4733550000000  0.3970170000000 1.0
C      1  0.5230650000000  0.4664920000000  0.6024040000000 1.0
C      1  0.4614630000000  0.5232060000000  0.3992760000000 1.0
C      1  0.5381700000000  0.5242770000000  0.6001450000000 1.0
C      1  0.4917580000000  0.4001850000000  0.4085770000000 1.0
C      1  0.5034180000000  0.4085550000000  0.5989020000000 1.0
C      1  0.4937020000000  0.6005590000000  0.4111970000000 1.0
C      1  0.5020070000000  0.5990070000000  0.6074500000000 1.0
C      1  0.3877190000000  0.4925880000000  0.4821880000000 1.0
C      1  0.6127910000000  0.4968820000000  0.4759440000000 1.0
END
