TITL C-3623283-6828-43 0.00085255538459572 125000 -605.089321607697 0 0 99 (C1) n - 1
REM
REM in /home/nfs/bkarasulu/CARBON/AIRSS/Generating-Clusters/LCBOP/Higher-Symm/SD-CG/FIRE-CG
REM
REM
REM
REM
REM
REM ./C.cell (b20cbc046b6831c77cfcea5457e17084)
REM AIRSS Version 0.9.1 bugfix July 2018 build 013d7b7c2542+ Fri, 06 Jul 2018 19:26:36 +0100
REM compiler GCC version 9.2.1 20190827 (Red Hat 9.2.1-1)
REM options -cpp -mtune=generic -march=x86-64 -g -O0 -fpre-include=/usr/include/finclude/math-vector-fortran.h
REM seed 29863461 329449403 1617995507 1987460584 1944588519 2136535900 -1839716220 -251476834 -1848083020 641733152 -817288087 -910936339 1740882026 1028648413 1199150112 -1934960352 -1319816181 331214332 1482337213 -56827121 712037184 -65601041 -1820735337 -576217484 1365767315 -1908725946 933473570 -1223284234 94659597 1225328074 1275423515 -1560938573 -1082360182
REM
CELL 1.54180   50.00000   50.00000   50.00000   90.00000   90.00000   90.00000
LATT -1
SFAC C  
C      1  0.4727240000000  0.4957920000000  0.5715550000000 1.0
C      1  0.5133660000000  0.4715680000000  0.5797110000000 1.0
C      1  0.5080090000000  0.5175140000000  0.5945570000000 1.0
C      1  0.5394590000000  0.5540710000000  0.4287340000000 1.0
C      1  0.4537930000000  0.5004080000000  0.4435090000000 1.0
C      1  0.5245000000000  0.4654440000000  0.4383560000000 1.0
C      1  0.5483450000000  0.5328970000000  0.5578700000000 1.0
C      1  0.4429260000000  0.5357980000000  0.5657540000000 1.0
C      1  0.4985400000000  0.4294750000000  0.5577250000000 1.0
C      1  0.4550280000000  0.4558000000000  0.4254830000000 1.0
C      1  0.5672350000000  0.4847520000000  0.4294690000000 1.0
C      1  0.4889360000000  0.5613790000000  0.4321190000000 1.0
C      1  0.3955830000000  0.4794200000000  0.5215770000000 1.0
C      1  0.5546660000000  0.4212640000000  0.5245650000000 1.0
C      1  0.5373830000000  0.5959110000000  0.5234010000000 1.0
C      1  0.5115030000000  0.4363820000000  0.4849750000000 1.0
C      1  0.5912420000000  0.5411610000000  0.4691590000000 1.0
C      1  0.4260660000000  0.5504190000000  0.5172440000000 1.0
C      1  0.5811890000000  0.5289900000000  0.4926020000000 1.0
C      1  0.4486690000000  0.5516680000000  0.4991540000000 1.0
C      1  0.4844020000000  0.4441200000000  0.4808710000000 1.0
C      1  0.5533320000000  0.5316660000000  0.4962220000000 1.0
C      1  0.4679540000000  0.5311250000000  0.5014070000000 1.0
C      1  0.4961350000000  0.4613220000000  0.5230500000000 1.0
C      1  0.4637180000000  0.4227240000000  0.5222310000000 1.0
C      1  0.5793280000000  0.5026680000000  0.5318800000000 1.0
C      1  0.4619220000000  0.5794700000000  0.5333040000000 1.0
C      1  0.5257290000000  0.4517910000000  0.5625270000000 1.0
C      1  0.5226690000000  0.5445630000000  0.5498320000000 1.0
C      1  0.4390740000000  0.5156440000000  0.5455990000000 1.0
C      1  0.4760420000000  0.4937460000000  0.4603170000000 1.0
C      1  0.5223670000000  0.4850680000000  0.4602370000000 1.0
C      1  0.5018740000000  0.5044970000000  0.4581580000000 1.0
C      1  0.4605150000000  0.4963770000000  0.5453850000000 1.0
C      1  0.5231610000000  0.5052850000000  0.5238400000000 1.0
C      1  0.5088450000000  0.5280060000000  0.5308320000000 1.0
C      1  0.4465050000000  0.5502040000000  0.4496450000000 1.0
C      1  0.4892920000000  0.4266510000000  0.4378540000000 1.0
C      1  0.5811580000000  0.5271260000000  0.4469350000000 1.0
C      1  0.4757460000000  0.4700890000000  0.4749710000000 1.0
C      1  0.5382830000000  0.4846670000000  0.4848650000000 1.0
C      1  0.5072950000000  0.5310060000000  0.4637130000000 1.0
C      1  0.5221020000000  0.5925680000000  0.5453100000000 1.0
C      1  0.4005150000000  0.4544110000000  0.5332690000000 1.0
C      1  0.5573890000000  0.4495460000000  0.5227180000000 1.0
C      1  0.5885630000000  0.5015930000000  0.5019110000000 1.0
C      1  0.4642160000000  0.5771530000000  0.5023640000000 1.0
C      1  0.4627420000000  0.4274030000000  0.4918850000000 1.0
C      1  0.4527290000000  0.4405250000000  0.5440270000000 1.0
C      1  0.5622030000000  0.4870580000000  0.5516450000000 1.0
C      1  0.4796820000000  0.5671610000000  0.5545330000000 1.0
C      1  0.5618440000000  0.4445820000000  0.4580010000000 1.0
C      1  0.5180060000000  0.5928110000000  0.4526290000000 1.0
C      1  0.4183020000000  0.4661050000000  0.4540330000000 1.0
C      1  0.5256620000000  0.4970500000000  0.5853060000000 1.0
C      1  0.4831270000000  0.5211680000000  0.5818480000000 1.0
C      1  0.4842070000000  0.4706700000000  0.5777230000000 1.0
C      1  0.5399830000000  0.4399070000000  0.4772900000000 1.0
C      1  0.6077320000000  0.5626600000000  0.4683060000000 1.0
C      1  0.3614640000000  0.4172140000000  0.5354090000000 1.0
C      1  0.4202850000000  0.5239860000000  0.5260500000000 1.0
C      1  0.5114680000000  0.4370120000000  0.5141970000000 1.0
C      1  0.5372320000000  0.5544310000000  0.4931620000000 1.0
C      1  0.5107900000000  0.5462930000000  0.4868520000000 1.0
C      1  0.3802170000000  0.4352920000000  0.5345650000000 1.0
C      1  0.5478980000000  0.4604990000000  0.4976410000000 1.0
C      1  0.4209690000000  0.4426740000000  0.4679500000000 1.0
C      1  0.5857500000000  0.4557440000000  0.4712810000000 1.0
C      1  0.4997540000000  0.5995140000000  0.4719250000000 1.0
C      1  0.4743200000000  0.4466370000000  0.5644780000000 1.0
C      1  0.5473700000000  0.5054700000000  0.5692080000000 1.0
C      1  0.4694970000000  0.5448020000000  0.5712300000000 1.0
C      1  0.5729960000000  0.5309750000000  0.5416750000000 1.0
C      1  0.4329190000000  0.5721960000000  0.5360350000000 1.0
C      1  0.4863780000000  0.4105930000000  0.5377300000000 1.0
C      1  0.5589220000000  0.5332380000000  0.4283970000000 1.0
C      1  0.4541180000000  0.5270180000000  0.4336360000000 1.0
C      1  0.5029340000000  0.4507030000000  0.4269710000000 1.0
C      1  0.4943650000000  0.5374490000000  0.5085070000000 1.0
C      1  0.4762270000000  0.4802870000000  0.5268960000000 1.0
C      1  0.5394140000000  0.5070230000000  0.5011870000000 1.0
C      1  0.4015780000000  0.5051350000000  0.5178140000000 1.0
C      1  0.5280680000000  0.4154080000000  0.5238970000000 1.0
C      1  0.5436280000000  0.5798400000000  0.5028460000000 1.0
C      1  0.5898370000000  0.4842520000000  0.4761760000000 1.0
C      1  0.4757060000000  0.5850490000000  0.4768560000000 1.0
C      1  0.4449900000000  0.4270450000000  0.4679200000000 1.0
C      1  0.5839010000000  0.4980090000000  0.4501980000000 1.0
C      1  0.4682230000000  0.5694270000000  0.4531330000000 1.0
C      1  0.4600820000000  0.4306520000000  0.4421820000000 1.0
C      1  0.5497100000000  0.4617740000000  0.5473300000000 1.0
C      1  0.5086320000000  0.5694290000000  0.5538970000000 1.0
C      1  0.4260030000000  0.4485810000000  0.5434850000000 1.0
C      1  0.4804860000000  0.4632800000000  0.4133140000000 1.0
C      1  0.5551550000000  0.5073210000000  0.4151600000000 1.0
C      1  0.4773930000000  0.5378920000000  0.4191370000000 1.0
C      1  0.5528130000000  0.4607080000000  0.4356150000000 1.0
C      1  0.5164000000000  0.5701490000000  0.4350860000000 1.0
C      1  0.4385910000000  0.4766990000000  0.4369840000000 1.0
END
