TITL C-3623282-6910-1342 -8.57978175132043e-07 125000 -774.425192617625 0 0 128 (C1) n - 1
REM
REM in /home/nfs/bkarasulu/CARBON/AIRSS/Generating-Clusters/LCBOP/Higher-Symm/SD-CG/FIRE-CG
REM
REM
REM
REM
REM
REM ./C.cell (b20cbc046b6831c77cfcea5457e17084)
REM AIRSS Version 0.9.1 bugfix July 2018 build 013d7b7c2542+ Fri, 06 Jul 2018 19:26:36 +0100
REM compiler GCC version 9.2.1 20190827 (Red Hat 9.2.1-1)
REM options -cpp -mtune=generic -march=x86-64 -g -O0 -fpre-include=/usr/include/finclude/math-vector-fortran.h
REM seed -1662216437 -1359661031 -697624874 830587492 328803088 1810956566 1757871603 1409783342 -552308016 2020984744 1841763623 -1283797143 -1823041095 -1396467964 -1734641788 400068904 137838158 715717025 -1803593698 -1567799791 -1291794295 -180363592 -435615051 -1176231117 533651406 407435095 1103734362 -1764573701 963714644 442604613 250833125 -2053910478 -1899273511
REM
CELL 1.54180   50.00000   50.00000   50.00000   90.00000   90.00000   90.00000
LATT -1
SFAC C  
C      1  0.3979190000000  0.5053450000000  0.4512730000000 1.0
C      1  0.5982620000000  0.5056960000000  0.5491750000000 1.0
C      1  0.4990260000000  0.4551340000000  0.5625060000000 1.0
C      1  0.5016840000000  0.4579360000000  0.4381090000000 1.0
C      1  0.4710280000000  0.4668350000000  0.5539510000000 1.0
C      1  0.5297100000000  0.4678100000000  0.4484690000000 1.0
C      1  0.4698090000000  0.5567350000000  0.4707450000000 1.0
C      1  0.5255790000000  0.5580640000000  0.5340620000000 1.0
C      1  0.5876260000000  0.4809210000000  0.4626580000000 1.0
C      1  0.4155630000000  0.4817150000000  0.5399750000000 1.0
C      1  0.5954430000000  0.5316970000000  0.5414780000000 1.0
C      1  0.4009040000000  0.5312030000000  0.4586690000000 1.0
C      1  0.5558010000000  0.5718270000000  0.4389280000000 1.0
C      1  0.4340620000000  0.5783550000000  0.5550020000000 1.0
C      1  0.5359020000000  0.5053620000000  0.4145450000000 1.0
C      1  0.4705120000000  0.5081060000000  0.5845030000000 1.0
C      1  0.4562790000000  0.4549030000000  0.4240610000000 1.0
C      1  0.5445190000000  0.4479400000000  0.5756510000000 1.0
C      1  0.5320930000000  0.5805900000000  0.4247880000000 1.0
C      1  0.4520850000000  0.5980540000000  0.5520100000000 1.0
C      1  0.4059920000000  0.4796150000000  0.4515720000000 1.0
C      1  0.5911710000000  0.4794770000000  0.5496090000000 1.0
C      1  0.4880950000000  0.3834900000000  0.5331440000000 1.0
C      1  0.5105880000000  0.3834600000000  0.4622980000000 1.0
C      1  0.4945820000000  0.6107520000000  0.4504720000000 1.0
C      1  0.4988310000000  0.6173520000000  0.5355070000000 1.0
C      1  0.5864970000000  0.4788210000000  0.4912580000000 1.0
C      1  0.4142970000000  0.4783490000000  0.5111360000000 1.0
C      1  0.5557750000000  0.5260950000000  0.4130510000000 1.0
C      1  0.4516750000000  0.5303990000000  0.5846930000000 1.0
C      1  0.5725360000000  0.4975790000000  0.4452160000000 1.0
C      1  0.4305650000000  0.4989640000000  0.5574500000000 1.0
C      1  0.5392960000000  0.4758220000000  0.5827810000000 1.0
C      1  0.4641610000000  0.4832580000000  0.4167430000000 1.0
C      1  0.5472830000000  0.6088600000000  0.5157250000000 1.0
C      1  0.4489600000000  0.6062530000000  0.4778490000000 1.0
C      1  0.5158010000000  0.6008720000000  0.4370030000000 1.0
C      1  0.4744320000000  0.6108110000000  0.5444720000000 1.0
C      1  0.5057970000000  0.3883100000000  0.5115190000000 1.0
C      1  0.4931970000000  0.3888180000000  0.4840100000000 1.0
C      1  0.4652250000000  0.3965890000000  0.4763680000000 1.0
C      1  0.5340540000000  0.3949760000000  0.5192540000000 1.0
C      1  0.5757480000000  0.5492740000000  0.5302690000000 1.0
C      1  0.4204740000000  0.5478340000000  0.4706430000000 1.0
C      1  0.5106810000000  0.4806270000000  0.5744900000000 1.0
C      1  0.4929050000000  0.4843810000000  0.4258170000000 1.0
C      1  0.5210530000000  0.5162840000000  0.6015920000000 1.0
C      1  0.4896370000000  0.5223820000000  0.3980090000000 1.0
C      1  0.5683320000000  0.4105700000000  0.4899300000000 1.0
C      1  0.4311060000000  0.4094490000000  0.5072460000000 1.0
C      1  0.4205830000000  0.5040140000000  0.5012850000000 1.0
C      1  0.5783750000000  0.5041620000000  0.5005710000000 1.0
C      1  0.4192100000000  0.4560690000000  0.4927970000000 1.0
C      1  0.5809570000000  0.4557120000000  0.5081160000000 1.0
C      1  0.4660360000000  0.4878910000000  0.4767520000000 1.0
C      1  0.5333130000000  0.4880880000000  0.5260580000000 1.0
C      1  0.5170700000000  0.4357360000000  0.5797040000000 1.0
C      1  0.4828600000000  0.4406590000000  0.4196790000000 1.0
C      1  0.4804880000000  0.4824690000000  0.5274060000000 1.0
C      1  0.5192990000000  0.4835830000000  0.4749010000000 1.0
C      1  0.4938290000000  0.5507390000000  0.4010750000000 1.0
C      1  0.5235440000000  0.5438860000000  0.6068300000000 1.0
C      1  0.5770940000000  0.5658530000000  0.5058670000000 1.0
C      1  0.4189570000000  0.5652810000000  0.4941150000000 1.0
C      1  0.4559680000000  0.4151620000000  0.5566750000000 1.0
C      1  0.5434180000000  0.4157730000000  0.4417070000000 1.0
C      1  0.5472420000000  0.4873420000000  0.4342290000000 1.0
C      1  0.4560830000000  0.4884570000000  0.5683410000000 1.0
C      1  0.5450640000000  0.4418160000000  0.4472310000000 1.0
C      1  0.4545120000000  0.4417330000000  0.5544180000000 1.0
C      1  0.5620000000000  0.5251050000000  0.4921090000000 1.0
C      1  0.4364670000000  0.5251780000000  0.5099770000000 1.0
C      1  0.4721820000000  0.5392310000000  0.5369460000000 1.0
C      1  0.5254700000000  0.5348030000000  0.4658160000000 1.0
C      1  0.4660080000000  0.4743480000000  0.5030310000000 1.0
C      1  0.5337850000000  0.4751570000000  0.4993500000000 1.0
C      1  0.5539450000000  0.3896410000000  0.4993920000000 1.0
C      1  0.4450340000000  0.3894980000000  0.4953510000000 1.0
C      1  0.5731870000000  0.5265680000000  0.4369680000000 1.0
C      1  0.4303940000000  0.5288440000000  0.5637490000000 1.0
C      1  0.4209520000000  0.4581780000000  0.4631110000000 1.0
C      1  0.5786840000000  0.4564740000000  0.5376380000000 1.0
C      1  0.5111550000000  0.5213630000000  0.5090380000000 1.0
C      1  0.4871510000000  0.5213550000000  0.4948800000000 1.0
C      1  0.4639070000000  0.4459160000000  0.5010520000000 1.0
C      1  0.5360240000000  0.4466750000000  0.4999450000000 1.0
C      1  0.5471620000000  0.5107350000000  0.5383200000000 1.0
C      1  0.4506440000000  0.5093430000000  0.4647650000000 1.0
C      1  0.4300010000000  0.5911820000000  0.4898770000000 1.0
C      1  0.5667270000000  0.5920810000000  0.5079050000000 1.0
C      1  0.5458010000000  0.4134260000000  0.5398880000000 1.0
C      1  0.4541250000000  0.4168760000000  0.4571290000000 1.0
C      1  0.5487910000000  0.5400630000000  0.5360280000000 1.0
C      1  0.4474310000000  0.5381960000000  0.4671800000000 1.0
C      1  0.4845590000000  0.5536410000000  0.5555230000000 1.0
C      1  0.5093450000000  0.5469680000000  0.4492520000000 1.0
C      1  0.5237840000000  0.6171260000000  0.5256840000000 1.0
C      1  0.4713260000000  0.6124950000000  0.4640690000000 1.0
C      1  0.5223100000000  0.5607810000000  0.5843790000000 1.0
C      1  0.4754970000000  0.5617240000000  0.4201150000000 1.0
C      1  0.5294280000000  0.3935560000000  0.4463690000000 1.0
C      1  0.4696340000000  0.3933500000000  0.5496600000000 1.0
C      1  0.4983910000000  0.5037040000000  0.5878020000000 1.0
C      1  0.5081470000000  0.5043420000000  0.4115330000000 1.0
C      1  0.5063200000000  0.4979870000000  0.5264390000000 1.0
C      1  0.4926120000000  0.4986980000000  0.4765040000000 1.0
C      1  0.5088030000000  0.5666820000000  0.5105710000000 1.0
C      1  0.4865400000000  0.5665640000000  0.4935920000000 1.0
C      1  0.4372370000000  0.4364970000000  0.5030530000000 1.0
C      1  0.5625850000000  0.4371890000000  0.4967400000000 1.0
C      1  0.5740030000000  0.5496420000000  0.4815580000000 1.0
C      1  0.4227570000000  0.5492610000000  0.5183200000000 1.0
C      1  0.5109110000000  0.4369670000000  0.5088810000000 1.0
C      1  0.4890430000000  0.4372220000000  0.4908400000000 1.0
C      1  0.5439790000000  0.4984390000000  0.5997900000000 1.0
C      1  0.4636380000000  0.5071790000000  0.3996320000000 1.0
C      1  0.5053830000000  0.4416920000000  0.5358710000000 1.0
C      1  0.4939390000000  0.4434330000000  0.4639700000000 1.0
C      1  0.4646730000000  0.5273350000000  0.5124340000000 1.0
C      1  0.5337020000000  0.5263410000000  0.4912170000000 1.0
C      1  0.4248950000000  0.5526630000000  0.5469660000000 1.0
C      1  0.5713590000000  0.5513800000000  0.4524740000000 1.0
C      1  0.5585580000000  0.4382380000000  0.5516890000000 1.0
C      1  0.4417230000000  0.4428960000000  0.4472530000000 1.0
C      1  0.5193160000000  0.5648850000000  0.4034740000000 1.0
C      1  0.5267390000000  0.5536160000000  0.6321020000000 1.0
C      1  0.5113350000000  0.5606660000000  0.5587890000000 1.0
C      1  0.4840480000000  0.5582240000000  0.4465640000000 1.0
END
