TITL C-3623282-6910-1053 -0.0986365930009592 125000 -390.599332620892 0 0 66 (C1) n - 1
REM
REM in /home/nfs/bkarasulu/CARBON/AIRSS/Generating-Clusters/LCBOP/Higher-Symm/SD-CG/FIRE-CG
REM
REM
REM
REM
REM
REM ./C.cell (b20cbc046b6831c77cfcea5457e17084)
REM AIRSS Version 0.9.1 bugfix July 2018 build 013d7b7c2542+ Fri, 06 Jul 2018 19:26:36 +0100
REM compiler GCC version 9.2.1 20190827 (Red Hat 9.2.1-1)
REM options -cpp -mtune=generic -march=x86-64 -g -O0 -fpre-include=/usr/include/finclude/math-vector-fortran.h
REM seed 753601145 -1132457008 826928059 1834430713 -1843563756 2137873773 -1006145081 -1471352497 1961851571 -592958015 1346040576 1529590512 527481394 1339952551 1029509604 -1249553781 1010528728 -674986898 -1871180553 1290089379 -907096479 -1344067170 815724364 -1652925167 1164778391 358947990 1948927291 -1797763357 -715409106 -1800448492 -308535676 -1383310697 -318929237
REM
CELL 1.54180   50.00000   50.00000   50.00000   90.00000   90.00000   90.00000
LATT -1
SFAC C  
C      1  0.4759270000000  0.4454050000000  0.4935450000000 1.0
C      1  0.4358170000000  0.4691840000000  0.4878040000000 1.0
C      1  0.4974120000000  0.4737120000000  0.4596140000000 1.0
C      1  0.4711200000000  0.5539910000000  0.5101160000000 1.0
C      1  0.5500490000000  0.4393770000000  0.4817550000000 1.0
C      1  0.5261390000000  0.5415810000000  0.4917510000000 1.0
C      1  0.4466110000000  0.5227740000000  0.5392880000000 1.0
C      1  0.5384820000000  0.5024950000000  0.5309980000000 1.0
C      1  0.5623740000000  0.4938480000000  0.4630340000000 1.0
C      1  0.5030120000000  0.5490990000000  0.5519870000000 1.0
C      1  0.4877930000000  0.4827960000000  0.5808780000000 1.0
C      1  0.4797220000000  0.5179750000000  0.4516960000000 1.0
C      1  0.5170150000000  0.5348980000000  0.4224920000000 1.0
C      1  0.4478910000000  0.4435730000000  0.4902340000000 1.0
C      1  0.4976260000000  0.4449370000000  0.4716050000000 1.0
C      1  0.4593770000000  0.5208150000000  0.5652100000000 1.0
C      1  0.5450650000000  0.4863020000000  0.4421780000000 1.0
C      1  0.5350870000000  0.5114580000000  0.5582370000000 1.0
C      1  0.4466530000000  0.5466400000000  0.5226400000000 1.0
C      1  0.5533970000000  0.5349680000000  0.4967150000000 1.0
C      1  0.5628560000000  0.4603750000000  0.4957180000000 1.0
C      1  0.4935950000000  0.5460850000000  0.5255860000000 1.0
C      1  0.4667120000000  0.5415290000000  0.4609430000000 1.0
C      1  0.5016180000000  0.4358840000000  0.5326560000000 1.0
C      1  0.5637580000000  0.4238840000000  0.4631070000000 1.0
C      1  0.4328540000000  0.5428270000000  0.6069540000000 1.0
C      1  0.4190880000000  0.5573990000000  0.4413900000000 1.0
C      1  0.5945600000000  0.5674970000000  0.4846300000000 1.0
C      1  0.4215100000000  0.3967720000000  0.4879960000000 1.0
C      1  0.4017250000000  0.5753990000000  0.5149380000000 1.0
C      1  0.5426820000000  0.5715720000000  0.3949580000000 1.0
C      1  0.5634940000000  0.4643200000000  0.3965320000000 1.0
C      1  0.5731650000000  0.5057930000000  0.5959040000000 1.0
C      1  0.4953450000000  0.4573490000000  0.5780140000000 1.0
C      1  0.5061680000000  0.5734340000000  0.5648820000000 1.0
C      1  0.4854220000000  0.4081530000000  0.4314360000000 1.0
C      1  0.5548880000000  0.4752360000000  0.4185740000000 1.0
C      1  0.4234870000000  0.5617600000000  0.5193420000000 1.0
C      1  0.5019450000000  0.4382400000000  0.5604220000000 1.0
C      1  0.5548370000000  0.5086560000000  0.5776030000000 1.0
C      1  0.5297610000000  0.5533290000000  0.4083670000000 1.0
C      1  0.4454650000000  0.5317400000000  0.5870280000000 1.0
C      1  0.4338980000000  0.4196590000000  0.4893390000000 1.0
C      1  0.5757670000000  0.4097290000000  0.4448180000000 1.0
C      1  0.5746470000000  0.5519020000000  0.4908990000000 1.0
C      1  0.4425310000000  0.5499950000000  0.4500310000000 1.0
C      1  0.5084800000000  0.5962610000000  0.5772370000000 1.0
C      1  0.4913500000000  0.4253370000000  0.4500820000000 1.0
C      1  0.5180730000000  0.4229320000000  0.5137610000000 1.0
C      1  0.4263490000000  0.4827130000000  0.5104120000000 1.0
C      1  0.5174350000000  0.4902580000000  0.4460170000000 1.0
C      1  0.4793960000000  0.5563520000000  0.4819010000000 1.0
C      1  0.5228130000000  0.4344990000000  0.4876580000000 1.0
C      1  0.5083940000000  0.5597460000000  0.4781750000000 1.0
C      1  0.4324710000000  0.5006380000000  0.5291620000000 1.0
C      1  0.5572390000000  0.5086330000000  0.5092000000000 1.0
C      1  0.5643330000000  0.4879540000000  0.4906610000000 1.0
C      1  0.5090900000000  0.5237750000000  0.5641780000000 1.0
C      1  0.4852810000000  0.5088880000000  0.5708820000000 1.0
C      1  0.5056420000000  0.5159890000000  0.4392150000000 1.0
C      1  0.4859010000000  0.4550830000000  0.5184980000000 1.0
C      1  0.4469370000000  0.4842280000000  0.4668970000000 1.0
C      1  0.4730340000000  0.4910300000000  0.4599730000000 1.0
C      1  0.5086680000000  0.5279770000000  0.5099900000000 1.0
C      1  0.5124120000000  0.5015280000000  0.5183570000000 1.0
C      1  0.4933140000000  0.4818220000000  0.5202710000000 1.0
END
