TITL C-3623285-6872-1225 -0.000348654510342169 125000 -645.637789668277 0 0 104 (C1) n - 1
REM
REM in /home/nfs/bkarasulu/CARBON/AIRSS/Generating-Clusters/LCBOP/Higher-Symm/SD-CG/FIRE-CG
REM
REM
REM
REM
REM
REM ./C.cell (b20cbc046b6831c77cfcea5457e17084)
REM AIRSS Version 0.9.1 bugfix July 2018 build 013d7b7c2542+ Fri, 06 Jul 2018 19:26:36 +0100
REM compiler GCC version 9.2.1 20190827 (Red Hat 9.2.1-1)
REM options -cpp -mtune=generic -march=x86-64 -g -O0 -fpre-include=/usr/include/finclude/math-vector-fortran.h
REM seed 829553528 -1461801033 1189989578 -473555850 786202726 1750071559 -1238740422 -706897714 1050287599 -955204106 1458783459 -1247156462 -110257075 594951746 -1543451129 -321841313 1515313207 48021807 -856901230 1952947521 1572777602 1115255212 -704209181 1643652891 -918412366 1583936185 -536548857 1793083615 -169143380 2077259773 -1872834724 605928761 -418909394
REM
CELL 1.54180   50.00000   50.00000   50.00000   90.00000   90.00000   90.00000
LATT -1
SFAC C  
C      1  0.6047130000000  0.5189560000000  0.5106090000000 1.0
C      1  0.3994230000000  0.4946690000000  0.4960610000000 1.0
C      1  0.3975740000000  0.5219360000000  0.5084020000000 1.0
C      1  0.5987410000000  0.4938710000000  0.4975200000000 1.0
C      1  0.4635430000000  0.5323420000000  0.5109010000000 1.0
C      1  0.5195960000000  0.4670260000000  0.5033860000000 1.0
C      1  0.5186560000000  0.5337070000000  0.5055570000000 1.0
C      1  0.4656730000000  0.4649730000000  0.5066930000000 1.0
C      1  0.5592400000000  0.5493190000000  0.4552750000000 1.0
C      1  0.4478120000000  0.4502940000000  0.4493420000000 1.0
C      1  0.4495040000000  0.5446130000000  0.4504640000000 1.0
C      1  0.5564630000000  0.4462170000000  0.4527050000000 1.0
C      1  0.4071000000000  0.4739780000000  0.4467110000000 1.0
C      1  0.5968560000000  0.5191030000000  0.4541310000000 1.0
C      1  0.5955470000000  0.4731580000000  0.4506990000000 1.0
C      1  0.4093510000000  0.5183430000000  0.4503470000000 1.0
C      1  0.4673850000000  0.5688330000000  0.5467090000000 1.0
C      1  0.5307710000000  0.4410460000000  0.5491850000000 1.0
C      1  0.5292240000000  0.5644250000000  0.5508880000000 1.0
C      1  0.4649260000000  0.4354190000000  0.5469100000000 1.0
C      1  0.4690920000000  0.4191410000000  0.4985610000000 1.0
C      1  0.5311660000000  0.5781990000000  0.5018640000000 1.0
C      1  0.5303760000000  0.4212050000000  0.5019730000000 1.0
C      1  0.4721580000000  0.5785020000000  0.4974230000000 1.0
C      1  0.4379140000000  0.5503050000000  0.4761880000000 1.0
C      1  0.5574040000000  0.4526620000000  0.4803380000000 1.0
C      1  0.5590700000000  0.5449560000000  0.4835580000000 1.0
C      1  0.4363070000000  0.4479990000000  0.4753600000000 1.0
C      1  0.5825670000000  0.4762300000000  0.5146050000000 1.0
C      1  0.4061530000000  0.5468720000000  0.5166000000000 1.0
C      1  0.4097270000000  0.4726300000000  0.5155480000000 1.0
C      1  0.5954690000000  0.5414200000000  0.5224260000000 1.0
C      1  0.4397090000000  0.5762770000000  0.5422360000000 1.0
C      1  0.5599310000000  0.4497620000000  0.5502100000000 1.0
C      1  0.5583480000000  0.5557470000000  0.5526910000000 1.0
C      1  0.4353330000000  0.4369970000000  0.5446160000000 1.0
C      1  0.4441660000000  0.5263000000000  0.4911920000000 1.0
C      1  0.5399020000000  0.4744490000000  0.4857590000000 1.0
C      1  0.5388180000000  0.5244410000000  0.4866920000000 1.0
C      1  0.4457910000000  0.4723280000000  0.4884890000000 1.0
C      1  0.4856350000000  0.5783130000000  0.5249460000000 1.0
C      1  0.5150970000000  0.4241130000000  0.5280760000000 1.0
C      1  0.5156210000000  0.5786140000000  0.5273860000000 1.0
C      1  0.4830750000000  0.4221920000000  0.5263660000000 1.0
C      1  0.5163450000000  0.5384390000000  0.5543380000000 1.0
C      1  0.4735040000000  0.4619320000000  0.5555410000000 1.0
C      1  0.4696180000000  0.5409330000000  0.5564650000000 1.0
C      1  0.5172630000000  0.4661210000000  0.5543790000000 1.0
C      1  0.4428110000000  0.5720040000000  0.4946160000000 1.0
C      1  0.5575060000000  0.4340720000000  0.5020380000000 1.0
C      1  0.5574640000000  0.5649380000000  0.5037820000000 1.0
C      1  0.4399270000000  0.4281200000000  0.4960580000000 1.0
C      1  0.4896040000000  0.5050320000000  0.6351750000000 1.0
C      1  0.5666070000000  0.4793890000000  0.5597410000000 1.0
C      1  0.5647160000000  0.5317440000000  0.5700790000000 1.0
C      1  0.4231430000000  0.4597220000000  0.5586530000000 1.0
C      1  0.4680210000000  0.4802200000000  0.5320870000000 1.0
C      1  0.5264600000000  0.5254960000000  0.5313430000000 1.0
C      1  0.5187590000000  0.4816460000000  0.5290280000000 1.0
C      1  0.4555240000000  0.5249470000000  0.5374650000000 1.0
C      1  0.4754000000000  0.4467520000000  0.4554310000000 1.0
C      1  0.5322760000000  0.5604890000000  0.4514080000000 1.0
C      1  0.5295140000000  0.4360440000000  0.4504250000000 1.0
C      1  0.4772400000000  0.5495140000000  0.4555290000000 1.0
C      1  0.4928620000000  0.4702820000000  0.4520160000000 1.0
C      1  0.5167250000000  0.5422520000000  0.4358530000000 1.0
C      1  0.5146790000000  0.4575610000000  0.4386840000000 1.0
C      1  0.4954050000000  0.5276370000000  0.4498190000000 1.0
C      1  0.5158840000000  0.4224440000000  0.4742630000000 1.0
C      1  0.4883190000000  0.5707620000000  0.4738840000000 1.0
C      1  0.4858790000000  0.4245370000000  0.4736310000000 1.0
C      1  0.5177700000000  0.5741030000000  0.4744710000000 1.0
C      1  0.4238020000000  0.4389680000000  0.5177840000000 1.0
C      1  0.5727500000000  0.5580050000000  0.5274560000000 1.0
C      1  0.5730220000000  0.4480060000000  0.5226820000000 1.0
C      1  0.4258770000000  0.5686250000000  0.5183850000000 1.0
C      1  0.5690080000000  0.4695010000000  0.4405390000000 1.0
C      1  0.4360110000000  0.5218560000000  0.4381610000000 1.0
C      1  0.4341020000000  0.4714620000000  0.4354970000000 1.0
C      1  0.5715840000000  0.5261460000000  0.4429620000000 1.0
C      1  0.5400000000000  0.5014970000000  0.5306050000000 1.0
C      1  0.4453410000000  0.4984420000000  0.5392850000000 1.0
C      1  0.4905900000000  0.5310090000000  0.5001360000000 1.0
C      1  0.4927520000000  0.4589580000000  0.4983100000000 1.0
C      1  0.4912210000000  0.5035080000000  0.6092110000000 1.0
C      1  0.5666230000000  0.5042280000000  0.5760540000000 1.0
C      1  0.5272530000000  0.5296810000000  0.4132870000000 1.0
C      1  0.5007930000000  0.4916170000000  0.4101600000000 1.0
C      1  0.4931980000000  0.5281010000000  0.5668970000000 1.0
C      1  0.4950150000000  0.4747220000000  0.5698820000000 1.0
C      1  0.4209770000000  0.4832070000000  0.5413090000000 1.0
C      1  0.5661580000000  0.4919080000000  0.5328270000000 1.0
C      1  0.5273540000000  0.5016550000000  0.4161870000000 1.0
C      1  0.4735580000000  0.4946050000000  0.4134000000000 1.0
C      1  0.4421290000000  0.4994840000000  0.4838920000000 1.0
C      1  0.5410350000000  0.4992690000000  0.4723980000000 1.0
C      1  0.5515650000000  0.4980080000000  0.4410200000000 1.0
C      1  0.4478800000000  0.4965660000000  0.4269130000000 1.0
C      1  0.6014040000000  0.4945400000000  0.4684670000000 1.0
C      1  0.4003240000000  0.4949300000000  0.4655280000000 1.0
C      1  0.4931610000000  0.5020090000000  0.5811410000000 1.0
C      1  0.4925450000000  0.4988150000000  0.4640730000000 1.0
C      1  0.4906500000000  0.5026590000000  0.4941900000000 1.0
C      1  0.4925920000000  0.4943660000000  0.5237640000000 1.0
END
