TITL C-3623285-6872-389 30097.2323606297 125000 -1097.90085614169 0 0 182 (C1) n - 1
REM
REM in /home/nfs/bkarasulu/CARBON/AIRSS/Generating-Clusters/LCBOP/Higher-Symm/SD-CG/FIRE-CG
REM
REM
REM
REM
REM
REM ./C.cell (b20cbc046b6831c77cfcea5457e17084)
REM AIRSS Version 0.9.1 bugfix July 2018 build 013d7b7c2542+ Fri, 06 Jul 2018 19:26:36 +0100
REM compiler GCC version 9.2.1 20190827 (Red Hat 9.2.1-1)
REM options -cpp -mtune=generic -march=x86-64 -g -O0 -fpre-include=/usr/include/finclude/math-vector-fortran.h
REM seed 584495387 -2106941678 -1977726194 484956405 2026902752 -1027031423 -564151295 369316397 -2145924958 -635076468 1612875691 522567255 1721080107 -2000543071 1908625027 742174797 -2142380528 -2132758461 -1562426868 -1807632365 2085982538 -139705834 131007814 1590544413 -1196476711 -1531204793 1467257501 -1889544049 719412584 856241086 1477545888 -1468159579 -147403750
REM
CELL 1.54180   50.00000   50.00000   50.00000   90.00000   90.00000   90.00000
LATT -1
SFAC C  
C      1  0.5739710000000  0.5564820000000  0.4459140000000 1.0
C      1  0.5744250000000  0.5596200000000  0.5541740000000 1.0
C      1  0.4732320000000  0.5485130000000  0.5884450000000 1.0
C      1  0.4060350000000  0.5473470000000  0.5014370000000 1.0
C      1  0.4717460000000  0.5606720000000  0.4136890000000 1.0
C      1  0.5775090000000  0.4397160000000  0.4467710000000 1.0
C      1  0.5720480000000  0.4419850000000  0.5548320000000 1.0
C      1  0.4685460000000  0.4531170000000  0.5855910000000 1.0
C      1  0.4040730000000  0.4500030000000  0.4949380000000 1.0
C      1  0.4753470000000  0.4400730000000  0.4117990000000 1.0
C      1  0.4243540000000  0.5780130000000  0.4630010000000 1.0
C      1  0.5167540000000  0.5826680000000  0.4172300000000 1.0
C      1  0.5831160000000  0.5806350000000  0.4889930000000 1.0
C      1  0.5351150000000  0.5806510000000  0.5778900000000 1.0
C      1  0.4387530000000  0.5784130000000  0.5597080000000 1.0
C      1  0.4237570000000  0.4222530000000  0.4548230000000 1.0
C      1  0.5185450000000  0.4187020000000  0.4195970000000 1.0
C      1  0.5870190000000  0.4173900000000  0.4909740000000 1.0
C      1  0.5310580000000  0.4233350000000  0.5756000000000 1.0
C      1  0.4343100000000  0.4273520000000  0.5562380000000 1.0
C      1  0.4003210000000  0.5186130000000  0.4905420000000 1.0
C      1  0.4780610000000  0.5349730000000  0.4038980000000 1.0
C      1  0.5858420000000  0.5311060000000  0.4513650000000 1.0
C      1  0.5763030000000  0.5348120000000  0.5673810000000 1.0
C      1  0.4650970000000  0.5198210000000  0.5892670000000 1.0
C      1  0.4006880000000  0.4780230000000  0.4855200000000 1.0
C      1  0.4826980000000  0.4663510000000  0.4043050000000 1.0
C      1  0.5901840000000  0.4645160000000  0.4505490000000 1.0
C      1  0.5706900000000  0.4670230000000  0.5689350000000 1.0
C      1  0.4589680000000  0.4803230000000  0.5870130000000 1.0
C      1  0.3735550000000  0.4846940000000  0.5444160000000 1.0
C      1  0.4199290000000  0.4783760000000  0.3937260000000 1.0
C      1  0.5881380000000  0.5271710000000  0.3649660000000 1.0
C      1  0.6386760000000  0.4774980000000  0.5298510000000 1.0
C      1  0.5129620000000  0.5187890000000  0.6643640000000 1.0
C      1  0.3483290000000  0.4812510000000  0.5388380000000 1.0
C      1  0.4142130000000  0.4725490000000  0.3689750000000 1.0
C      1  0.5659900000000  0.5219930000000  0.3776960000000 1.0
C      1  0.6561940000000  0.4724770000000  0.5484840000000 1.0
C      1  0.5208820000000  0.5166280000000  0.6396270000000 1.0
C      1  0.5344950000000  0.6228520000000  0.4734680000000 1.0
C      1  0.5353410000000  0.6218970000000  0.5252180000000 1.0
C      1  0.4872210000000  0.6201720000000  0.5444740000000 1.0
C      1  0.4553180000000  0.6199880000000  0.5058240000000 1.0
C      1  0.4834780000000  0.6214660000000  0.4620330000000 1.0
C      1  0.5356210000000  0.3758180000000  0.4745970000000 1.0
C      1  0.5358170000000  0.3777080000000  0.5288060000000 1.0
C      1  0.4840750000000  0.3798370000000  0.5459660000000 1.0
C      1  0.4516420000000  0.3795060000000  0.5022700000000 1.0
C      1  0.4836510000000  0.3766970000000  0.4578510000000 1.0
C      1  0.4758920000000  0.4368330000000  0.5372770000000 1.0
C      1  0.4510000000000  0.4296560000000  0.4902630000000 1.0
C      1  0.4942350000000  0.4322830000000  0.4571740000000 1.0
C      1  0.5435360000000  0.4325640000000  0.4815490000000 1.0
C      1  0.5303260000000  0.4322570000000  0.5295640000000 1.0
C      1  0.4782660000000  0.5628900000000  0.5408750000000 1.0
C      1  0.4553900000000  0.5637150000000  0.4932480000000 1.0
C      1  0.4958650000000  0.5664110000000  0.4558470000000 1.0
C      1  0.5399570000000  0.5663560000000  0.4798090000000 1.0
C      1  0.5302860000000  0.5650190000000  0.5334040000000 1.0
C      1  0.5000600000000  0.5188310000000  0.4100020000000 1.0
C      1  0.5770980000000  0.5109460000000  0.4722780000000 1.0
C      1  0.5554040000000  0.5183280000000  0.5764150000000 1.0
C      1  0.4552070000000  0.5151780000000  0.5606570000000 1.0
C      1  0.4260400000000  0.5132310000000  0.4764480000000 1.0
C      1  0.4939430000000  0.4864380000000  0.4225290000000 1.0
C      1  0.5909760000000  0.4806860000000  0.4734360000000 1.0
C      1  0.5505490000000  0.4896250000000  0.5627650000000 1.0
C      1  0.4451420000000  0.4872280000000  0.5643010000000 1.0
C      1  0.4201460000000  0.4849660000000  0.4667380000000 1.0
C      1  0.4973280000000  0.5576750000000  0.6003300000000 1.0
C      1  0.4029370000000  0.5565190000000  0.5283760000000 1.0
C      1  0.4451270000000  0.5662330000000  0.4201350000000 1.0
C      1  0.5608550000000  0.5618850000000  0.4216440000000 1.0
C      1  0.5925180000000  0.5648090000000  0.5335000000000 1.0
C      1  0.4928290000000  0.4452330000000  0.5972980000000 1.0
C      1  0.3998210000000  0.4424320000000  0.5219970000000 1.0
C      1  0.4481850000000  0.4339820000000  0.4142750000000 1.0
C      1  0.5634060000000  0.4357360000000  0.4230010000000 1.0
C      1  0.5921210000000  0.4374580000000  0.5353450000000 1.0
C      1  0.5690250000000  0.4264640000000  0.4704890000000 1.0
C      1  0.5467360000000  0.4283770000000  0.5527400000000 1.0
C      1  0.4610470000000  0.4371830000000  0.5622680000000 1.0
C      1  0.4233240000000  0.4322930000000  0.4815250000000 1.0
C      1  0.4933670000000  0.4269850000000  0.4292770000000 1.0
C      1  0.5656790000000  0.5712290000000  0.4688650000000 1.0
C      1  0.5484990000000  0.5715910000000  0.5541800000000 1.0
C      1  0.4643240000000  0.5659140000000  0.5659460000000 1.0
C      1  0.4265590000000  0.5643590000000  0.4880670000000 1.0
C      1  0.4923920000000  0.5733110000000  0.4285850000000 1.0
C      1  0.5782080000000  0.6086150000000  0.4954000000000 1.0
C      1  0.5253000000000  0.6077850000000  0.5757730000000 1.0
C      1  0.4397940000000  0.6060530000000  0.5519980000000 1.0
C      1  0.4313250000000  0.6061200000000  0.4635570000000 1.0
C      1  0.5225360000000  0.6098770000000  0.4256470000000 1.0
C      1  0.5809410000000  0.3905480000000  0.4999050000000 1.0
C      1  0.5234270000000  0.3958300000000  0.5781370000000 1.0
C      1  0.4336020000000  0.3990630000000  0.5502520000000 1.0
C      1  0.4313760000000  0.3942430000000  0.4535840000000 1.0
C      1  0.5237030000000  0.3908180000000  0.4242680000000 1.0
C      1  0.5154860000000  0.6254540000000  0.5551950000000 1.0
C      1  0.4573970000000  0.6236320000000  0.5366330000000 1.0
C      1  0.4498040000000  0.6245940000000  0.4759460000000 1.0
C      1  0.5174550000000  0.6268530000000  0.4484310000000 1.0
C      1  0.5554810000000  0.6266820000000  0.4958340000000 1.0
C      1  0.5164390000000  0.3760180000000  0.5592230000000 1.0
C      1  0.4491110000000  0.3787600000000  0.5379930000000 1.0
C      1  0.4486800000000  0.3757730000000  0.4663640000000 1.0
C      1  0.5169920000000  0.3723850000000  0.4446230000000 1.0
C      1  0.5585370000000  0.3731710000000  0.5017460000000 1.0
C      1  0.5972860000000  0.4396400000000  0.5072000000000 1.0
C      1  0.5174830000000  0.4472330000000  0.5835270000000 1.0
C      1  0.4176940000000  0.4476500000000  0.5436590000000 1.0
C      1  0.4328250000000  0.4425240000000  0.4364800000000 1.0
C      1  0.5364550000000  0.4406330000000  0.4186280000000 1.0
C      1  0.5904850000000  0.5591090000000  0.5063790000000 1.0
C      1  0.5250410000000  0.5583560000000  0.5936780000000 1.0
C      1  0.4213080000000  0.5577410000000  0.5500630000000 1.0
C      1  0.4320570000000  0.5580260000000  0.4436530000000 1.0
C      1  0.5344030000000  0.5599860000000  0.4113040000000 1.0
C      1  0.5183510000000  0.3939250000000  0.5153380000000 1.0
C      1  0.4915600000000  0.3942240000000  0.5239840000000 1.0
C      1  0.4750680000000  0.3932320000000  0.5015210000000 1.0
C      1  0.4912110000000  0.3921310000000  0.4788670000000 1.0
C      1  0.5179690000000  0.3925380000000  0.4872200000000 1.0
C      1  0.5199770000000  0.6019310000000  0.5144880000000 1.0
C      1  0.4938810000000  0.5993230000000  0.5249830000000 1.0
C      1  0.4761400000000  0.5996070000000  0.5029560000000 1.0
C      1  0.4911890000000  0.6018700000000  0.4791980000000 1.0
C      1  0.5183180000000  0.6023540000000  0.4864370000000 1.0
C      1  0.4388050000000  0.4870150000000  0.5176160000000 1.0
C      1  0.4688110000000  0.4863030000000  0.4494790000000 1.0
C      1  0.5336180000000  0.4832190000000  0.4539460000000 1.0
C      1  0.5546390000000  0.4919530000000  0.5310190000000 1.0
C      1  0.5020360000000  0.4843050000000  0.5482450000000 1.0
C      1  0.4438600000000  0.5108410000000  0.5023280000000 1.0
C      1  0.4648170000000  0.5155390000000  0.4526520000000 1.0
C      1  0.5431620000000  0.5075800000000  0.4630550000000 1.0
C      1  0.5579590000000  0.5157000000000  0.5162360000000 1.0
C      1  0.4877690000000  0.5080070000000  0.5475930000000 1.0
C      1  0.5034370000000  0.4423210000000  0.5309200000000 1.0
C      1  0.4585560000000  0.4418590000000  0.5149670000000 1.0
C      1  0.4717020000000  0.4406790000000  0.4717600000000 1.0
C      1  0.5196390000000  0.4403160000000  0.4683240000000 1.0
C      1  0.5447830000000  0.4433810000000  0.5080880000000 1.0
C      1  0.5050690000000  0.5536710000000  0.5406030000000 1.0
C      1  0.4636350000000  0.5526060000000  0.5180340000000 1.0
C      1  0.4745130000000  0.5567990000000  0.4720420000000 1.0
C      1  0.5208690000000  0.5538000000000  0.4633520000000 1.0
C      1  0.5379250000000  0.5572730000000  0.5070370000000 1.0
C      1  0.5227880000000  0.5261550000000  0.4669060000000 1.0
C      1  0.5358270000000  0.5292650000000  0.5079790000000 1.0
C      1  0.5017340000000  0.5268250000000  0.5345350000000 1.0
C      1  0.4654970000000  0.5253010000000  0.5110490000000 1.0
C      1  0.4795850000000  0.5288590000000  0.4703820000000 1.0
C      1  0.5196400000000  0.4685770000000  0.4732090000000 1.0
C      1  0.5545100000000  0.4689010000000  0.5147610000000 1.0
C      1  0.5035520000000  0.4705050000000  0.5226560000000 1.0
C      1  0.4571500000000  0.4693750000000  0.5066250000000 1.0
C      1  0.4738360000000  0.4713280000000  0.4805670000000 1.0
C      1  0.4356530000000  0.5270310000000  0.4507490000000 1.0
C      1  0.5256140000000  0.5321780000000  0.4051140000000 1.0
C      1  0.5832780000000  0.5237630000000  0.5011790000000 1.0
C      1  0.5375580000000  0.5319130000000  0.5952050000000 1.0
C      1  0.4283560000000  0.5314720000000  0.5593690000000 1.0
C      1  0.4357860000000  0.4725000000000  0.4425760000000 1.0
C      1  0.5277070000000  0.4748440000000  0.4257870000000 1.0
C      1  0.6026210000000  0.4671530000000  0.4970020000000 1.0
C      1  0.5215650000000  0.4772340000000  0.5719850000000 1.0
C      1  0.4248740000000  0.4775190000000  0.5441700000000 1.0
C      1  0.6174130000000  0.4851120000000  0.5137090000000 1.0
C      1  0.5141340000000  0.4922860000000  0.5975860000000 1.0
C      1  0.3994540000000  0.4922830000000  0.5509600000000 1.0
C      1  0.4258710000000  0.4882620000000  0.4189580000000 1.0
C      1  0.5438410000000  0.4886510000000  0.4056180000000 1.0
C      1  0.6077900000000  0.5114960000000  0.5127770000000 1.0
C      1  0.5241490000000  0.5136090000000  0.6122740000000 1.0
C      1  0.4051960000000  0.5159050000000  0.5649510000000 1.0
C      1  0.4225410000000  0.5151220000000  0.4262570000000 1.0
C      1  0.5458260000000  0.5144930000000  0.3952690000000 1.0
C      1  0.5011780000000  0.4756580000000  0.4935970000000 1.0
C      1  0.5012140000000  0.5218800000000  0.4980740000000 1.0
END
