TITL C-3623287-7182-1215 0.456019247629165 125000 -956.433151851047 0 0 158 (C2) n - 1
REM
REM in /home/nfs/bkarasulu/CARBON/AIRSS/Generating-Clusters/LCBOP/Higher-Symm/SD-CG/FIRE-CG
REM
REM
REM
REM
REM
REM ./C.cell (b20cbc046b6831c77cfcea5457e17084)
REM AIRSS Version 0.9.1 bugfix July 2018 build 013d7b7c2542+ Fri, 06 Jul 2018 19:26:36 +0100
REM compiler GCC version 9.2.1 20190827 (Red Hat 9.2.1-1)
REM options -cpp -mtune=generic -march=x86-64 -g -O0 -fpre-include=/usr/include/finclude/math-vector-fortran.h
REM seed 2117611579 323570120 1064008496 -616036477 -179242069 2136512548 883957656 1420451035 -1859485598 1531895572 -1810508219 -1881416483 1507413056 507627365 -1992927118 -104593010 644219490 1101299151 1533682704 496134256 -105097333 1198475485 1366427802 -112945511 1911906068 1472508288 593594503 -287437758 1475756654 1406552874 970033701 -2087299149 -347761112
REM
CELL 1.54180   50.00000   50.00000   50.00000   90.00000   90.00000   90.00000
LATT -1
SFAC C  
C      1  0.4800780000000  0.6042130000000  0.3682630000000 1.0
C      1  0.4800610000000  0.3957850000000  0.6317330000000 1.0
C      1  0.4570850000000  0.4903530000000  0.4307830000000 1.0
C      1  0.4570690000000  0.5096430000000  0.5692070000000 1.0
C      1  0.5853040000000  0.4432180000000  0.5382520000000 1.0
C      1  0.5853060000000  0.5567920000000  0.4617660000000 1.0
C      1  0.4887660000000  0.6342650000000  0.4406100000000 1.0
C      1  0.4887680000000  0.3657340000000  0.5593880000000 1.0
C      1  0.5743800000000  0.5448260000000  0.5549460000000 1.0
C      1  0.5743970000000  0.4551830000000  0.4450700000000 1.0
C      1  0.4358270000000  0.5622660000000  0.5392660000000 1.0
C      1  0.4358420000000  0.4377260000000  0.4607200000000 1.0
C      1  0.4516430000000  0.4585610000000  0.4701590000000 1.0
C      1  0.4516320000000  0.5414330000000  0.5298300000000 1.0
C      1  0.3916630000000  0.4897060000000  0.5098060000000 1.0
C      1  0.3916640000000  0.5102820000000  0.4901710000000 1.0
C      1  0.3992710000000  0.4416340000000  0.4868730000000 1.0
C      1  0.3992610000000  0.5583550000000  0.5131050000000 1.0
C      1  0.5197000000000  0.4360970000000  0.4848670000000 1.0
C      1  0.5196890000000  0.5639050000000  0.5151380000000 1.0
C      1  0.5525360000000  0.4995640000000  0.4184030000000 1.0
C      1  0.5525190000000  0.5004420000000  0.5816090000000 1.0
C      1  0.4799020000000  0.5371070000000  0.4610820000000 1.0
C      1  0.4798980000000  0.4628910000000  0.5389130000000 1.0
C      1  0.4811660000000  0.5312370000000  0.4325320000000 1.0
C      1  0.4811550000000  0.4687600000000  0.5674640000000 1.0
C      1  0.5475580000000  0.5396750000000  0.4390430000000 1.0
C      1  0.5475490000000  0.4603300000000  0.5609670000000 1.0
C      1  0.5470870000000  0.4434160000000  0.4777720000000 1.0
C      1  0.5470760000000  0.5565900000000  0.5222380000000 1.0
C      1  0.5256820000000  0.4325110000000  0.3166570000000 1.0
C      1  0.5256350000000  0.5674920000000  0.6833480000000 1.0
C      1  0.4878000000000  0.5532850000000  0.3544920000000 1.0
C      1  0.4877750000000  0.4467140000000  0.6455050000000 1.0
C      1  0.4220520000000  0.5769550000000  0.5187460000000 1.0
C      1  0.4220650000000  0.4230370000000  0.4812370000000 1.0
C      1  0.5188320000000  0.5250760000000  0.4837980000000 1.0
C      1  0.5188320000000  0.4749270000000  0.5162060000000 1.0
C      1  0.5277090000000  0.4436930000000  0.3406030000000 1.0
C      1  0.5276680000000  0.5563100000000  0.6594030000000 1.0
C      1  0.4921860000000  0.3861350000000  0.5097100000000 1.0
C      1  0.4921760000000  0.6138640000000  0.4902890000000 1.0
C      1  0.4631130000000  0.4003320000000  0.6788900000000 1.0
C      1  0.4631400000000  0.5996640000000  0.3211020000000 1.0
C      1  0.4906890000000  0.3710440000000  0.5334900000000 1.0
C      1  0.4906820000000  0.6289550000000  0.4665080000000 1.0
C      1  0.5239260000000  0.4285990000000  0.5344460000000 1.0
C      1  0.5239250000000  0.5714040000000  0.4655590000000 1.0
C      1  0.4155050000000  0.4693780000000  0.6050370000000 1.0
C      1  0.4155240000000  0.5306120000000  0.3949450000000 1.0
C      1  0.5235600000000  0.5783750000000  0.7069470000000 1.0
C      1  0.5236140000000  0.4216280000000  0.2930580000000 1.0
C      1  0.5287110000000  0.4402070000000  0.5591900000000 1.0
C      1  0.5287170000000  0.5597960000000  0.4408160000000 1.0
C      1  0.4387210000000  0.5574260000000  0.4709440000000 1.0
C      1  0.4387210000000  0.4425670000000  0.5290430000000 1.0
C      1  0.5757830000000  0.5455050000000  0.4364260000000 1.0
C      1  0.5757740000000  0.4545030000000  0.5635900000000 1.0
C      1  0.5056280000000  0.5149930000000  0.5725900000000 1.0
C      1  0.5056460000000  0.4850080000000  0.4274110000000 1.0
C      1  0.4818160000000  0.5035780000000  0.4224630000000 1.0
C      1  0.4817990000000  0.4964200000000  0.5775330000000 1.0
C      1  0.4059940000000  0.5248760000000  0.4478480000000 1.0
C      1  0.4059860000000  0.4751130000000  0.5521310000000 1.0
C      1  0.5565030000000  0.5016270000000  0.5335850000000 1.0
C      1  0.5565100000000  0.4983790000000  0.4664270000000 1.0
C      1  0.4575010000000  0.4833480000000  0.4585980000000 1.0
C      1  0.4574900000000  0.5166470000000  0.5413930000000 1.0
C      1  0.4093310000000  0.5272490000000  0.4204870000000 1.0
C      1  0.4093170000000  0.4727410000000  0.5794930000000 1.0
C      1  0.5765260000000  0.5237720000000  0.5325620000000 1.0
C      1  0.5765360000000  0.4762360000000  0.4674540000000 1.0
C      1  0.5544250000000  0.5652770000000  0.5485950000000 1.0
C      1  0.5544430000000  0.4347290000000  0.4514170000000 1.0
C      1  0.3857040000000  0.4520130000000  0.4638570000000 1.0
C      1  0.3856910000000  0.5479740000000  0.5361180000000 1.0
C      1  0.5482270000000  0.4885920000000  0.5574990000000 1.0
C      1  0.5482380000000  0.5114140000000  0.4425120000000 1.0
C      1  0.4874980000000  0.5770020000000  0.3690530000000 1.0
C      1  0.4874780000000  0.4229970000000  0.6309440000000 1.0
C      1  0.5676200000000  0.5747590000000  0.4795290000000 1.0
C      1  0.5676240000000  0.4252490000000  0.5204860000000 1.0
C      1  0.5188870000000  0.4466610000000  0.5130610000000 1.0
C      1  0.5188840000000  0.5533410000000  0.4869430000000 1.0
C      1  0.4924820000000  0.5094920000000  0.3393450000000 1.0
C      1  0.4924480000000  0.4905080000000  0.6606540000000 1.0
C      1  0.4970590000000  0.5505250000000  0.5272230000000 1.0
C      1  0.4970700000000  0.4494750000000  0.4727760000000 1.0
C      1  0.5860290000000  0.4638630000000  0.4936980000000 1.0
C      1  0.5860240000000  0.5361470000000  0.5063210000000 1.0
C      1  0.4807700000000  0.4761580000000  0.6813670000000 1.0
C      1  0.4808070000000  0.5238400000000  0.3186290000000 1.0
C      1  0.3927430000000  0.4968880000000  0.5383090000000 1.0
C      1  0.3927510000000  0.5031000000000  0.4616680000000 1.0
C      1  0.5298480000000  0.4689320000000  0.3870980000000 1.0
C      1  0.5298200000000  0.5310710000000  0.6129090000000 1.0
C      1  0.5418730000000  0.5912190000000  0.4768710000000 1.0
C      1  0.5418780000000  0.4087850000000  0.5231380000000 1.0
C      1  0.5014780000000  0.4720750000000  0.4547480000000 1.0
C      1  0.5014650000000  0.5279250000000  0.5452520000000 1.0
C      1  0.4404200000000  0.4036780000000  0.4934550000000 1.0
C      1  0.4404080000000  0.5963150000000  0.5065320000000 1.0
C      1  0.3998860000000  0.4610050000000  0.5079840000000 1.0
C      1  0.3998830000000  0.5389840000000  0.4919950000000 1.0
C      1  0.6235970000000  0.5101300000000  0.4449130000000 1.0
C      1  0.6235860000000  0.4898840000000  0.5551140000000 1.0
C      1  0.4717230000000  0.4501120000000  0.4897430000000 1.0
C      1  0.4717150000000  0.5498850000000  0.5102510000000 1.0
C      1  0.6192710000000  0.5206720000000  0.4693360000000 1.0
C      1  0.6192670000000  0.4793420000000  0.5306900000000 1.0
C      1  0.4944290000000  0.5163180000000  0.4737820000000 1.0
C      1  0.4944250000000  0.4836810000000  0.5262170000000 1.0
C      1  0.4686830000000  0.6128220000000  0.3439120000000 1.0
C      1  0.4686610000000  0.3871740000000  0.6560810000000 1.0
C      1  0.4661380000000  0.6053410000000  0.5012300000000 1.0
C      1  0.4661500000000  0.3946560000000  0.4987620000000 1.0
C      1  0.5402050000000  0.4931890000000  0.5120230000000 1.0
C      1  0.5402060000000  0.5068160000000  0.4879860000000 1.0
C      1  0.4771820000000  0.4485060000000  0.6734830000000 1.0
C      1  0.4772140000000  0.5514920000000  0.3265120000000 1.0
C      1  0.5217180000000  0.5934280000000  0.5242010000000 1.0
C      1  0.5217340000000  0.4065740000000  0.4758040000000 1.0
C      1  0.4968920000000  0.5264720000000  0.3608810000000 1.0
C      1  0.4968650000000  0.4735280000000  0.6391180000000 1.0
C      1  0.5391120000000  0.5906310000000  0.5487020000000 1.0
C      1  0.5391330000000  0.4093730000000  0.4513070000000 1.0
C      1  0.4228330000000  0.5338190000000  0.3701280000000 1.0
C      1  0.4228090000000  0.4661730000000  0.6298550000000 1.0
C      1  0.5841920000000  0.5230320000000  0.4186760000000 1.0
C      1  0.5841770000000  0.4769780000000  0.5813420000000 1.0
C      1  0.5195970000000  0.6067240000000  0.4989280000000 1.0
C      1  0.5196090000000  0.3932790000000  0.5010770000000 1.0
C      1  0.4839900000000  0.5082600000000  0.5320420000000 1.0
C      1  0.4839980000000  0.4917380000000  0.4679550000000 1.0
C      1  0.4645290000000  0.5513450000000  0.4807620000000 1.0
C      1  0.4645310000000  0.4486510000000  0.5192300000000 1.0
C      1  0.4142130000000  0.4554410000000  0.5325160000000 1.0
C      1  0.4142150000000  0.5445490000000  0.4674650000000 1.0
C      1  0.5908650000000  0.5459250000000  0.5765700000000 1.0
C      1  0.5908870000000  0.4540850000000  0.4234500000000 1.0
C      1  0.3853660000000  0.5228120000000  0.5460620000000 1.0
C      1  0.3853790000000  0.4771750000000  0.4539130000000 1.0
C      1  0.5295830000000  0.5157080000000  0.5896650000000 1.0
C      1  0.5296050000000  0.4842950000000  0.4103410000000 1.0
C      1  0.6087960000000  0.4890360000000  0.5776930000000 1.0
C      1  0.6088110000000  0.5109760000000  0.4223310000000 1.0
C      1  0.4863110000000  0.6312800000000  0.4143810000000 1.0
C      1  0.4863070000000  0.3687190000000  0.5856160000000 1.0
C      1  0.5292370000000  0.5444230000000  0.6357720000000 1.0
C      1  0.5292710000000  0.4555800000000  0.3642340000000 1.0
C      1  0.5675580000000  0.4414110000000  0.4961830000000 1.0
C      1  0.5675510000000  0.5585970000000  0.5038320000000 1.0
C      1  0.5994310000000  0.4627840000000  0.5196680000000 1.0
C      1  0.5994320000000  0.5372270000000  0.4803530000000 1.0
C      1  0.4834030000000  0.3789290000000  0.6098950000000 1.0
C      1  0.4834130000000  0.6210690000000  0.3901010000000 1.0
C      1  0.4667050000000  0.5740200000000  0.3138920000000 1.0
C      1  0.4666730000000  0.4259760000000  0.6861010000000 1.0
END
