TITL C-3623286-7563-1981 -2.5411355658984e-06 125000 -503.60810825858 0 0 83 (C1) n - 1
REM
REM in /home/nfs/bkarasulu/CARBON/AIRSS/Generating-Clusters/LCBOP/Higher-Symm/SD-CG/FIRE-CG
REM
REM
REM
REM
REM
REM ./C.cell (b20cbc046b6831c77cfcea5457e17084)
REM AIRSS Version 0.9.1 bugfix July 2018 build 013d7b7c2542+ Fri, 06 Jul 2018 19:26:36 +0100
REM compiler GCC version 9.2.1 20190827 (Red Hat 9.2.1-1)
REM options -cpp -mtune=generic -march=x86-64 -g -O0 -fpre-include=/usr/include/finclude/math-vector-fortran.h
REM seed 1508691319 -1411807992 -201331742 1195173603 101183499 1479681566 -1162513675 1520462491 -1865163828 1639063743 636930615 -1261635551 410180311 890670018 -350975384 488390085 799967637 1646430733 1830963058 17507261 -1075824357 1115808787 1080766276 1389003302 803400898 54489729 -1919251400 -1635026074 1067366261 410407393 -567445945 1715406518 1233894980
REM
CELL 1.54180   50.00000   50.00000   50.00000   90.00000   90.00000   90.00000
LATT -1
SFAC C  
C      1  0.5190530000000  0.4934730000000  0.5512500000000 1.0
C      1  0.4857880000000  0.4837730000000  0.5520480000000 1.0
C      1  0.4951620000000  0.5188930000000  0.5512550000000 1.0
C      1  0.5271060000000  0.4914030000000  0.4316420000000 1.0
C      1  0.4775720000000  0.4835790000000  0.4341100000000 1.0
C      1  0.4958050000000  0.5291050000000  0.4332970000000 1.0
C      1  0.5623630000000  0.4551360000000  0.5427520000000 1.0
C      1  0.4324690000000  0.4685190000000  0.5452250000000 1.0
C      1  0.5059420000000  0.5754830000000  0.5451120000000 1.0
C      1  0.5696830000000  0.4825950000000  0.5382640000000 1.0
C      1  0.4499700000000  0.4459200000000  0.5423490000000 1.0
C      1  0.4784250000000  0.5680930000000  0.5412970000000 1.0
C      1  0.5113000000000  0.4461410000000  0.4383780000000 1.0
C      1  0.4546220000000  0.5202570000000  0.4568860000000 1.0
C      1  0.5420790000000  0.5382610000000  0.4399830000000 1.0
C      1  0.5903320000000  0.5208300000000  0.4701030000000 1.0
C      1  0.4698640000000  0.4108560000000  0.4636130000000 1.0
C      1  0.4312120000000  0.5622780000000  0.4421500000000 1.0
C      1  0.5207990000000  0.5855400000000  0.5226890000000 1.0
C      1  0.5625260000000  0.4365220000000  0.5208750000000 1.0
C      1  0.4197940000000  0.4799990000000  0.5224290000000 1.0
C      1  0.4924590000000  0.4468120000000  0.5188110000000 1.0
C      1  0.4574150000000  0.5291200000000  0.5191120000000 1.0
C      1  0.5427310000000  0.5187970000000  0.5188020000000 1.0
C      1  0.4635540000000  0.5216710000000  0.5838230000000 1.0
C      1  0.5391900000000  0.5199960000000  0.5821890000000 1.0
C      1  0.4999470000000  0.4545720000000  0.5832590000000 1.0
C      1  0.5303300000000  0.5089360000000  0.4760890000000 1.0
C      1  0.4891450000000  0.4647340000000  0.4759910000000 1.0
C      1  0.4913470000000  0.5350240000000  0.4823910000000 1.0
C      1  0.4554420000000  0.5752280000000  0.4450070000000 1.0
C      1  0.5885270000000  0.4941240000000  0.4671700000000 1.0
C      1  0.4482260000000  0.4268960000000  0.4624460000000 1.0
C      1  0.5174010000000  0.5401310000000  0.5831080000000 1.0
C      1  0.5282610000000  0.4635970000000  0.5827330000000 1.0
C      1  0.4571370000000  0.4928200000000  0.5847040000000 1.0
C      1  0.5610830000000  0.5241060000000  0.5637590000000 1.0
C      1  0.4916210000000  0.4329080000000  0.5659670000000 1.0
C      1  0.4479430000000  0.5387120000000  0.5664940000000 1.0
C      1  0.5334780000000  0.5730470000000  0.5006430000000 1.0
C      1  0.5445890000000  0.4294830000000  0.4999770000000 1.0
C      1  0.4188720000000  0.4984280000000  0.5009580000000 1.0
C      1  0.4389560000000  0.5318850000000  0.4772500000000 1.0
C      1  0.5191820000000  0.5350590000000  0.4822020000000 1.0
C      1  0.5162470000000  0.4578690000000  0.4817910000000 1.0
C      1  0.5458410000000  0.4288320000000  0.4692250000000 1.0
C      1  0.4123670000000  0.4946390000000  0.4719110000000 1.0
C      1  0.5347840000000  0.5755560000000  0.4703090000000 1.0
C      1  0.4875550000000  0.4607560000000  0.4476600000000 1.0
C      1  0.4798710000000  0.5313090000000  0.4566840000000 1.0
C      1  0.5397870000000  0.5102760000000  0.4490160000000 1.0
C      1  0.4582590000000  0.5476310000000  0.5411160000000 1.0
C      1  0.5616380000000  0.5102240000000  0.5385240000000 1.0
C      1  0.4774620000000  0.4374630000000  0.5412870000000 1.0
C      1  0.5559720000000  0.5568070000000  0.4579740000000 1.0
C      1  0.5191460000000  0.4221910000000  0.4543440000000 1.0
C      1  0.4032690000000  0.5185230000000  0.4563290000000 1.0
C      1  0.5303370000000  0.4921780000000  0.5773840000000 1.0
C      1  0.4802180000000  0.4760990000000  0.5788580000000 1.0
C      1  0.4915290000000  0.5279750000000  0.5778670000000 1.0
C      1  0.5482000000000  0.4494310000000  0.5673380000000 1.0
C      1  0.4342640000000  0.4830420000000  0.5700990000000 1.0
C      1  0.5191440000000  0.5651880000000  0.5687480000000 1.0
C      1  0.4814920000000  0.5210050000000  0.5055150000000 1.0
C      1  0.5263630000000  0.4978100000000  0.5033010000000 1.0
C      1  0.4813250000000  0.4711830000000  0.5037440000000 1.0
C      1  0.4965470000000  0.4066060000000  0.4616650000000 1.0
C      1  0.4118630000000  0.5426070000000  0.4451710000000 1.0
C      1  0.5800630000000  0.5457800000000  0.4680010000000 1.0
C      1  0.5557660000000  0.4534690000000  0.4538110000000 1.0
C      1  0.4315540000000  0.4779420000000  0.4572820000000 1.0
C      1  0.5102970000000  0.5734530000000  0.4502500000000 1.0
C      1  0.4346920000000  0.5225860000000  0.5035380000000 1.0
C      1  0.5353030000000  0.5442940000000  0.5049870000000 1.0
C      1  0.5181570000000  0.4406850000000  0.5050510000000 1.0
C      1  0.5342860000000  0.4637370000000  0.4356730000000 1.0
C      1  0.4528050000000  0.4939160000000  0.4456180000000 1.0
C      1  0.5162580000000  0.5492240000000  0.4331190000000 1.0
C      1  0.4820970000000  0.5809520000000  0.4495020000000 1.0
C      1  0.5771330000000  0.4704690000000  0.4613050000000 1.0
C      1  0.4345290000000  0.4499430000000  0.4598200000000 1.0
C      1  0.4995690000000  0.5011690000000  0.4257920000000 1.0
C      1  0.4960510000000  0.4960910000000  0.5089360000000 1.0
END
