TITL C-3623288-6813-1102 -423.943607352011 125000 -1132.93077372151 0 0 188 (C1) n - 1
REM
REM in /home/nfs/bkarasulu/CARBON/AIRSS/Generating-Clusters/LCBOP/Higher-Symm/SD-CG/FIRE-CG
REM
REM
REM
REM
REM
REM ./C.cell (b20cbc046b6831c77cfcea5457e17084)
REM AIRSS Version 0.9.1 bugfix July 2018 build 013d7b7c2542+ Fri, 06 Jul 2018 19:26:36 +0100
REM compiler GCC version 9.2.1 20190827 (Red Hat 9.2.1-1)
REM options -cpp -mtune=generic -march=x86-64 -g -O0 -fpre-include=/usr/include/finclude/math-vector-fortran.h
REM seed -328172233 -1767018670 1536841185 1827919391 -1544025392 -103205335 1969619144 -2082733705 398167448 448589562 -312254117 646212623 1690766305 -1876807334 -765330126 -1918910196 -687525157 -79451907 -1980103149 1134816825 1323296551 84987667 -266141645 1905152423 74587684 2129319252 969794577 140955022 -591384423 -1121122096 -1968748500 1853819281 516282606
REM
CELL 1.54180   50.00000   50.00000   50.00000   90.00000   90.00000   90.00000
LATT -1
SFAC C  
C      1  0.5866310000000  0.5947030000000  0.4446270000000 1.0
C      1  0.6231580000000  0.4700260000000  0.4465950000000 1.0
C      1  0.4836910000000  0.3711040000000  0.4421510000000 1.0
C      1  0.3762110000000  0.4689540000000  0.4469200000000 1.0
C      1  0.4204490000000  0.6043480000000  0.4481850000000 1.0
C      1  0.4788640000000  0.3689770000000  0.4693570000000 1.0
C      1  0.3706610000000  0.4733890000000  0.4734540000000 1.0
C      1  0.4198060000000  0.6119690000000  0.4749880000000 1.0
C      1  0.5936770000000  0.5953950000000  0.4711890000000 1.0
C      1  0.6283250000000  0.4645770000000  0.4732830000000 1.0
C      1  0.4880930000000  0.3996170000000  0.5460620000000 1.0
C      1  0.3988670000000  0.4806450000000  0.5504690000000 1.0
C      1  0.4429600000000  0.5940390000000  0.5525130000000 1.0
C      1  0.5657910000000  0.5767080000000  0.5461170000000 1.0
C      1  0.5974790000000  0.4616630000000  0.5498130000000 1.0
C      1  0.4117050000000  0.5056140000000  0.5572870000000 1.0
C      1  0.4716820000000  0.5906400000000  0.5579720000000 1.0
C      1  0.5695410000000  0.5489840000000  0.5530870000000 1.0
C      1  0.5722800000000  0.4474140000000  0.5550070000000 1.0
C      1  0.4681850000000  0.4183730000000  0.5556900000000 1.0
C      1  0.4045620000000  0.4578630000000  0.5687150000000 1.0
C      1  0.4251680000000  0.5792700000000  0.5712800000000 1.0
C      1  0.5486580000000  0.5929620000000  0.5642490000000 1.0
C      1  0.6034060000000  0.4832580000000  0.5691310000000 1.0
C      1  0.5129670000000  0.3982390000000  0.5626060000000 1.0
C      1  0.4656480000000  0.5486520000000  0.6072480000000 1.0
C      1  0.5325290000000  0.5495240000000  0.6054650000000 1.0
C      1  0.5537220000000  0.4842050000000  0.6052610000000 1.0
C      1  0.5010470000000  0.4436250000000  0.6057360000000 1.0
C      1  0.4455160000000  0.4835850000000  0.6079340000000 1.0
C      1  0.4763850000000  0.4305270000000  0.4766950000000 1.0
C      1  0.4334240000000  0.5004080000000  0.4837650000000 1.0
C      1  0.4871910000000  0.5947930000000  0.4727200000000 1.0
C      1  0.5443130000000  0.5327210000000  0.4807270000000 1.0
C      1  0.5631020000000  0.4284390000000  0.4691100000000 1.0
C      1  0.4458350000000  0.5220690000000  0.4294700000000 1.0
C      1  0.5046520000000  0.5586680000000  0.4232490000000 1.0
C      1  0.5488350000000  0.5125710000000  0.4247510000000 1.0
C      1  0.5344850000000  0.4427110000000  0.4141280000000 1.0
C      1  0.4643960000000  0.4567740000000  0.4234570000000 1.0
C      1  0.5360500000000  0.5230050000000  0.5053200000000 1.0
C      1  0.5575440000000  0.4331360000000  0.4959540000000 1.0
C      1  0.4706620000000  0.4386940000000  0.5020110000000 1.0
C      1  0.4442890000000  0.5056230000000  0.5086740000000 1.0
C      1  0.4870350000000  0.5916960000000  0.5002790000000 1.0
C      1  0.5185210000000  0.5651720000000  0.5255860000000 1.0
C      1  0.5632980000000  0.4796580000000  0.5154290000000 1.0
C      1  0.5145350000000  0.4419900000000  0.5190690000000 1.0
C      1  0.4360840000000  0.4612050000000  0.5237570000000 1.0
C      1  0.4533640000000  0.5561250000000  0.5190110000000 1.0
C      1  0.4795380000000  0.4554170000000  0.3708700000000 1.0
C      1  0.4630920000000  0.5017910000000  0.3748410000000 1.0
C      1  0.4886780000000  0.5434350000000  0.3765180000000 1.0
C      1  0.5349460000000  0.5218480000000  0.3724560000000 1.0
C      1  0.5303710000000  0.4699800000000  0.3699060000000 1.0
C      1  0.4305170000000  0.4456710000000  0.5762350000000 1.0
C      1  0.4240010000000  0.5503250000000  0.5772160000000 1.0
C      1  0.5208280000000  0.5885850000000  0.5738510000000 1.0
C      1  0.5874450000000  0.5072660000000  0.5745220000000 1.0
C      1  0.5320380000000  0.4194420000000  0.5714160000000 1.0
C      1  0.5152720000000  0.4305090000000  0.3959500000000 1.0
C      1  0.4440600000000  0.4650210000000  0.4041020000000 1.0
C      1  0.4492800000000  0.5402950000000  0.4071200000000 1.0
C      1  0.5258870000000  0.5605460000000  0.4032420000000 1.0
C      1  0.5596510000000  0.4941010000000  0.4042650000000 1.0
C      1  0.5610540000000  0.6155860000000  0.5746330000000 1.0
C      1  0.6264650000000  0.4802280000000  0.5841100000000 1.0
C      1  0.5187330000000  0.3728180000000  0.5723970000000 1.0
C      1  0.3822780000000  0.4467200000000  0.5809550000000 1.0
C      1  0.4074520000000  0.5950700000000  0.5856530000000 1.0
C      1  0.4243740000000  0.6110930000000  0.5021340000000 1.0
C      1  0.5886180000000  0.5916610000000  0.4976530000000 1.0
C      1  0.6234070000000  0.4613720000000  0.5000720000000 1.0
C      1  0.4806550000000  0.3754460000000  0.4959190000000 1.0
C      1  0.3757950000000  0.4758570000000  0.5000400000000 1.0
C      1  0.5422180000000  0.4639860000000  0.5892900000000 1.0
C      1  0.4770030000000  0.4494370000000  0.5920170000000 1.0
C      1  0.4435140000000  0.5076480000000  0.5931970000000 1.0
C      1  0.4866160000000  0.5582900000000  0.5910770000000 1.0
C      1  0.5468750000000  0.5302140000000  0.5906580000000 1.0
C      1  0.5443450000000  0.3771490000000  0.4821450000000 1.0
C      1  0.4091660000000  0.4130040000000  0.4821360000000 1.0
C      1  0.4030860000000  0.5521740000000  0.4835970000000 1.0
C      1  0.5362490000000  0.6225070000000  0.4860210000000 1.0
C      1  0.5968030000000  0.5148440000000  0.4807690000000 1.0
C      1  0.5083740000000  0.4498120000000  0.3748120000000 1.0
C      1  0.4566680000000  0.4732010000000  0.3795320000000 1.0
C      1  0.4631200000000  0.5299950000000  0.3839330000000 1.0
C      1  0.5179220000000  0.5441090000000  0.3803750000000 1.0
C      1  0.5444400000000  0.4947850000000  0.3791160000000 1.0
C      1  0.5921280000000  0.5316530000000  0.5583340000000 1.0
C      1  0.5595990000000  0.4209480000000  0.5587310000000 1.0
C      1  0.4397470000000  0.4205960000000  0.5623160000000 1.0
C      1  0.4044650000000  0.5332420000000  0.5624910000000 1.0
C      1  0.4976550000000  0.6044490000000  0.5621220000000 1.0
C      1  0.5073730000000  0.5344410000000  0.4380680000000 1.0
C      1  0.5209660000000  0.5103040000000  0.4331580000000 1.0
C      1  0.5211220000000  0.4628740000000  0.4290590000000 1.0
C      1  0.4788510000000  0.4791920000000  0.4339960000000 1.0
C      1  0.4637550000000  0.5255920000000  0.4502830000000 1.0
C      1  0.6158200000000  0.5355650000000  0.5440430000000 1.0
C      1  0.5702270000000  0.3978930000000  0.5466920000000 1.0
C      1  0.4214060000000  0.4023390000000  0.5515430000000 1.0
C      1  0.3822490000000  0.5441300000000  0.5494860000000 1.0
C      1  0.5033680000000  0.6291420000000  0.5497520000000 1.0
C      1  0.4205910000000  0.4773940000000  0.4159130000000 1.0
C      1  0.4527430000000  0.5685130000000  0.4153000000000 1.0
C      1  0.5527890000000  0.5625940000000  0.4151310000000 1.0
C      1  0.5773960000000  0.4718330000000  0.4113990000000 1.0
C      1  0.4943470000000  0.4145360000000  0.4093290000000 1.0
C      1  0.4465220000000  0.5308740000000  0.5191100000000 1.0
C      1  0.5102360000000  0.5879360000000  0.5149210000000 1.0
C      1  0.5473140000000  0.5004290000000  0.5161760000000 1.0
C      1  0.5335640000000  0.4268340000000  0.5084560000000 1.0
C      1  0.4447800000000  0.4384750000000  0.5124490000000 1.0
C      1  0.4281290000000  0.5566470000000  0.4758870000000 1.0
C      1  0.5386280000000  0.5989960000000  0.4735860000000 1.0
C      1  0.5811370000000  0.4948050000000  0.4728720000000 1.0
C      1  0.5296660000000  0.3927830000000  0.4663770000000 1.0
C      1  0.4183930000000  0.4347270000000  0.4698700000000 1.0
C      1  0.5201160000000  0.5392560000000  0.5209250000000 1.0
C      1  0.5698210000000  0.4555340000000  0.5068360000000 1.0
C      1  0.4899220000000  0.4540900000000  0.5162520000000 1.0
C      1  0.4531520000000  0.4836450000000  0.5232330000000 1.0
C      1  0.4650600000000  0.5780210000000  0.5103100000000 1.0
C      1  0.4191310000000  0.4596560000000  0.4578150000000 1.0
C      1  0.4466060000000  0.5702300000000  0.4602670000000 1.0
C      1  0.5471450000000  0.5773970000000  0.4582550000000 1.0
C      1  0.5794990000000  0.4726510000000  0.4563050000000 1.0
C      1  0.5105450000000  0.4059830000000  0.4511880000000 1.0
C      1  0.5622550000000  0.5843200000000  0.4332940000000 1.0
C      1  0.5979900000000  0.4751560000000  0.4331710000000 1.0
C      1  0.4993660000000  0.3910400000000  0.4278640000000 1.0
C      1  0.4013650000000  0.4632280000000  0.4339850000000 1.0
C      1  0.4342170000000  0.5818430000000  0.4358370000000 1.0
C      1  0.3847850000000  0.4776580000000  0.5255840000000 1.0
C      1  0.4318460000000  0.6059920000000  0.5281510000000 1.0
C      1  0.5776740000000  0.5866420000000  0.5219550000000 1.0
C      1  0.6135380000000  0.4597020000000  0.5255920000000 1.0
C      1  0.4847390000000  0.3854500000000  0.5210260000000 1.0
C      1  0.6242160000000  0.5348840000000  0.5187560000000 1.0
C      1  0.5691830000000  0.3798770000000  0.5271010000000 1.0
C      1  0.4087760000000  0.3939720000000  0.5296260000000 1.0
C      1  0.3736370000000  0.5503960000000  0.5250760000000 1.0
C      1  0.5154700000000  0.6412190000000  0.5292030000000 1.0
C      1  0.5650250000000  0.5081280000000  0.5944350000000 1.0
C      1  0.5261130000000  0.4403200000000  0.5922350000000 1.0
C      1  0.4496770000000  0.4578450000000  0.5960270000000 1.0
C      1  0.4421580000000  0.5362820000000  0.5967380000000 1.0
C      1  0.5136640000000  0.5675590000000  0.5938040000000 1.0
C      1  0.5668770000000  0.4476090000000  0.4496000000000 1.0
C      1  0.4902530000000  0.4263930000000  0.4535970000000 1.0
C      1  0.4292500000000  0.4866810000000  0.4602840000000 1.0
C      1  0.4739840000000  0.5777620000000  0.4554470000000 1.0
C      1  0.5510960000000  0.5487380000000  0.4593660000000 1.0
C      1  0.4046250000000  0.3979390000000  0.5036080000000 1.0
C      1  0.3821730000000  0.5521470000000  0.4999390000000 1.0
C      1  0.5281340000000  0.6384560000000  0.5058380000000 1.0
C      1  0.6152650000000  0.5278270000000  0.4947150000000 1.0
C      1  0.5590320000000  0.3720320000000  0.5037570000000 1.0
C      1  0.5620010000000  0.4469380000000  0.4205720000000 1.0
C      1  0.4779400000000  0.4321970000000  0.4274760000000 1.0
C      1  0.4291520000000  0.4997430000000  0.4335560000000 1.0
C      1  0.4804610000000  0.5727130000000  0.4275300000000 1.0
C      1  0.5581420000000  0.5383790000000  0.4324330000000 1.0
C      1  0.4380560000000  0.5015950000000  0.5662320000000 1.0
C      1  0.4771790000000  0.5635310000000  0.5650250000000 1.0
C      1  0.5462560000000  0.5370210000000  0.5632370000000 1.0
C      1  0.5519500000000  0.4657680000000  0.5628960000000 1.0
C      1  0.4804120000000  0.4419140000000  0.5650810000000 1.0
C      1  0.5152310000000  0.5033390000000  0.2640880000000 1.0
C      1  0.4997620000000  0.5004020000000  0.7046020000000 1.0
C      1  0.5202270000000  0.5042920000000  0.2385190000000 1.0
C      1  0.5028180000000  0.4935230000000  0.3942780000000 1.0
C      1  0.4999790000000  0.5010330000000  0.6781110000000 1.0
C      1  0.5048340000000  0.5013040000000  0.3160220000000 1.0
C      1  0.4992770000000  0.4991400000000  0.7571610000000 1.0
C      1  0.4995750000000  0.5008870000000  0.5720960000000 1.0
C      1  0.5055370000000  0.4871500000000  0.4236260000000 1.0
C      1  0.4999450000000  0.5025660000000  0.5985980000000 1.0
C      1  0.4946250000000  0.4926430000000  0.5473780000000 1.0
C      1  0.5001060000000  0.5021690000000  0.6251370000000 1.0
C      1  0.4998390000000  0.5001080000000  0.3420090000000 1.0
C      1  0.4995210000000  0.4997660000000  0.7311000000000 1.0
C      1  0.5001390000000  0.5016460000000  0.6516230000000 1.0
C      1  0.4807160000000  0.4782750000000  0.5280520000000 1.0
C      1  0.4916620000000  0.4988480000000  0.3685620000000 1.0
C      1  0.5100880000000  0.5023520000000  0.2900720000000 1.0
END
