TITL C-3623288-6813-591 0.000121314626240587 125000 -542.627191746996 0 0 90 (C1) n - 1
REM
REM in /home/nfs/bkarasulu/CARBON/AIRSS/Generating-Clusters/LCBOP/Higher-Symm/SD-CG/FIRE-CG
REM
REM
REM
REM
REM
REM ./C.cell (b20cbc046b6831c77cfcea5457e17084)
REM AIRSS Version 0.9.1 bugfix July 2018 build 013d7b7c2542+ Fri, 06 Jul 2018 19:26:36 +0100
REM compiler GCC version 9.2.1 20190827 (Red Hat 9.2.1-1)
REM options -cpp -mtune=generic -march=x86-64 -g -O0 -fpre-include=/usr/include/finclude/math-vector-fortran.h
REM seed -206451332 -1703378528 -2115778778 583325393 -1315513272 685864704 642473568 1487231473 874131745 -734595059 -1867925009 2067234621 1597769963 -1310157320 -1175868155 -1536714029 2019414795 1475219405 1051333511 575785519 -647820977 1402070733 1448753252 1581859372 -345809211 -2120632282 -1016861944 -320159519 -1101414433 -647642502 -810926201 212379368 412279184
REM
CELL 1.54180   50.00000   50.00000   50.00000   90.00000   90.00000   90.00000
LATT -1
SFAC C  
C      1  0.5936110000000  0.5073680000000  0.5832820000000 1.0
C      1  0.5777110000000  0.4983120000000  0.5604520000000 1.0
C      1  0.5163100000000  0.4695280000000  0.5174960000000 1.0
C      1  0.4567320000000  0.5455220000000  0.4682270000000 1.0
C      1  0.5635340000000  0.5681140000000  0.4728770000000 1.0
C      1  0.5666440000000  0.5400900000000  0.5397200000000 1.0
C      1  0.4716910000000  0.4121870000000  0.5096840000000 1.0
C      1  0.4410950000000  0.5006370000000  0.5351220000000 1.0
C      1  0.5011300000000  0.5431780000000  0.5213190000000 1.0
C      1  0.5338170000000  0.4140940000000  0.4740720000000 1.0
C      1  0.4937110000000  0.5768530000000  0.3773850000000 1.0
C      1  0.4874950000000  0.5086190000000  0.3691020000000 1.0
C      1  0.5275470000000  0.4775510000000  0.4510320000000 1.0
C      1  0.4867560000000  0.5317260000000  0.3558280000000 1.0
C      1  0.4784500000000  0.5597780000000  0.4808320000000 1.0
C      1  0.5041540000000  0.3765220000000  0.5138810000000 1.0
C      1  0.6104240000000  0.4891080000000  0.5113390000000 1.0
C      1  0.5003540000000  0.6001740000000  0.4663280000000 1.0
C      1  0.5324210000000  0.3746890000000  0.5552190000000 1.0
C      1  0.4969590000000  0.4017100000000  0.5032060000000 1.0
C      1  0.4960610000000  0.5645860000000  0.5376070000000 1.0
C      1  0.4899430000000  0.4967730000000  0.3928080000000 1.0
C      1  0.5075410000000  0.5173930000000  0.5322260000000 1.0
C      1  0.4632640000000  0.5220190000000  0.4532920000000 1.0
C      1  0.3976800000000  0.5343000000000  0.5015210000000 1.0
C      1  0.5794350000000  0.5185140000000  0.4878330000000 1.0
C      1  0.4076330000000  0.5394610000000  0.4757350000000 1.0
C      1  0.4296040000000  0.5843220000000  0.4760050000000 1.0
C      1  0.5426400000000  0.4899730000000  0.4716120000000 1.0
C      1  0.5698070000000  0.5134490000000  0.4411980000000 1.0
C      1  0.4551930000000  0.4973700000000  0.4652140000000 1.0
C      1  0.4130890000000  0.4995620000000  0.5373790000000 1.0
C      1  0.5182130000000  0.5124480000000  0.6338820000000 1.0
C      1  0.4105410000000  0.4979220000000  0.4472170000000 1.0
C      1  0.4577440000000  0.4290210000000  0.5275010000000 1.0
C      1  0.5773200000000  0.5142320000000  0.5370210000000 1.0
C      1  0.5686900000000  0.5016030000000  0.4669500000000 1.0
C      1  0.4597570000000  0.4955370000000  0.5168440000000 1.0
C      1  0.4889160000000  0.5581260000000  0.3590180000000 1.0
C      1  0.5169480000000  0.4201220000000  0.4947010000000 1.0
C      1  0.5254840000000  0.5352870000000  0.4501650000000 1.0
C      1  0.4838480000000  0.5228070000000  0.4333790000000 1.0
C      1  0.5890740000000  0.5071050000000  0.5120860000000 1.0
C      1  0.3985930000000  0.5191870000000  0.5235260000000 1.0
C      1  0.5141820000000  0.4509800000000  0.5700720000000 1.0
C      1  0.4908900000000  0.4514420000000  0.4337100000000 1.0
C      1  0.4782470000000  0.4286670000000  0.4329210000000 1.0
C      1  0.5289260000000  0.3948850000000  0.5741580000000 1.0
C      1  0.5491790000000  0.5299920000000  0.4355100000000 1.0
C      1  0.5512810000000  0.4991180000000  0.6002090000000 1.0
C      1  0.4319400000000  0.4827130000000  0.4573190000000 1.0
C      1  0.5036860000000  0.5134880000000  0.5596940000000 1.0
C      1  0.4778440000000  0.5884980000000  0.4782920000000 1.0
C      1  0.5034430000000  0.5438600000000  0.4345300000000 1.0
C      1  0.5268980000000  0.5059460000000  0.4891480000000 1.0
C      1  0.5778620000000  0.5086390000000  0.6060420000000 1.0
C      1  0.5257310000000  0.5085400000000  0.6074010000000 1.0
C      1  0.4924840000000  0.4982630000000  0.4207220000000 1.0
C      1  0.5366390000000  0.4652050000000  0.5676780000000 1.0
C      1  0.5611300000000  0.5655090000000  0.5447640000000 1.0
C      1  0.4006610000000  0.5216550000000  0.4550280000000 1.0
C      1  0.5187730000000  0.4446250000000  0.5083720000000 1.0
C      1  0.5073820000000  0.3697900000000  0.5409410000000 1.0
C      1  0.4020190000000  0.4749670000000  0.5464930000000 1.0
C      1  0.6299450000000  0.4718490000000  0.5109030000000 1.0
C      1  0.5188120000000  0.5306750000000  0.4777850000000 1.0
C      1  0.4711590000000  0.4354910000000  0.5515780000000 1.0
C      1  0.5757920000000  0.5466320000000  0.4837260000000 1.0
C      1  0.5114920000000  0.5160660000000  0.6588000000000 1.0
C      1  0.4997940000000  0.5814550000000  0.4028910000000 1.0
C      1  0.5188580000000  0.5874640000000  0.4490700000000 1.0
C      1  0.4328760000000  0.4400300000000  0.5191600000000 1.0
C      1  0.5541590000000  0.4860990000000  0.5736030000000 1.0
C      1  0.4518520000000  0.5994890000000  0.4794300000000 1.0
C      1  0.5572060000000  0.5909800000000  0.5486810000000 1.0
C      1  0.4302050000000  0.5562260000000  0.4721730000000 1.0
C      1  0.4651000000000  0.4922340000000  0.4909890000000 1.0
C      1  0.5175000000000  0.4973340000000  0.5143630000000 1.0
C      1  0.5000420000000  0.5459480000000  0.4929610000000 1.0
C      1  0.4277660000000  0.4575730000000  0.4691060000000 1.0
C      1  0.4880670000000  0.3826470000000  0.5591870000000 1.0
C      1  0.3806320000000  0.4740750000000  0.5633980000000 1.0
C      1  0.4147150000000  0.4516150000000  0.5371560000000 1.0
C      1  0.4943520000000  0.4312810000000  0.5673300000000 1.0
C      1  0.5040620000000  0.4761630000000  0.4351960000000 1.0
C      1  0.5082210000000  0.5135820000000  0.5859440000000 1.0
C      1  0.5064030000000  0.5715880000000  0.4280750000000 1.0
C      1  0.5450320000000  0.5821260000000  0.4590600000000 1.0
C      1  0.5012520000000  0.4045410000000  0.5737380000000 1.0
C      1  0.4279450000000  0.4431790000000  0.4915720000000 1.0
END
