TITL C-3623284-6838-193 29522.4144879256 125000 -1154.73198042519 0 0 185 (C1) n - 1
REM
REM in /home/nfs/bkarasulu/CARBON/AIRSS/Generating-Clusters/LCBOP/Higher-Symm/SD-CG/FIRE-CG
REM
REM
REM
REM
REM
REM ./C.cell (b20cbc046b6831c77cfcea5457e17084)
REM AIRSS Version 0.9.1 bugfix July 2018 build 013d7b7c2542+ Fri, 06 Jul 2018 19:26:36 +0100
REM compiler GCC version 9.2.1 20190827 (Red Hat 9.2.1-1)
REM options -cpp -mtune=generic -march=x86-64 -g -O0 -fpre-include=/usr/include/finclude/math-vector-fortran.h
REM seed 930414757 -1397018655 1740151436 -430775581 871072094 881707253 -1413137840 -1345395559 220603668 1078779250 2137664979 -912215962 178870753 192868369 -1523100276 -480359979 189075973 1949377041 -709942578 1877211908 741496455 136508114 -2142073499 -1023900315 -1572588471 -1500173178 2133963774 -960427024 -1339054947 -1802491768 -2072506349 -1907357667 -841260225
REM
CELL 1.54180   50.00000   50.00000   50.00000   90.00000   90.00000   90.00000
LATT -1
SFAC C  
C      1  0.5295660000000  0.4695580000000  0.5239280000000 1.0
C      1  0.4718410000000  0.4618260000000  0.4805020000000 1.0
C      1  0.5284910000000  0.4677400000000  0.4768210000000 1.0
C      1  0.4669940000000  0.4756400000000  0.5286050000000 1.0
C      1  0.4199360000000  0.5643270000000  0.5567210000000 1.0
C      1  0.5811810000000  0.6110190000000  0.4542080000000 1.0
C      1  0.4280690000000  0.6099890000000  0.4746420000000 1.0
C      1  0.5792800000000  0.6130840000000  0.5475700000000 1.0
C      1  0.5660600000000  0.4948170000000  0.5295600000000 1.0
C      1  0.4351940000000  0.4899940000000  0.4692430000000 1.0
C      1  0.5634290000000  0.4926840000000  0.4684660000000 1.0
C      1  0.4309400000000  0.5003170000000  0.5250660000000 1.0
C      1  0.4866380000000  0.4910680000000  0.5163990000000 1.0
C      1  0.5123560000000  0.4902480000000  0.4809160000000 1.0
C      1  0.4862270000000  0.4878450000000  0.4877870000000 1.0
C      1  0.5134780000000  0.4920750000000  0.5212010000000 1.0
C      1  0.3819850000000  0.5682140000000  0.4702520000000 1.0
C      1  0.6198990000000  0.5711160000000  0.5124910000000 1.0
C      1  0.3843350000000  0.5738050000000  0.4970430000000 1.0
C      1  0.6188230000000  0.5692560000000  0.4850740000000 1.0
C      1  0.4840850000000  0.4650070000000  0.3742640000000 1.0
C      1  0.5152920000000  0.4651550000000  0.6253860000000 1.0
C      1  0.4868690000000  0.4656210000000  0.6233840000000 1.0
C      1  0.5124340000000  0.4655210000000  0.3742060000000 1.0
C      1  0.5603240000000  0.4844810000000  0.5564110000000 1.0
C      1  0.4384320000000  0.4825210000000  0.4422540000000 1.0
C      1  0.5595620000000  0.4849970000000  0.4414750000000 1.0
C      1  0.4301210000000  0.5033110000000  0.5537460000000 1.0
C      1  0.4500310000000  0.4217520000000  0.5621140000000 1.0
C      1  0.5514010000000  0.4311720000000  0.4411400000000 1.0
C      1  0.4471090000000  0.4296620000000  0.4422570000000 1.0
C      1  0.5544280000000  0.4305070000000  0.5585470000000 1.0
C      1  0.4054420000000  0.5147270000000  0.5624450000000 1.0
C      1  0.6062030000000  0.5036910000000  0.4343920000000 1.0
C      1  0.3885110000000  0.4946430000000  0.4257990000000 1.0
C      1  0.6081980000000  0.4954290000000  0.5783620000000 1.0
C      1  0.4402640000000  0.5782870000000  0.5408240000000 1.0
C      1  0.5620720000000  0.5950030000000  0.4654090000000 1.0
C      1  0.4499500000000  0.5941430000000  0.4709600000000 1.0
C      1  0.5617410000000  0.5938300000000  0.5393510000000 1.0
C      1  0.5787660000000  0.5391680000000  0.4126950000000 1.0
C      1  0.4220400000000  0.5434090000000  0.5993240000000 1.0
C      1  0.5795290000000  0.5339850000000  0.6008720000000 1.0
C      1  0.4148150000000  0.5357060000000  0.4039280000000 1.0
C      1  0.5150740000000  0.5811720000000  0.5357620000000 1.0
C      1  0.4944350000000  0.6006690000000  0.4582180000000 1.0
C      1  0.5147160000000  0.5821470000000  0.4642360000000 1.0
C      1  0.4878920000000  0.5865530000000  0.5367350000000 1.0
C      1  0.4625310000000  0.5881200000000  0.4237200000000 1.0
C      1  0.5348900000000  0.5854630000000  0.5793690000000 1.0
C      1  0.4680550000000  0.5850530000000  0.5800970000000 1.0
C      1  0.5368440000000  0.5837770000000  0.4231800000000 1.0
C      1  0.5679820000000  0.5761790000000  0.5179100000000 1.0
C      1  0.4578290000000  0.5730210000000  0.4891230000000 1.0
C      1  0.5647600000000  0.5856990000000  0.4917240000000 1.0
C      1  0.4405160000000  0.5705030000000  0.5128680000000 1.0
C      1  0.5154360000000  0.5535300000000  0.5255630000000 1.0
C      1  0.4773230000000  0.5524260000000  0.4769750000000 1.0
C      1  0.5073450000000  0.5548620000000  0.4715400000000 1.0
C      1  0.4882210000000  0.5486120000000  0.5227990000000 1.0
C      1  0.3939660000000  0.5511960000000  0.5121250000000 1.0
C      1  0.6096370000000  0.5439380000000  0.4756090000000 1.0
C      1  0.3884460000000  0.5409790000000  0.4642950000000 1.0
C      1  0.6072450000000  0.5485100000000  0.5253110000000 1.0
C      1  0.4879730000000  0.4233720000000  0.5950730000000 1.0
C      1  0.5133880000000  0.4272060000000  0.4066430000000 1.0
C      1  0.4844490000000  0.4265700000000  0.4067540000000 1.0
C      1  0.5171450000000  0.4255440000000  0.5942050000000 1.0
C      1  0.4702090000000  0.4455960000000  0.3909530000000 1.0
C      1  0.5304740000000  0.4460010000000  0.6093170000000 1.0
C      1  0.4734370000000  0.4449760000000  0.6084110000000 1.0
C      1  0.5268650000000  0.4467680000000  0.3909840000000 1.0
C      1  0.4889240000000  0.3971130000000  0.5503700000000 1.0
C      1  0.5140210000000  0.4007390000000  0.4501850000000 1.0
C      1  0.4853930000000  0.4004270000000  0.4505040000000 1.0
C      1  0.5172750000000  0.3996750000000  0.5499860000000 1.0
C      1  0.3664830000000  0.4979710000000  0.4682890000000 1.0
C      1  0.6267100000000  0.5036430000000  0.5354870000000 1.0
C      1  0.3705150000000  0.5103570000000  0.5293210000000 1.0
C      1  0.6303830000000  0.4993940000000  0.4749850000000 1.0
C      1  0.4867090000000  0.5409130000000  0.5791030000000 1.0
C      1  0.5104750000000  0.5423360000000  0.4181370000000 1.0
C      1  0.4808440000000  0.5433530000000  0.4188570000000 1.0
C      1  0.5155970000000  0.5416000000000  0.5790870000000 1.0
C      1  0.5223710000000  0.5193160000000  0.4355640000000 1.0
C      1  0.4711510000000  0.5247440000000  0.5604110000000 1.0
C      1  0.5302060000000  0.5245570000000  0.5609860000000 1.0
C      1  0.4659430000000  0.5241380000000  0.4354730000000 1.0
C      1  0.5014710000000  0.4977400000000  0.4345870000000 1.0
C      1  0.4993590000000  0.4606750000000  0.5583480000000 1.0
C      1  0.5110250000000  0.4824590000000  0.5717300000000 1.0
C      1  0.4899530000000  0.4738530000000  0.4358840000000 1.0
C      1  0.4839770000000  0.5131870000000  0.3656970000000 1.0
C      1  0.5135010000000  0.5135310000000  0.6331290000000 1.0
C      1  0.4865740000000  0.5137920000000  0.6295880000000 1.0
C      1  0.5111140000000  0.5135790000000  0.3654050000000 1.0
C      1  0.4389510000000  0.5236170000000  0.5094710000000 1.0
C      1  0.5586400000000  0.5241220000000  0.4792860000000 1.0
C      1  0.4388380000000  0.5190370000000  0.4776420000000 1.0
C      1  0.5600130000000  0.5258210000000  0.5155010000000 1.0
C      1  0.4561260000000  0.4887820000000  0.5948640000000 1.0
C      1  0.5443920000000  0.4906420000000  0.3974540000000 1.0
C      1  0.4521720000000  0.4890390000000  0.3983260000000 1.0
C      1  0.5464030000000  0.4896370000000  0.6017160000000 1.0
C      1  0.4224390000000  0.5481970000000  0.5120180000000 1.0
C      1  0.5856690000000  0.5375520000000  0.4621820000000 1.0
C      1  0.4157950000000  0.5339760000000  0.4633890000000 1.0
C      1  0.5786460000000  0.5495750000000  0.5225760000000 1.0
C      1  0.5287000000000  0.4915830000000  0.6243070000000 1.0
C      1  0.4702240000000  0.4910690000000  0.3762420000000 1.0
C      1  0.5257160000000  0.4919170000000  0.3757870000000 1.0
C      1  0.4736010000000  0.4916430000000  0.6180270000000 1.0
C      1  0.5964630000000  0.5148220000000  0.5927630000000 1.0
C      1  0.3991470000000  0.5150700000000  0.4116320000000 1.0
C      1  0.5902740000000  0.5275200000000  0.4355170000000 1.0
C      1  0.4107840000000  0.5418460000000  0.5730420000000 1.0
C      1  0.5611980000000  0.4565980000000  0.5691090000000 1.0
C      1  0.4397510000000  0.4551140000000  0.4309310000000 1.0
C      1  0.5577550000000  0.4571830000000  0.4304180000000 1.0
C      1  0.4519090000000  0.4495140000000  0.5665010000000 1.0
C      1  0.3769980000000  0.5276860000000  0.5083750000000 1.0
C      1  0.6223120000000  0.5217070000000  0.4895670000000 1.0
C      1  0.3732620000000  0.5221100000000  0.4804360000000 1.0
C      1  0.6201420000000  0.5239180000000  0.5178970000000 1.0
C      1  0.5570670000000  0.4179860000000  0.4675040000000 1.0
C      1  0.4442480000000  0.4129600000000  0.5344610000000 1.0
C      1  0.5588880000000  0.4180810000000  0.5317830000000 1.0
C      1  0.4424070000000  0.4167580000000  0.4691780000000 1.0
C      1  0.5337220000000  0.5600990000000  0.5917500000000 1.0
C      1  0.4611100000000  0.5631090000000  0.4106760000000 1.0
C      1  0.5322170000000  0.5596890000000  0.4091750000000 1.0
C      1  0.4701140000000  0.5599880000000  0.5932110000000 1.0
C      1  0.3933390000000  0.4685750000000  0.5429290000000 1.0
C      1  0.6116690000000  0.4589400000000  0.4572970000000 1.0
C      1  0.3879940000000  0.4560650000000  0.4590710000000 1.0
C      1  0.6117400000000  0.4588210000000  0.5434180000000 1.0
C      1  0.4528770000000  0.5051460000000  0.5709150000000 1.0
C      1  0.5459260000000  0.5035060000000  0.4234800000000 1.0
C      1  0.4509420000000  0.5021440000000  0.4241310000000 1.0
C      1  0.5374960000000  0.4981730000000  0.5727910000000 1.0
C      1  0.6169730000000  0.4846710000000  0.5537010000000 1.0
C      1  0.3797760000000  0.4814410000000  0.4495640000000 1.0
C      1  0.6180720000000  0.4860520000000  0.4533710000000 1.0
C      1  0.3860200000000  0.4968460000000  0.5487700000000 1.0
C      1  0.4442080000000  0.4707480000000  0.4875950000000 1.0
C      1  0.5555440000000  0.4741950000000  0.5132570000000 1.0
C      1  0.4421290000000  0.4766340000000  0.5151850000000 1.0
C      1  0.5548290000000  0.4728700000000  0.4858910000000 1.0
C      1  0.5565150000000  0.5479350000000  0.4003430000000 1.0
C      1  0.4469310000000  0.5510200000000  0.6069630000000 1.0
C      1  0.5575330000000  0.5492690000000  0.6027840000000 1.0
C      1  0.4358260000000  0.5526300000000  0.4021400000000 1.0
C      1  0.5307510000000  0.4162380000000  0.5707480000000 1.0
C      1  0.4711980000000  0.4165390000000  0.4300380000000 1.0
C      1  0.5273770000000  0.4173780000000  0.4294630000000 1.0
C      1  0.4746020000000  0.4092350000000  0.5733090000000 1.0
C      1  0.5167660000000  0.4500310000000  0.5388160000000 1.0
C      1  0.4882410000000  0.4547620000000  0.4562410000000 1.0
C      1  0.5140830000000  0.4469710000000  0.4654150000000 1.0
C      1  0.4722710000000  0.4612420000000  0.5510900000000 1.0
C      1  0.4651600000000  0.3982240000000  0.4714870000000 1.0
C      1  0.5368210000000  0.3993900000000  0.5284510000000 1.0
C      1  0.4683500000000  0.3965890000000  0.5291300000000 1.0
C      1  0.5346430000000  0.3993580000000  0.4709120000000 1.0
C      1  0.4056320000000  0.4463370000000  0.5318520000000 1.0
C      1  0.6001160000000  0.4390260000000  0.4709890000000 1.0
C      1  0.3998870000000  0.4384600000000  0.4755680000000 1.0
C      1  0.6008310000000  0.4407170000000  0.5268030000000 1.0
C      1  0.4481120000000  0.4597130000000  0.4034480000000 1.0
C      1  0.5529370000000  0.4605800000000  0.5968520000000 1.0
C      1  0.4529290000000  0.4593260000000  0.5926920000000 1.0
C      1  0.5486800000000  0.4614670000000  0.4031140000000 1.0
C      1  0.4681410000000  0.5327240000000  0.5324150000000 1.0
C      1  0.5279970000000  0.5337010000000  0.4646320000000 1.0
C      1  0.4633920000000  0.5307210000000  0.4636400000000 1.0
C      1  0.5340880000000  0.5338940000000  0.5335420000000 1.0
C      1  0.4237450000000  0.4266890000000  0.5181430000000 1.0
C      1  0.5787200000000  0.4259240000000  0.4846230000000 1.0
C      1  0.4221080000000  0.4252750000000  0.4881690000000 1.0
C      1  0.5794950000000  0.4265400000000  0.5139350000000 1.0
C      1  0.4679680000000  0.5981340000000  0.4494910000000 1.0
C      1  0.5364060000000  0.5904820000000  0.5515830000000 1.0
C      1  0.4647260000000  0.5877310000000  0.5520850000000 1.0
C      1  0.5389990000000  0.5876640000000  0.4509530000000 1.0
C      1  0.4791500000000  0.4386970000000  0.4993030000000 1.0
END
