TITL C-3623288-6813-802 1192.84314246104 125000 -1011.52280028935 0 0 165 (C1) n - 1
REM
REM in /home/nfs/bkarasulu/CARBON/AIRSS/Generating-Clusters/LCBOP/Higher-Symm/SD-CG/FIRE-CG
REM
REM
REM
REM
REM
REM ./C.cell (b20cbc046b6831c77cfcea5457e17084)
REM AIRSS Version 0.9.1 bugfix July 2018 build 013d7b7c2542+ Fri, 06 Jul 2018 19:26:36 +0100
REM compiler GCC version 9.2.1 20190827 (Red Hat 9.2.1-1)
REM options -cpp -mtune=generic -march=x86-64 -g -O0 -fpre-include=/usr/include/finclude/math-vector-fortran.h
REM seed -1183713589 309635963 -152456832 -1032288215 1496702463 -1283410037 -1058820976 -1308278819 -364253166 -1353131942 227393846 912317738 -1913631611 229082075 -901214361 796493718 1835167569 -873909269 286765872 -937501581 -720588190 160954176 1287629318 1433501180 -1491380951 -1408909101 189624134 -1171573491 -833580009 898860261 -1605151179 -360202597 1600702002
REM
CELL 1.54180   50.00000   50.00000   50.00000   90.00000   90.00000   90.00000
LATT -1
SFAC C  
C      1  0.5368270000000  0.6129480000000  0.4736710000000 1.0
C      1  0.4742160000000  0.3826450000000  0.4898830000000 1.0
C      1  0.5453230000000  0.6126220000000  0.5433740000000 1.0
C      1  0.4855710000000  0.3864130000000  0.5560840000000 1.0
C      1  0.4781970000000  0.6167370000000  0.4787010000000 1.0
C      1  0.5326510000000  0.3875950000000  0.4787720000000 1.0
C      1  0.4851530000000  0.6166220000000  0.5463850000000 1.0
C      1  0.5440470000000  0.3914930000000  0.5479980000000 1.0
C      1  0.5770820000000  0.4230340000000  0.5305160000000 1.0
C      1  0.4396020000000  0.5984270000000  0.5427240000000 1.0
C      1  0.5701600000000  0.4190950000000  0.4812840000000 1.0
C      1  0.4374090000000  0.5941960000000  0.4921460000000 1.0
C      1  0.4396270000000  0.4032430000000  0.5546510000000 1.0
C      1  0.5786370000000  0.5793790000000  0.5291510000000 1.0
C      1  0.4308550000000  0.3999140000000  0.5051070000000 1.0
C      1  0.5707790000000  0.5789580000000  0.4804440000000 1.0
C      1  0.5574870000000  0.6037770000000  0.4915560000000 1.0
C      1  0.4564140000000  0.3852870000000  0.5119430000000 1.0
C      1  0.5622040000000  0.6040670000000  0.5216470000000 1.0
C      1  0.4614270000000  0.3870940000000  0.5413310000000 1.0
C      1  0.4599520000000  0.6126320000000  0.5000050000000 1.0
C      1  0.5550380000000  0.3963820000000  0.4948920000000 1.0
C      1  0.4621380000000  0.6140910000000  0.5298340000000 1.0
C      1  0.5597340000000  0.3985720000000  0.5249580000000 1.0
C      1  0.5343420000000  0.5302990000000  0.5201220000000 1.0
C      1  0.4450480000000  0.4671300000000  0.5346350000000 1.0
C      1  0.5310740000000  0.5301040000000  0.4923920000000 1.0
C      1  0.4428180000000  0.4658950000000  0.5061390000000 1.0
C      1  0.4493360000000  0.5344880000000  0.5290110000000 1.0
C      1  0.5363750000000  0.4734240000000  0.5224020000000 1.0
C      1  0.4517220000000  0.5336240000000  0.5010310000000 1.0
C      1  0.5339000000000  0.4718020000000  0.4942530000000 1.0
C      1  0.4523260000000  0.5120780000000  0.4386640000000 1.0
C      1  0.5163120000000  0.4853620000000  0.4380360000000 1.0
C      1  0.4697440000000  0.5174100000000  0.5906780000000 1.0
C      1  0.5272220000000  0.4877100000000  0.5780540000000 1.0
C      1  0.5160210000000  0.5153100000000  0.4371660000000 1.0
C      1  0.4503400000000  0.4755830000000  0.4431800000000 1.0
C      1  0.5270660000000  0.5172430000000  0.5775180000000 1.0
C      1  0.4701500000000  0.4871910000000  0.5917180000000 1.0
C      1  0.5189520000000  0.6031700000000  0.4531190000000 1.0
C      1  0.4835330000000  0.3948520000000  0.4657680000000 1.0
C      1  0.5299360000000  0.6013570000000  0.5649450000000 1.0
C      1  0.5015890000000  0.4012310000000  0.5742200000000 1.0
C      1  0.4896120000000  0.6039670000000  0.4559320000000 1.0
C      1  0.5125780000000  0.3971500000000  0.4600960000000 1.0
C      1  0.5005330000000  0.6038420000000  0.5666920000000 1.0
C      1  0.5306770000000  0.4035070000000  0.5704780000000 1.0
C      1  0.4488800000000  0.5763620000000  0.5611710000000 1.0
C      1  0.5643550000000  0.4419790000000  0.5496840000000 1.0
C      1  0.4460320000000  0.5729750000000  0.4723200000000 1.0
C      1  0.5523540000000  0.4356240000000  0.4642920000000 1.0
C      1  0.5639620000000  0.5612500000000  0.5475410000000 1.0
C      1  0.4495820000000  0.4275520000000  0.5694720000000 1.0
C      1  0.5522560000000  0.5631190000000  0.4646700000000 1.0
C      1  0.4337070000000  0.4200020000000  0.4833120000000 1.0
C      1  0.5423690000000  0.5829110000000  0.5846070000000 1.0
C      1  0.4895570000000  0.4165370000000  0.5964040000000 1.0
C      1  0.5283990000000  0.5862040000000  0.4307290000000 1.0
C      1  0.4645380000000  0.4080340000000  0.4470880000000 1.0
C      1  0.4872860000000  0.5900830000000  0.5892970000000 1.0
C      1  0.5442660000000  0.4224350000000  0.5888070000000 1.0
C      1  0.4736230000000  0.5884540000000  0.4359690000000 1.0
C      1  0.5199810000000  0.4139370000000  0.4366360000000 1.0
C      1  0.4790760000000  0.5246020000000  0.5643200000000 1.0
C      1  0.5070000000000  0.4776160000000  0.5603290000000 1.0
C      1  0.4693530000000  0.5183140000000  0.4604000000000 1.0
C      1  0.4991770000000  0.4748660000000  0.4588480000000 1.0
C      1  0.5067900000000  0.5267270000000  0.5595050000000 1.0
C      1  0.4792850000000  0.4789120000000  0.5654720000000 1.0
C      1  0.4974640000000  0.5224410000000  0.4583580000000 1.0
C      1  0.4703560000000  0.4727090000000  0.4626840000000 1.0
C      1  0.5408490000000  0.4491750000000  0.5352000000000 1.0
C      1  0.4583650000000  0.5584100000000  0.5411230000000 1.0
C      1  0.5345820000000  0.4460540000000  0.4838470000000 1.0
C      1  0.4629340000000  0.5568960000000  0.4890000000000 1.0
C      1  0.4564610000000  0.4438490000000  0.5470200000000 1.0
C      1  0.5414960000000  0.5547760000000  0.5312690000000 1.0
C      1  0.4489370000000  0.4401940000000  0.4962450000000 1.0
C      1  0.5305300000000  0.5555710000000  0.4811940000000 1.0
C      1  0.4742240000000  0.4885490000000  0.3808480000000 1.0
C      1  0.5091490000000  0.5214320000000  0.3850030000000 1.0
C      1  0.5057430000000  0.4892020000000  0.6380560000000 1.0
C      1  0.5327300000000  0.5289820000000  0.6345130000000 1.0
C      1  0.5024780000000  0.4927040000000  0.3839940000000 1.0
C      1  0.4863710000000  0.5391950000000  0.3871380000000 1.0
C      1  0.5328300000000  0.4789830000000  0.6355830000000 1.0
C      1  0.5056480000000  0.5188580000000  0.6373040000000 1.0
C      1  0.4597730000000  0.4875770000000  0.5461800000000 1.0
C      1  0.5159440000000  0.5159340000000  0.5346590000000 1.0
C      1  0.4615280000000  0.4832410000000  0.4911670000000 1.0
C      1  0.5124360000000  0.5138480000000  0.4810430000000 1.0
C      1  0.5162800000000  0.4880690000000  0.5351040000000 1.0
C      1  0.4606240000000  0.5148120000000  0.5446190000000 1.0
C      1  0.5101040000000  0.4853760000000  0.4854030000000 1.0
C      1  0.4568300000000  0.5116120000000  0.4852550000000 1.0
C      1  0.5573960000000  0.4462650000000  0.5782390000000 1.0
C      1  0.4647740000000  0.5718250000000  0.5867360000000 1.0
C      1  0.5384620000000  0.4354570000000  0.4389480000000 1.0
C      1  0.4535380000000  0.5685880000000  0.4435510000000 1.0
C      1  0.4666430000000  0.4348510000000  0.5935410000000 1.0
C      1  0.5562640000000  0.5587690000000  0.5757910000000 1.0
C      1  0.4415280000000  0.4241430000000  0.4550130000000 1.0
C      1  0.5421340000000  0.5615070000000  0.4374670000000 1.0
C      1  0.3322030000000  0.4559610000000  0.3680450000000 1.0
C      1  0.5980190000000  0.5036010000000  0.5073910000000 1.0
C      1  0.3940730000000  0.4589970000000  0.4066300000000 1.0
C      1  0.6160580000000  0.5394080000000  0.4471710000000 1.0
C      1  0.6574290000000  0.4689720000000  0.4234930000000 1.0
C      1  0.3841580000000  0.5296160000000  0.4394050000000 1.0
C      1  0.5861000000000  0.4837910000000  0.4245290000000 1.0
C      1  0.3872360000000  0.5159230000000  0.3674100000000 1.0
C      1  0.3816980000000  0.5184920000000  0.4154820000000 1.0
C      1  0.6341930000000  0.4802410000000  0.4294080000000 1.0
C      1  0.3816610000000  0.5036090000000  0.3918410000000 1.0
C      1  0.6099740000000  0.4923620000000  0.4361680000000 1.0
C      1  0.6024370000000  0.5081300000000  0.4816600000000 1.0
C      1  0.3537710000000  0.4651970000000  0.3803500000000 1.0
C      1  0.6094900000000  0.5134740000000  0.4551730000000 1.0
C      1  0.3764260000000  0.4756790000000  0.3928240000000 1.0
C      1  0.4817940000000  0.5676200000000  0.5291940000000 1.0
C      1  0.5231200000000  0.4291390000000  0.5262110000000 1.0
C      1  0.4861060000000  0.5670300000000  0.5013440000000 1.0
C      1  0.5194780000000  0.4279350000000  0.4994780000000 1.0
C      1  0.5265860000000  0.5764020000000  0.5207130000000 1.0
C      1  0.4782460000000  0.4338420000000  0.5319880000000 1.0
C      1  0.5129210000000  0.5722510000000  0.4959440000000 1.0
C      1  0.4742620000000  0.4315660000000  0.5054420000000 1.0
C      1  0.4700880000000  0.4627880000000  0.6081310000000 1.0
C      1  0.5487880000000  0.5325590000000  0.5888990000000 1.0
C      1  0.4353060000000  0.4502400000000  0.4401730000000 1.0
C      1  0.5330850000000  0.5357930000000  0.4251750000000 1.0
C      1  0.5492090000000  0.4731640000000  0.5901360000000 1.0
C      1  0.4694730000000  0.5417510000000  0.6059430000000 1.0
C      1  0.5333620000000  0.4667780000000  0.4212150000000 1.0
C      1  0.4513020000000  0.5382780000000  0.4242820000000 1.0
C      1  0.5614690000000  0.4756710000000  0.4192820000000 1.0
C      1  0.3935970000000  0.5271010000000  0.3447440000000 1.0
C      1  0.6803130000000  0.4578920000000  0.4177350000000 1.0
C      1  0.3876960000000  0.5390770000000  0.4634390000000 1.0
C      1  0.4133950000000  0.4503670000000  0.4225580000000 1.0
C      1  0.6223350000000  0.5630340000000  0.4381390000000 1.0
C      1  0.3109690000000  0.4469680000000  0.3558860000000 1.0
C      1  0.5952560000000  0.5007330000000  0.5331560000000 1.0
C      1  0.5123290000000  0.5882470000000  0.4074460000000 1.0
C      1  0.4745600000000  0.4102730000000  0.4206140000000 1.0
C      1  0.5304740000000  0.5846230000000  0.6103040000000 1.0
C      1  0.5069310000000  0.4190680000000  0.6187850000000 1.0
C      1  0.4852780000000  0.5889140000000  0.4100600000000 1.0
C      1  0.5010220000000  0.4130430000000  0.4156070000000 1.0
C      1  0.5037080000000  0.5886160000000  0.6124920000000 1.0
C      1  0.5336780000000  0.4220120000000  0.6151250000000 1.0
C      1  0.4542850000000  0.5065490000000  0.3863720000000 1.0
C      1  0.5327980000000  0.5317480000000  0.3969100000000 1.0
C      1  0.4846690000000  0.4706160000000  0.6319850000000 1.0
C      1  0.5517760000000  0.5188030000000  0.6150090000000 1.0
C      1  0.5193620000000  0.4714790000000  0.3941180000000 1.0
C      1  0.4602840000000  0.5328500000000  0.3971900000000 1.0
C      1  0.5519010000000  0.4882680000000  0.6156700000000 1.0
C      1  0.4844150000000  0.5369410000000  0.6299530000000 1.0
C      1  0.4233860000000  0.5912310000000  0.5182590000000 1.0
C      1  0.5862410000000  0.4301360000000  0.5034170000000 1.0
C      1  0.4199510000000  0.4054350000000  0.5322610000000 1.0
C      1  0.5872430000000  0.5696540000000  0.5027150000000 1.0
C      1  0.4881460000000  0.4819130000000  0.5044980000000 1.0
END
