TITL C-3623288-6813-1246 -0.000404864840608074 125000 -484.429121970641 0 0 80 (C1) n - 1
REM
REM in /home/nfs/bkarasulu/CARBON/AIRSS/Generating-Clusters/LCBOP/Higher-Symm/SD-CG/FIRE-CG
REM
REM
REM
REM
REM
REM ./C.cell (b20cbc046b6831c77cfcea5457e17084)
REM AIRSS Version 0.9.1 bugfix July 2018 build 013d7b7c2542+ Fri, 06 Jul 2018 19:26:36 +0100
REM compiler GCC version 9.2.1 20190827 (Red Hat 9.2.1-1)
REM options -cpp -mtune=generic -march=x86-64 -g -O0 -fpre-include=/usr/include/finclude/math-vector-fortran.h
REM seed 768641625 526108285 -1398746155 -959345012 1959731953 -639927665 280276627 683867420 1177709728 -1898849024 1628525088 1738558152 8664821 -1360447154 -1442993945 1472688499 1819609303 874100988 -672660305 -231979018 454152495 389115521 1895346940 1263459322 1446925038 -1460014447 -168366772 479275138 2065986580 1434397602 884393194 702463987 -1620293805
REM
CELL 1.54180   50.00000   50.00000   50.00000   90.00000   90.00000   90.00000
LATT -1
SFAC C  
C      1  0.5091110000000  0.4782010000000  0.5385360000000 1.0
C      1  0.4801430000000  0.4649200000000  0.4706460000000 1.0
C      1  0.5690700000000  0.5154270000000  0.5150200000000 1.0
C      1  0.5598130000000  0.5630370000000  0.5003800000000 1.0
C      1  0.5559220000000  0.4619490000000  0.4601510000000 1.0
C      1  0.5439630000000  0.4388010000000  0.4491460000000 1.0
C      1  0.4844310000000  0.4107860000000  0.6086920000000 1.0
C      1  0.5345170000000  0.4459080000000  0.5640950000000 1.0
C      1  0.5349260000000  0.3942550000000  0.5125150000000 1.0
C      1  0.4909380000000  0.5681890000000  0.5574340000000 1.0
C      1  0.5067100000000  0.5302320000000  0.4899250000000 1.0
C      1  0.4822130000000  0.4389340000000  0.4058660000000 1.0
C      1  0.4330620000000  0.4953930000000  0.5824340000000 1.0
C      1  0.5606310000000  0.5688050000000  0.4728430000000 1.0
C      1  0.4122380000000  0.5026540000000  0.5963190000000 1.0
C      1  0.5175110000000  0.5413620000000  0.4162660000000 1.0
C      1  0.4599170000000  0.4597980000000  0.5613570000000 1.0
C      1  0.3994590000000  0.4377340000000  0.4325740000000 1.0
C      1  0.5413680000000  0.5295340000000  0.4270480000000 1.0
C      1  0.4069920000000  0.4888610000000  0.4711590000000 1.0
C      1  0.5486800000000  0.6096910000000  0.5187850000000 1.0
C      1  0.4198390000000  0.4470860000000  0.4491470000000 1.0
C      1  0.5515940000000  0.5375100000000  0.5097430000000 1.0
C      1  0.5399330000000  0.5203220000000  0.4527260000000 1.0
C      1  0.5613270000000  0.5474540000000  0.5729660000000 1.0
C      1  0.4063510000000  0.5166650000000  0.4742680000000 1.0
C      1  0.4549890000000  0.4872210000000  0.5674380000000 1.0
C      1  0.4701980000000  0.4179100000000  0.4784480000000 1.0
C      1  0.5122880000000  0.5501900000000  0.5569380000000 1.0
C      1  0.5121830000000  0.5285150000000  0.5383020000000 1.0
C      1  0.5707170000000  0.4833930000000  0.5537290000000 1.0
C      1  0.5350470000000  0.4001540000000  0.5386240000000 1.0
C      1  0.5419840000000  0.4156300000000  0.4651640000000 1.0
C      1  0.5164560000000  0.4694020000000  0.5124220000000 1.0
C      1  0.5493390000000  0.5800670000000  0.4514710000000 1.0
C      1  0.4657440000000  0.4412020000000  0.4648080000000 1.0
C      1  0.5569090000000  0.4632190000000  0.5647710000000 1.0
C      1  0.5303510000000  0.4398020000000  0.4246970000000 1.0
C      1  0.4937340000000  0.5103600000000  0.4469390000000 1.0
C      1  0.5572840000000  0.4750070000000  0.4849560000000 1.0
C      1  0.5777280000000  0.5303470000000  0.5605510000000 1.0
C      1  0.5049660000000  0.6264540000000  0.4953460000000 1.0
C      1  0.5366500000000  0.4183910000000  0.5582100000000 1.0
C      1  0.4800560000000  0.5388470000000  0.4921890000000 1.0
C      1  0.3804340000000  0.4291630000000  0.4169630000000 1.0
C      1  0.5598770000000  0.5854810000000  0.5173160000000 1.0
C      1  0.5355410000000  0.5543680000000  0.5720300000000 1.0
C      1  0.5119500000000  0.6096200000000  0.4460080000000 1.0
C      1  0.4845620000000  0.4291460000000  0.5901980000000 1.0
C      1  0.4719070000000  0.6078010000000  0.5305520000000 1.0
C      1  0.5722630000000  0.4970230000000  0.4938240000000 1.0
C      1  0.5046230000000  0.6236810000000  0.4674620000000 1.0
C      1  0.5376850000000  0.4003250000000  0.4866220000000 1.0
C      1  0.5091380000000  0.4581380000000  0.5590600000000 1.0
C      1  0.4740070000000  0.5051170000000  0.5573480000000 1.0
C      1  0.5572980000000  0.4417990000000  0.5177860000000 1.0
C      1  0.4276870000000  0.4445460000000  0.5217100000000 1.0
C      1  0.5236570000000  0.5323410000000  0.5125320000000 1.0
C      1  0.4536180000000  0.5378060000000  0.4901600000000 1.0
C      1  0.4818580000000  0.6225850000000  0.5107300000000 1.0
C      1  0.4990010000000  0.5042300000000  0.5444980000000 1.0
C      1  0.5295940000000  0.6255030000000  0.5089280000000 1.0
C      1  0.4136480000000  0.4617670000000  0.4728190000000 1.0
C      1  0.4169040000000  0.4499350000000  0.4980260000000 1.0
C      1  0.5266510000000  0.5877480000000  0.4365260000000 1.0
C      1  0.4798780000000  0.4870380000000  0.4532930000000 1.0
C      1  0.4430040000000  0.4467600000000  0.5433190000000 1.0
C      1  0.5170040000000  0.5695320000000  0.4172120000000 1.0
C      1  0.4944640000000  0.5255280000000  0.4227620000000 1.0
C      1  0.4760170000000  0.5879600000000  0.5478070000000 1.0
C      1  0.3837940000000  0.5307820000000  0.4679700000000 1.0
C      1  0.4582080000000  0.4396340000000  0.4175990000000 1.0
C      1  0.4962040000000  0.4661370000000  0.4934600000000 1.0
C      1  0.4470920000000  0.4419740000000  0.4432490000000 1.0
C      1  0.5430690000000  0.4618150000000  0.5058420000000 1.0
C      1  0.4846620000000  0.4486550000000  0.5702310000000 1.0
C      1  0.5750520000000  0.5089190000000  0.5424180000000 1.0
C      1  0.5086500000000  0.4393720000000  0.4092840000000 1.0
C      1  0.5146130000000  0.5183080000000  0.4655150000000 1.0
C      1  0.4291030000000  0.5298460000000  0.4838990000000 1.0
END
