TITL C-3623287-7182-469 -4.24985658065712e-07 125000 -387.492356098649 0 0 64 (D2d) n - 1
REM
REM in /home/nfs/bkarasulu/CARBON/AIRSS/Generating-Clusters/LCBOP/Higher-Symm/SD-CG/FIRE-CG
REM
REM
REM
REM
REM
REM ./C.cell (b20cbc046b6831c77cfcea5457e17084)
REM AIRSS Version 0.9.1 bugfix July 2018 build 013d7b7c2542+ Fri, 06 Jul 2018 19:26:36 +0100
REM compiler GCC version 9.2.1 20190827 (Red Hat 9.2.1-1)
REM options -cpp -mtune=generic -march=x86-64 -g -O0 -fpre-include=/usr/include/finclude/math-vector-fortran.h
REM seed 1539383385 1119918931 -1285589355 -1408425516 202446308 -1162918323 1382861196 -611283322 656069684 991643235 -1538354926 -1188671351 -2045987496 1389884676 -1431648642 559329642 -2093692660 1265762554 1614255981 235546577 321060763 1032410830 495905725 125666359 1238563512 927060899 -183789906 2117973272 -155985802 -1543309082 1759006549 1827981786 251691614
REM
CELL 1.54180   50.00000   50.00000   50.00000   90.00000   90.00000   90.00000
LATT -1
SFAC C  
C      1  0.4592870000000  0.4259500000000  0.4963450000000 1.0
C      1  0.4309260000000  0.4978880000000  0.4627310000000 1.0
C      1  0.5016110000000  0.4630840000000  0.4283940000000 1.0
C      1  0.5387330000000  0.5730550000000  0.4963500000000 1.0
C      1  0.4592510000000  0.5730360000000  0.5006730000000 1.0
C      1  0.5387680000000  0.4259690000000  0.5006800000000 1.0
C      1  0.5670990000000  0.5011170000000  0.4627420000000 1.0
C      1  0.4309200000000  0.5010840000000  0.5342810000000 1.0
C      1  0.5670940000000  0.4979200000000  0.5342920000000 1.0
C      1  0.4964200000000  0.5359200000000  0.4283930000000 1.0
C      1  0.5015820000000  0.5359220000000  0.5686300000000 1.0
C      1  0.4964260000000  0.4630830000000  0.5686300000000 1.0
C      1  0.4454600000000  0.5180830000000  0.5526890000000 1.0
C      1  0.5129890000000  0.5520220000000  0.4459960000000 1.0
C      1  0.5525610000000  0.4453340000000  0.5171090000000 1.0
C      1  0.5525500000000  0.4809220000000  0.5526980000000 1.0
C      1  0.4454780000000  0.4808960000000  0.4443260000000 1.0
C      1  0.5525500000000  0.5181080000000  0.4443350000000 1.0
C      1  0.4850390000000  0.4469820000000  0.4459940000000 1.0
C      1  0.5130060000000  0.4469890000000  0.5510300000000 1.0
C      1  0.4850050000000  0.5520160000000  0.5510270000000 1.0
C      1  0.4454550000000  0.5536710000000  0.5171000000000 1.0
C      1  0.5525380000000  0.5536960000000  0.4799230000000 1.0
C      1  0.4454840000000  0.4453080000000  0.4799150000000 1.0
C      1  0.5016160000000  0.4293850000000  0.4620940000000 1.0
C      1  0.4309320000000  0.4637110000000  0.4969080000000 1.0
C      1  0.4592750000000  0.4973280000000  0.4249650000000 1.0
C      1  0.4964090000000  0.5696200000000  0.4620930000000 1.0
C      1  0.5015770000000  0.5696210000000  0.5349300000000 1.0
C      1  0.4964360000000  0.4293840000000  0.5349310000000 1.0
C      1  0.5670880000000  0.5352940000000  0.4969190000000 1.0
C      1  0.4309140000000  0.5352610000000  0.5001040000000 1.0
C      1  0.5671050000000  0.4637430000000  0.5001160000000 1.0
C      1  0.5387560000000  0.5016760000000  0.4249720000000 1.0
C      1  0.4592630000000  0.5016570000000  0.5720520000000 1.0
C      1  0.5387450000000  0.4973480000000  0.5720580000000 1.0
C      1  0.4418490000000  0.4830530000000  0.5149430000000 1.0
C      1  0.4787700000000  0.5148830000000  0.4359090000000 1.0
C      1  0.5192670000000  0.4369060000000  0.4831280000000 1.0
C      1  0.5561670000000  0.5159520000000  0.5149520000000 1.0
C      1  0.4418440000000  0.5159250000000  0.4820710000000 1.0
C      1  0.5561780000000  0.4830800000000  0.4820800000000 1.0
C      1  0.5192600000000  0.4841210000000  0.4359120000000 1.0
C      1  0.4787670000000  0.4841120000000  0.5611120000000 1.0
C      1  0.5192420000000  0.5148930000000  0.5611150000000 1.0
C      1  0.4787540000000  0.5620990000000  0.4831240000000 1.0
C      1  0.5192350000000  0.5621080000000  0.5138990000000 1.0
C      1  0.4787820000000  0.4368960000000  0.5138960000000 1.0
C      1  0.4860190000000  0.4628800000000  0.5035230000000 1.0
C      1  0.4716900000000  0.5107890000000  0.4872160000000 1.0
C      1  0.5120130000000  0.4944930000000  0.4618940000000 1.0
C      1  0.5119990000000  0.5361240000000  0.5035250000000 1.0
C      1  0.4860020000000  0.5361180000000  0.4934980000000 1.0
C      1  0.5120180000000  0.4628860000000  0.4935010000000 1.0
C      1  0.5263320000000  0.4882150000000  0.4872200000000 1.0
C      1  0.4716930000000  0.4882020000000  0.5098030000000 1.0
C      1  0.5263240000000  0.5108030000000  0.5098080000000 1.0
C      1  0.4860120000000  0.5045110000000  0.4618920000000 1.0
C      1  0.5120040000000  0.5045180000000  0.5351320000000 1.0
C      1  0.4860090000000  0.4944870000000  0.5351300000000 1.0
C      1  0.4574430000000  0.5433560000000  0.5423720000000 1.0
C      1  0.5405550000000  0.5433750000000  0.4546520000000 1.0
C      1  0.5405690000000  0.4556490000000  0.5423790000000 1.0
C      1  0.4574710000000  0.4556290000000  0.4546450000000 1.0
END
