TITL C-3623286-7563-599 2000.01803694231 125000 -773.810501218608 0 0 128 (C1) n - 1
REM
REM in /home/nfs/bkarasulu/CARBON/AIRSS/Generating-Clusters/LCBOP/Higher-Symm/SD-CG/FIRE-CG
REM
REM
REM
REM
REM
REM ./C.cell (b20cbc046b6831c77cfcea5457e17084)
REM AIRSS Version 0.9.1 bugfix July 2018 build 013d7b7c2542+ Fri, 06 Jul 2018 19:26:36 +0100
REM compiler GCC version 9.2.1 20190827 (Red Hat 9.2.1-1)
REM options -cpp -mtune=generic -march=x86-64 -g -O0 -fpre-include=/usr/include/finclude/math-vector-fortran.h
REM seed -1472884149 -1564195697 1766654113 -2009437678 -1747159328 -110034173 1732080323 1183537304 -1848319719 1849814735 -805588311 1267609003 -897094769 1574863859 -155198639 244010 2019957984 -2012727629 1227473001 -464869499 -1444431168 -971278959 495787927 -1651279785 -165735278 -1151745432 571098078 1749241825 -1516988017 1714104429 367789810 -2011382240 -161941867
REM
CELL 1.54180   50.00000   50.00000   50.00000   90.00000   90.00000   90.00000
LATT -1
SFAC C  
C      1  0.5553850000000  0.4261300000000  0.4707170000000 1.0
C      1  0.4168450000000  0.4927730000000  0.4772110000000 1.0
C      1  0.5378670000000  0.5790380000000  0.4773640000000 1.0
C      1  0.4172820000000  0.4638690000000  0.4816120000000 1.0
C      1  0.5126260000000  0.5943220000000  0.4819930000000 1.0
C      1  0.5733570000000  0.4444770000000  0.4813820000000 1.0
C      1  0.5840700000000  0.4777740000000  0.5376260000000 1.0
C      1  0.4418150000000  0.4381210000000  0.5385430000000 1.0
C      1  0.4726760000000  0.5912560000000  0.5395510000000 1.0
C      1  0.4418190000000  0.4535190000000  0.5635240000000 1.0
C      1  0.4878980000000  0.5773940000000  0.5615640000000 1.0
C      1  0.5694320000000  0.4699730000000  0.5617050000000 1.0
C      1  0.5606910000000  0.5231650000000  0.4265570000000 1.0
C      1  0.4917780000000  0.4317740000000  0.4277610000000 1.0
C      1  0.4447000000000  0.5416950000000  0.4232700000000 1.0
C      1  0.4822280000000  0.4702680000000  0.4830810000000 1.0
C      1  0.4877130000000  0.5457700000000  0.4997210000000 1.0
C      1  0.5345240000000  0.4713490000000  0.4956840000000 1.0
C      1  0.4290150000000  0.5023740000000  0.4528590000000 1.0
C      1  0.5418130000000  0.5646340000000  0.4509850000000 1.0
C      1  0.5385530000000  0.4317390000000  0.4470800000000 1.0
C      1  0.5918020000000  0.4540200000000  0.5245610000000 1.0
C      1  0.4168050000000  0.4366080000000  0.5249590000000 1.0
C      1  0.4889170000000  0.6109740000000  0.5257410000000 1.0
C      1  0.5124230000000  0.4180030000000  0.5754550000000 1.0
C      1  0.4271260000000  0.5334340000000  0.5787850000000 1.0
C      1  0.5622610000000  0.5443280000000  0.5801760000000 1.0
C      1  0.5023310000000  0.5462160000000  0.5233510000000 1.0
C      1  0.5207620000000  0.4584120000000  0.5353640000000 1.0
C      1  0.4561830000000  0.4863210000000  0.5313470000000 1.0
C      1  0.5323980000000  0.4804490000000  0.4504540000000 1.0
C      1  0.4777280000000  0.4902420000000  0.4643470000000 1.0
C      1  0.4962240000000  0.5582230000000  0.4552700000000 1.0
C      1  0.4115030000000  0.5095300000000  0.5401020000000 1.0
C      1  0.5518610000000  0.5718500000000  0.5418720000000 1.0
C      1  0.5453150000000  0.4153250000000  0.5376400000000 1.0
C      1  0.4472060000000  0.4254950000000  0.4575940000000 1.0
C      1  0.4611160000000  0.5888040000000  0.4495000000000 1.0
C      1  0.5908840000000  0.4864980000000  0.4523340000000 1.0
C      1  0.4221510000000  0.5407680000000  0.4981360000000 1.0
C      1  0.5702970000000  0.5460480000000  0.5005220000000 1.0
C      1  0.5256900000000  0.3919570000000  0.4895510000000 1.0
C      1  0.4677540000000  0.5112370000000  0.5831050000000 1.0
C      1  0.5223780000000  0.5211100000000  0.5830090000000 1.0
C      1  0.5107320000000  0.4639290000000  0.5849640000000 1.0
C      1  0.6120870000000  0.5028790000000  0.4623500000000 1.0
C      1  0.4512160000000  0.3997390000000  0.4696830000000 1.0
C      1  0.4365720000000  0.5974500000000  0.4614420000000 1.0
C      1  0.5091140000000  0.5984610000000  0.5103500000000 1.0
C      1  0.5701250000000  0.4439940000000  0.5100130000000 1.0
C      1  0.4132910000000  0.4600020000000  0.5096890000000 1.0
C      1  0.5230400000000  0.5692900000000  0.5643480000000 1.0
C      1  0.5532220000000  0.4427080000000  0.5617190000000 1.0
C      1  0.4278050000000  0.4866640000000  0.5641870000000 1.0
C      1  0.4851920000000  0.5836510000000  0.4688010000000 1.0
C      1  0.5771840000000  0.4718510000000  0.4729450000000 1.0
C      1  0.4405140000000  0.4471440000000  0.4750640000000 1.0
C      1  0.4719930000000  0.5712650000000  0.4961990000000 1.0
C      1  0.5600450000000  0.4895590000000  0.4923640000000 1.0
C      1  0.4622870000000  0.4529150000000  0.4935220000000 1.0
C      1  0.4128720000000  0.5587920000000  0.5409060000000 1.0
C      1  0.5907220000000  0.5418350000000  0.5424340000000 1.0
C      1  0.4987250000000  0.4105220000000  0.5328340000000 1.0
C      1  0.4307970000000  0.3833860000000  0.4771900000000 1.0
C      1  0.4303340000000  0.6230660000000  0.4678210000000 1.0
C      1  0.6382440000000  0.4959010000000  0.4637110000000 1.0
C      1  0.4832750000000  0.4227500000000  0.5814110000000 1.0
C      1  0.4445940000000  0.5562620000000  0.5838940000000 1.0
C      1  0.5725520000000  0.5174390000000  0.5856500000000 1.0
C      1  0.5428950000000  0.4538350000000  0.5174390000000 1.0
C      1  0.4336200000000  0.4781610000000  0.5202510000000 1.0
C      1  0.5134660000000  0.5724190000000  0.5223180000000 1.0
C      1  0.4200460000000  0.5748020000000  0.4655880000000 1.0
C      1  0.6008350000000  0.5273520000000  0.4707630000000 1.0
C      1  0.4785710000000  0.3933040000000  0.4729190000000 1.0
C      1  0.4716740000000  0.5578060000000  0.5743670000000 1.0
C      1  0.5604360000000  0.4930050000000  0.5762210000000 1.0
C      1  0.4666860000000  0.4471310000000  0.5775190000000 1.0
C      1  0.5050460000000  0.4064600000000  0.4723110000000 1.0
C      1  0.4287650000000  0.5462480000000  0.4686810000000 1.0
C      1  0.5713310000000  0.5343000000000  0.4732160000000 1.0
C      1  0.5492810000000  0.5128770000000  0.4772360000000 1.0
C      1  0.5058310000000  0.4329580000000  0.4865880000000 1.0
C      1  0.4575220000000  0.5385380000000  0.4693530000000 1.0
C      1  0.5088810000000  0.4611580000000  0.4868170000000 1.0
C      1  0.4866500000000  0.5358470000000  0.4723630000000 1.0
C      1  0.5256840000000  0.5048540000000  0.4630350000000 1.0
C      1  0.4111900000000  0.5344220000000  0.5550430000000 1.0
C      1  0.5724450000000  0.5576730000000  0.5569910000000 1.0
C      1  0.5207220000000  0.4058130000000  0.5499300000000 1.0
C      1  0.4551870000000  0.5688640000000  0.4284140000000 1.0
C      1  0.5771260000000  0.4998000000000  0.4309110000000 1.0
C      1  0.4643820000000  0.4294200000000  0.4354280000000 1.0
C      1  0.5126910000000  0.4176890000000  0.4442460000000 1.0
C      1  0.4236930000000  0.5299590000000  0.4427970000000 1.0
C      1  0.5621400000000  0.5449600000000  0.4469550000000 1.0
C      1  0.4632800000000  0.4957550000000  0.4185030000000 1.0
C      1  0.5154830000000  0.5385870000000  0.4152600000000 1.0
C      1  0.5240050000000  0.4651580000000  0.4099450000000 1.0
C      1  0.4556000000000  0.4924130000000  0.4459640000000 1.0
C      1  0.5175940000000  0.5570610000000  0.4374990000000 1.0
C      1  0.5374660000000  0.4577950000000  0.4345700000000 1.0
C      1  0.4924390000000  0.4379430000000  0.5295760000000 1.0
C      1  0.4297640000000  0.5611820000000  0.5183320000000 1.0
C      1  0.5809380000000  0.5277250000000  0.5202300000000 1.0
C      1  0.4551260000000  0.5764660000000  0.5192790000000 1.0
C      1  0.5755900000000  0.4989540000000  0.5184360000000 1.0
C      1  0.4654610000000  0.4420610000000  0.5205120000000 1.0
C      1  0.4764280000000  0.4740610000000  0.4060740000000 1.0
C      1  0.4897660000000  0.5339120000000  0.4042430000000 1.0
C      1  0.5301750000000  0.4922700000000  0.4015190000000 1.0
C      1  0.5453450000000  0.4077110000000  0.5016380000000 1.0
C      1  0.4143560000000  0.5140180000000  0.5050720000000 1.0
C      1  0.5541880000000  0.5681780000000  0.5065030000000 1.0
C      1  0.5329930000000  0.5475390000000  0.5814190000000 1.0
C      1  0.5287670000000  0.4419220000000  0.5796580000000 1.0
C      1  0.4396460000000  0.5069330000000  0.5814800000000 1.0
C      1  0.5218680000000  0.4856310000000  0.5467450000000 1.0
C      1  0.4781380000000  0.4842970000000  0.5481840000000 1.0
C      1  0.4954800000000  0.5277230000000  0.5435030000000 1.0
C      1  0.4849350000000  0.4687170000000  0.5724900000000 1.0
C      1  0.4808100000000  0.5318330000000  0.5680120000000 1.0
C      1  0.5334090000000  0.4981040000000  0.5699480000000 1.0
C      1  0.5362470000000  0.5188840000000  0.4114270000000 1.0
C      1  0.4971500000000  0.4549390000000  0.4103710000000 1.0
C      1  0.4641980000000  0.5235040000000  0.4109520000000 1.0
C      1  0.4994640000000  0.5005180000000  0.5391650000000 1.0
C      1  0.4978890000000  0.5104510000000  0.4654520000000 1.0
END
