TITL C-3623287-7182-1316 -0.23509183928125 125000 -252.505231740385 0 0 44 (C1) n - 1
REM
REM in /home/nfs/bkarasulu/CARBON/AIRSS/Generating-Clusters/LCBOP/Higher-Symm/SD-CG/FIRE-CG
REM
REM
REM
REM
REM
REM ./C.cell (b20cbc046b6831c77cfcea5457e17084)
REM AIRSS Version 0.9.1 bugfix July 2018 build 013d7b7c2542+ Fri, 06 Jul 2018 19:26:36 +0100
REM compiler GCC version 9.2.1 20190827 (Red Hat 9.2.1-1)
REM options -cpp -mtune=generic -march=x86-64 -g -O0 -fpre-include=/usr/include/finclude/math-vector-fortran.h
REM seed -278387348 1091783089 -787205555 -82027655 -606851213 1157019141 442484592 -1468738129 1677595324 -20231489 -902166509 1014923142 -580871584 2145357832 1228080645 1405328417 -2138188025 55034117 790982301 -1258896424 -1832367211 -151908313 2130353393 838758595 1762835267 483142962 1845923659 2134230385 1269750931 1583820815 1322070985 -286275666 -631159341
REM
CELL 1.54180   50.00000   50.00000   50.00000   90.00000   90.00000   90.00000
LATT -1
SFAC C  
C      1  0.4837720000000  0.5116960000000  0.5297810000000 1.0
C      1  0.5133920000000  0.5492250000000  0.5456030000000 1.0
C      1  0.5322550000000  0.5106700000000  0.5207020000000 1.0
C      1  0.5604660000000  0.5506170000000  0.5332310000000 1.0
C      1  0.5985910000000  0.4315150000000  0.4979400000000 1.0
C      1  0.3920620000000  0.4570930000000  0.5332330000000 1.0
C      1  0.5427870000000  0.5864320000000  0.5581970000000 1.0
C      1  0.5715180000000  0.4749650000000  0.5098230000000 1.0
C      1  0.4364920000000  0.4851590000000  0.5317000000000 1.0
C      1  0.5603140000000  0.6762990000000  0.5418660000000 1.0
C      1  0.5901030000000  0.3247750000000  0.5138140000000 1.0
C      1  0.3104720000000  0.4586210000000  0.4805350000000 1.0
C      1  0.5112730000000  0.5732910000000  0.4764980000000 1.0
C      1  0.5135210000000  0.4310460000000  0.4997550000000 1.0
C      1  0.4382750000000  0.4835180000000  0.4605830000000 1.0
C      1  0.3863080000000  0.4740360000000  0.4643760000000 1.0
C      1  0.5294350000000  0.6179160000000  0.4984790000000 1.0
C      1  0.5409440000000  0.3861660000000  0.5056390000000 1.0
C      1  0.3353600000000  0.4637900000000  0.4747470000000 1.0
C      1  0.5499780000000  0.6575940000000  0.5269360000000 1.0
C      1  0.5737470000000  0.3448980000000  0.5111360000000 1.0
C      1  0.5571580000000  0.3653900000000  0.5084090000000 1.0
C      1  0.3607120000000  0.4690110000000  0.4690400000000 1.0
C      1  0.5395290000000  0.6383270000000  0.5120320000000 1.0
C      1  0.5014330000000  0.4834410000000  0.4931470000000 1.0
C      1  0.4932170000000  0.4941240000000  0.4660700000000 1.0
C      1  0.4978150000000  0.5235960000000  0.4648890000000 1.0
C      1  0.5260270000000  0.4078770000000  0.5027580000000 1.0
C      1  0.4122170000000  0.4788060000000  0.4615200000000 1.0
C      1  0.5199740000000  0.5961230000000  0.4867470000000 1.0
C      1  0.5048480000000  0.4558750000000  0.4966310000000 1.0
C      1  0.4642690000000  0.4884100000000  0.4616640000000 1.0
C      1  0.5037450000000  0.5491240000000  0.4686660000000 1.0
C      1  0.4591740000000  0.4988260000000  0.5311390000000 1.0
C      1  0.5185140000000  0.5740940000000  0.5581530000000 1.0
C      1  0.5541870000000  0.4941780000000  0.5155060000000 1.0
C      1  0.4889950000000  0.5356950000000  0.5435630000000 1.0
C      1  0.5359640000000  0.5362210000000  0.5325970000000 1.0
C      1  0.5057610000000  0.5014550000000  0.5146470000000 1.0
C      1  0.5858220000000  0.4534710000000  0.5038180000000 1.0
C      1  0.4140610000000  0.4710540000000  0.5323690000000 1.0
C      1  0.5638650000000  0.5746550000000  0.5455650000000 1.0
C      1  0.5242750000000  0.4686770000000  0.4271830000000 1.0
C      1  0.5094190000000  0.4808250000000  0.4447910000000 1.0
END
