TITL C-3623284-6838-1771 20747.5908712917 125000 -1138.0552200514 0 0 189 (C1) n - 1
REM
REM in /home/nfs/bkarasulu/CARBON/AIRSS/Generating-Clusters/LCBOP/Higher-Symm/SD-CG/FIRE-CG
REM
REM
REM
REM
REM
REM ./C.cell (b20cbc046b6831c77cfcea5457e17084)
REM AIRSS Version 0.9.1 bugfix July 2018 build 013d7b7c2542+ Fri, 06 Jul 2018 19:26:36 +0100
REM compiler GCC version 9.2.1 20190827 (Red Hat 9.2.1-1)
REM options -cpp -mtune=generic -march=x86-64 -g -O0 -fpre-include=/usr/include/finclude/math-vector-fortran.h
REM seed 381891958 425587071 -1909760517 73889198 -839817171 -1158506790 472197416 64192192 1116407298 1690477580 -1003351616 -1142823470 419641430 -323621198 -916696740 -326874589 -750286368 2062459694 -669370281 -864213706 -775383215 978294151 -257612342 853511624 -776425304 -31742967 1480492636 826002307 -667456944 1628192622 2143508753 44957044 46664071
REM
CELL 1.54180   50.00000   50.00000   50.00000   90.00000   90.00000   90.00000
LATT -1
SFAC C  
C      1  0.4766680000000  0.4427290000000  0.3831730000000 1.0
C      1  0.5473980000000  0.4665030000000  0.3899760000000 1.0
C      1  0.5539720000000  0.5282020000000  0.3830950000000 1.0
C      1  0.4766820000000  0.5469750000000  0.3914650000000 1.0
C      1  0.4566330000000  0.4903660000000  0.3833650000000 1.0
C      1  0.5942140000000  0.5789880000000  0.5361810000000 1.0
C      1  0.4646890000000  0.6141290000000  0.5648960000000 1.0
C      1  0.3811000000000  0.4989760000000  0.5711490000000 1.0
C      1  0.4650420000000  0.3776910000000  0.5413350000000 1.0
C      1  0.5868140000000  0.4322350000000  0.5697340000000 1.0
C      1  0.4747880000000  0.5146330000000  0.5085090000000 1.0
C      1  0.4772050000000  0.4855940000000  0.5185910000000 1.0
C      1  0.5046520000000  0.4737540000000  0.5108900000000 1.0
C      1  0.5257790000000  0.4946000000000  0.5090720000000 1.0
C      1  0.5023920000000  0.5295990000000  0.5113700000000 1.0
C      1  0.4430740000000  0.5699500000000  0.5466060000000 1.0
C      1  0.4124810000000  0.4632980000000  0.5502690000000 1.0
C      1  0.4983100000000  0.4082930000000  0.5424470000000 1.0
C      1  0.5890520000000  0.4779560000000  0.5440220000000 1.0
C      1  0.5484060000000  0.5763820000000  0.5444700000000 1.0
C      1  0.5201900000000  0.5354980000000  0.6190070000000 1.0
C      1  0.4785010000000  0.5231940000000  0.6171000000000 1.0
C      1  0.4762390000000  0.4799010000000  0.6141130000000 1.0
C      1  0.5174970000000  0.4664480000000  0.6163070000000 1.0
C      1  0.5453160000000  0.4999870000000  0.6171990000000 1.0
C      1  0.5907840000000  0.4969450000000  0.6308370000000 1.0
C      1  0.5368750000000  0.5760270000000  0.6372950000000 1.0
C      1  0.4466380000000  0.5516880000000  0.6378180000000 1.0
C      1  0.4423540000000  0.4578300000000  0.6391060000000 1.0
C      1  0.5222910000000  0.4235330000000  0.6361690000000 1.0
C      1  0.5750020000000  0.5509350000000  0.4199220000000 1.0
C      1  0.4878070000000  0.6064320000000  0.4107610000000 1.0
C      1  0.4327590000000  0.5101890000000  0.4178590000000 1.0
C      1  0.4690520000000  0.4152220000000  0.4221590000000 1.0
C      1  0.5698010000000  0.4459450000000  0.4280910000000 1.0
C      1  0.5053460000000  0.5492240000000  0.4008930000000 1.0
C      1  0.4743030000000  0.5155930000000  0.3879320000000 1.0
C      1  0.4749850000000  0.4691830000000  0.3918090000000 1.0
C      1  0.5253060000000  0.4573420000000  0.4025180000000 1.0
C      1  0.5471260000000  0.5038900000000  0.3969120000000 1.0
C      1  0.5422040000000  0.3911990000000  0.5083360000000 1.0
C      1  0.6218990000000  0.5141290000000  0.5001270000000 1.0
C      1  0.5243270000000  0.6133170000000  0.5052200000000 1.0
C      1  0.3985000000000  0.5642030000000  0.5134490000000 1.0
C      1  0.4088390000000  0.4137930000000  0.5080320000000 1.0
C      1  0.5160190000000  0.4001080000000  0.4747770000000 1.0
C      1  0.6082680000000  0.4867790000000  0.4655970000000 1.0
C      1  0.5464130000000  0.5955060000000  0.4722150000000 1.0
C      1  0.4185260000000  0.5664360000000  0.4690510000000 1.0
C      1  0.4048780000000  0.4418060000000  0.4706260000000 1.0
C      1  0.5537360000000  0.5427380000000  0.5094920000000 1.0
C      1  0.4713310000000  0.5700040000000  0.5041930000000 1.0
C      1  0.4175460000000  0.4935100000000  0.5034140000000 1.0
C      1  0.4732270000000  0.4260610000000  0.5002250000000 1.0
C      1  0.5626240000000  0.4529160000000  0.5059980000000 1.0
C      1  0.4416350000000  0.5464230000000  0.5906310000000 1.0
C      1  0.4386850000000  0.4505570000000  0.5919990000000 1.0
C      1  0.5120630000000  0.4240070000000  0.5895050000000 1.0
C      1  0.5841370000000  0.5059370000000  0.5843460000000 1.0
C      1  0.5297940000000  0.5754690000000  0.5901000000000 1.0
C      1  0.4248770000000  0.4747660000000  0.5253480000000 1.0
C      1  0.4948980000000  0.4281270000000  0.5214900000000 1.0
C      1  0.5694570000000  0.4758020000000  0.5227040000000 1.0
C      1  0.5380410000000  0.5542720000000  0.5300960000000 1.0
C      1  0.4527800000000  0.5579800000000  0.5217910000000 1.0
C      1  0.5121180000000  0.6052090000000  0.5530200000000 1.0
C      1  0.4054840000000  0.5405110000000  0.5551640000000 1.0
C      1  0.4324000000000  0.4172480000000  0.5520230000000 1.0
C      1  0.5440560000000  0.4079400000000  0.5559870000000 1.0
C      1  0.5974590000000  0.5272470000000  0.5394390000000 1.0
C      1  0.5957810000000  0.5307800000000  0.4270520000000 1.0
C      1  0.5087280000000  0.6042830000000  0.4296520000000 1.0
C      1  0.4189150000000  0.5343320000000  0.4214550000000 1.0
C      1  0.4402150000000  0.4198770000000  0.4306640000000 1.0
C      1  0.5564040000000  0.4210920000000  0.4373970000000 1.0
C      1  0.4212880000000  0.5210230000000  0.5120760000000 1.0
C      1  0.4507170000000  0.4381120000000  0.5130610000000 1.0
C      1  0.5419400000000  0.4377500000000  0.5186400000000 1.0
C      1  0.5738250000000  0.5295120000000  0.4907870000000 1.0
C      1  0.4954890000000  0.5761700000000  0.5177880000000 1.0
C      1  0.4563030000000  0.5123370000000  0.4342400000000 1.0
C      1  0.4742230000000  0.4570630000000  0.4396820000000 1.0
C      1  0.5325920000000  0.4668800000000  0.4498590000000 1.0
C      1  0.5480650000000  0.5233360000000  0.4459380000000 1.0
C      1  0.4955260000000  0.5529950000000  0.4490000000000 1.0
C      1  0.6156200000000  0.4804520000000  0.4927340000000 1.0
C      1  0.5589470000000  0.5996030000000  0.5048030000000 1.0
C      1  0.4119260000000  0.5770970000000  0.4940110000000 1.0
C      1  0.3909910000000  0.4421130000000  0.4958830000000 1.0
C      1  0.5059370000000  0.3824210000000  0.5047210000000 1.0
C      1  0.4132220000000  0.4886950000000  0.4736410000000 1.0
C      1  0.4820310000000  0.4274530000000  0.4471180000000 1.0
C      1  0.5641620000000  0.4637680000000  0.4531620000000 1.0
C      1  0.5608590000000  0.5523340000000  0.4472180000000 1.0
C      1  0.4687790000000  0.5709520000000  0.4688080000000 1.0
C      1  0.5360870000000  0.5130550000000  0.5729730000000 1.0
C      1  0.4900660000000  0.5226010000000  0.5719640000000 1.0
C      1  0.4673840000000  0.5063000000000  0.5664050000000 1.0
C      1  0.4749790000000  0.4790800000000  0.5675570000000 1.0
C      1  0.5031550000000  0.4772170000000  0.5707910000000 1.0
C      1  0.5837720000000  0.5482250000000  0.4681000000000 1.0
C      1  0.4763010000000  0.5988860000000  0.4639450000000 1.0
C      1  0.3991140000000  0.5078460000000  0.4575990000000 1.0
C      1  0.4665050000000  0.4179770000000  0.4723350000000 1.0
C      1  0.5672720000000  0.4450780000000  0.4783500000000 1.0
C      1  0.5287310000000  0.5619030000000  0.6151370000000 1.0
C      1  0.4559550000000  0.5400170000000  0.6146620000000 1.0
C      1  0.4529990000000  0.4630620000000  0.6141030000000 1.0
C      1  0.5171990000000  0.4384740000000  0.6136290000000 1.0
C      1  0.5727860000000  0.5010720000000  0.6103740000000 1.0
C      1  0.5669590000000  0.4142870000000  0.5708410000000 1.0
C      1  0.6011660000000  0.5546060000000  0.5460240000000 1.0
C      1  0.4911700000000  0.6177240000000  0.5666490000000 1.0
C      1  0.3878960000000  0.5247700000000  0.5700590000000 1.0
C      1  0.4470750000000  0.3928070000000  0.5559020000000 1.0
C      1  0.5800790000000  0.4893200000000  0.4550940000000 1.0
C      1  0.5404800000000  0.5729360000000  0.4532610000000 1.0
C      1  0.4457070000000  0.5571370000000  0.4574910000000 1.0
C      1  0.4240640000000  0.4621610000000  0.4574310000000 1.0
C      1  0.5101100000000  0.4228590000000  0.4553950000000 1.0
C      1  0.4660830000000  0.5920890000000  0.4038630000000 1.0
C      1  0.4324210000000  0.4896360000000  0.3986510000000 1.0
C      1  0.4876270000000  0.4233990000000  0.4007690000000 1.0
C      1  0.5720630000000  0.4616680000000  0.4036710000000 1.0
C      1  0.5555660000000  0.5522860000000  0.3983110000000 1.0
C      1  0.4543650000000  0.4656250000000  0.5251470000000 1.0
C      1  0.5148800000000  0.4503040000000  0.5258000000000 1.0
C      1  0.5478030000000  0.4942970000000  0.5264500000000 1.0
C      1  0.5082130000000  0.5512950000000  0.5309140000000 1.0
C      1  0.4501190000000  0.5279040000000  0.5204050000000 1.0
C      1  0.5814730000000  0.4880990000000  0.4058150000000 1.0
C      1  0.5296930000000  0.5652500000000  0.4040200000000 1.0
C      1  0.4578850000000  0.5649420000000  0.4047380000000 1.0
C      1  0.4220100000000  0.4642580000000  0.4062120000000 1.0
C      1  0.5157190000000  0.4301540000000  0.4074390000000 1.0
C      1  0.5083880000000  0.6010590000000  0.5245430000000 1.0
C      1  0.4036420000000  0.5396260000000  0.5262290000000 1.0
C      1  0.4297490000000  0.4217890000000  0.5238420000000 1.0
C      1  0.5463370000000  0.4107210000000  0.5277340000000 1.0
C      1  0.5980210000000  0.5229290000000  0.5109800000000 1.0
C      1  0.4813930000000  0.5083690000000  0.4189920000000 1.0
C      1  0.4875800000000  0.4777370000000  0.4205880000000 1.0
C      1  0.5178990000000  0.4780550000000  0.4251340000000 1.0
C      1  0.5300760000000  0.5085260000000  0.4229120000000 1.0
C      1  0.5039950000000  0.5286810000000  0.4240800000000 1.0
C      1  0.4749860000000  0.5092440000000  0.4777780000000 1.0
C      1  0.4728300000000  0.4798710000000  0.4764790000000 1.0
C      1  0.4972120000000  0.4653270000000  0.4829560000000 1.0
C      1  0.5324300000000  0.4988790000000  0.4817930000000 1.0
C      1  0.5129720000000  0.5375290000000  0.4855180000000 1.0
C      1  0.4174140000000  0.4150560000000  0.4745370000000 1.0
C      1  0.5447760000000  0.3996780000000  0.4812000000000 1.0
C      1  0.6197910000000  0.5154670000000  0.4671390000000 1.0
C      1  0.5217820000000  0.6116610000000  0.4768610000000 1.0
C      1  0.3957130000000  0.5559520000000  0.4554830000000 1.0
C      1  0.5157120000000  0.4510300000000  0.4668010000000 1.0
C      1  0.5592720000000  0.5077660000000  0.4709130000000 1.0
C      1  0.5161890000000  0.5571950000000  0.4656390000000 1.0
C      1  0.4574230000000  0.5240350000000  0.4590330000000 1.0
C      1  0.4550960000000  0.4674270000000  0.4591070000000 1.0
C      1  0.5166890000000  0.4110110000000  0.5646390000000 1.0
C      1  0.5925520000000  0.5042600000000  0.5568040000000 1.0
C      1  0.5318580000000  0.5878280000000  0.5646520000000 1.0
C      1  0.4290300000000  0.5533550000000  0.5658640000000 1.0
C      1  0.4267360000000  0.4423010000000  0.5668200000000 1.0
C      1  0.5469930000000  0.5097810000000  0.5492160000000 1.0
C      1  0.4973450000000  0.5451270000000  0.5574440000000 1.0
C      1  0.4496280000000  0.5161140000000  0.5481640000000 1.0
C      1  0.4623740000000  0.4597410000000  0.5530240000000 1.0
C      1  0.5170990000000  0.4600670000000  0.5541240000000 1.0
C      1  0.4479230000000  0.5964960000000  0.5539920000000 1.0
C      1  0.3899270000000  0.4757180000000  0.5615720000000 1.0
C      1  0.4904590000000  0.3836870000000  0.5289460000000 1.0
C      1  0.5957920000000  0.4546050000000  0.5581930000000 1.0
C      1  0.5687880000000  0.5892820000000  0.5290100000000 1.0
C      1  0.4406290000000  0.4109810000000  0.4599360000000 1.0
C      1  0.5611050000000  0.4180370000000  0.4668560000000 1.0
C      1  0.6069300000000  0.5367420000000  0.4537350000000 1.0
C      1  0.5015200000000  0.6098870000000  0.4571370000000 1.0
C      1  0.3988780000000  0.5317800000000  0.4418740000000 1.0
C      1  0.5289990000000  0.5839650000000  0.4264220000000 1.0
C      1  0.4388080000000  0.5565140000000  0.4250680000000 1.0
C      1  0.4256150000000  0.4467920000000  0.4281060000000 1.0
C      1  0.5280580000000  0.4189530000000  0.4308150000000 1.0
C      1  0.5874130000000  0.5030610000000  0.4269810000000 1.0
C      1  0.5106840000000  0.5035290000000  0.5834440000000 1.0
C      1  0.5082730000000  0.5015550000000  0.6123670000000 1.0
C      1  0.4955250000000  0.5111800000000  0.3658620000000 1.0
C      1  0.5092850000000  0.5125940000000  0.4719210000000 1.0
END
