TITL C-3623282-6910-1036 -1.06235485097163e-06 125000 -595.856131911684 0 0 100 (C1) n - 1
REM
REM in /home/nfs/bkarasulu/CARBON/AIRSS/Generating-Clusters/LCBOP/Higher-Symm/SD-CG/FIRE-CG
REM
REM
REM
REM
REM
REM ./C.cell (b20cbc046b6831c77cfcea5457e17084)
REM AIRSS Version 0.9.1 bugfix July 2018 build 013d7b7c2542+ Fri, 06 Jul 2018 19:26:36 +0100
REM compiler GCC version 9.2.1 20190827 (Red Hat 9.2.1-1)
REM options -cpp -mtune=generic -march=x86-64 -g -O0 -fpre-include=/usr/include/finclude/math-vector-fortran.h
REM seed 896845862 279531488 331225257 -1988464989 -1265824981 -733055468 -1526360458 1772060553 -1640662744 445834826 -215980889 159363777 622012815 -24246222 -60647076 -108139680 603675812 343474210 -554568681 -1209890454 1388420296 1006838953 379135012 543281349 1802047994 817160741 -321369419 -1828486289 -2052006901 -1316425305 156949441 -44362636 647465718
REM
CELL 1.54180   50.00000   50.00000   50.00000   90.00000   90.00000   90.00000
LATT -1
SFAC C  
C      1  0.4082680000000  0.5229100000000  0.5097720000000 1.0
C      1  0.5060170000000  0.5999170000000  0.5090190000000 1.0
C      1  0.5961570000000  0.5325650000000  0.5124180000000 1.0
C      1  0.5588340000000  0.4255390000000  0.5097380000000 1.0
C      1  0.4485850000000  0.4147460000000  0.5142500000000 1.0
C      1  0.4089590000000  0.5249610000000  0.4825450000000 1.0
C      1  0.5038950000000  0.5981020000000  0.4815440000000 1.0
C      1  0.5931340000000  0.5316910000000  0.4849630000000 1.0
C      1  0.5603010000000  0.4251090000000  0.4822670000000 1.0
C      1  0.4513100000000  0.4162570000000  0.4868100000000 1.0
C      1  0.5005860000000  0.4216720000000  0.4818770000000 1.0
C      1  0.4096370000000  0.4592290000000  0.4840600000000 1.0
C      1  0.4495230000000  0.5690770000000  0.4899280000000 1.0
C      1  0.5491590000000  0.5605430000000  0.4840400000000 1.0
C      1  0.5743190000000  0.4745780000000  0.4867080000000 1.0
C      1  0.4973130000000  0.4160370000000  0.5092760000000 1.0
C      1  0.4097820000000  0.4590290000000  0.5124690000000 1.0
C      1  0.4404590000000  0.5780030000000  0.5156520000000 1.0
C      1  0.5577500000000  0.5652290000000  0.5105690000000 1.0
C      1  0.5813770000000  0.4739870000000  0.5139040000000 1.0
C      1  0.4309980000000  0.4709360000000  0.5535490000000 1.0
C      1  0.4455520000000  0.5632270000000  0.5602980000000 1.0
C      1  0.5469920000000  0.5587530000000  0.5550980000000 1.0
C      1  0.5710050000000  0.4825630000000  0.5583740000000 1.0
C      1  0.4997070000000  0.4351860000000  0.5511720000000 1.0
C      1  0.4332640000000  0.4711730000000  0.4442300000000 1.0
C      1  0.4686740000000  0.5301400000000  0.4681240000000 1.0
C      1  0.5139700000000  0.5406580000000  0.4582410000000 1.0
C      1  0.5432310000000  0.4975880000000  0.4591110000000 1.0
C      1  0.5122820000000  0.4561260000000  0.4520190000000 1.0
C      1  0.4554890000000  0.5156010000000  0.4250740000000 1.0
C      1  0.5018310000000  0.5530220000000  0.4163650000000 1.0
C      1  0.5522410000000  0.5184590000000  0.4190540000000 1.0
C      1  0.5375080000000  0.4587740000000  0.4154490000000 1.0
C      1  0.4736500000000  0.4565490000000  0.4242740000000 1.0
C      1  0.4524510000000  0.5168320000000  0.5635090000000 1.0
C      1  0.5041840000000  0.5560900000000  0.5701540000000 1.0
C      1  0.5541860000000  0.5196230000000  0.5765790000000 1.0
C      1  0.5325890000000  0.4591240000000  0.5712690000000 1.0
C      1  0.4699280000000  0.4586590000000  0.5738220000000 1.0
C      1  0.5271900000000  0.5090660000000  0.4084240000000 1.0
C      1  0.5193940000000  0.4803330000000  0.4090360000000 1.0
C      1  0.4895270000000  0.4785480000000  0.4138550000000 1.0
C      1  0.4798080000000  0.5066800000000  0.4136260000000 1.0
C      1  0.5024320000000  0.5251610000000  0.4092940000000 1.0
C      1  0.5265280000000  0.5107640000000  0.5785790000000 1.0
C      1  0.5171670000000  0.4823290000000  0.5777560000000 1.0
C      1  0.4873680000000  0.4816400000000  0.5757130000000 1.0
C      1  0.4786100000000  0.5096990000000  0.5719690000000 1.0
C      1  0.5021180000000  0.5277740000000  0.5748030000000 1.0
C      1  0.5259890000000  0.4807540000000  0.5006820000000 1.0
C      1  0.5007120000000  0.4687020000000  0.4965960000000 1.0
C      1  0.4484190000000  0.4883500000000  0.4860280000000 1.0
C      1  0.4897350000000  0.5461520000000  0.5097430000000 1.0
C      1  0.5149220000000  0.5333740000000  0.5058510000000 1.0
C      1  0.5372860000000  0.4932490000000  0.5236930000000 1.0
C      1  0.4794010000000  0.4636830000000  0.5152880000000 1.0
C      1  0.4546830000000  0.4783660000000  0.5116860000000 1.0
C      1  0.4829310000000  0.5627110000000  0.5311900000000 1.0
C      1  0.5344070000000  0.5222270000000  0.5241380000000 1.0
C      1  0.5506760000000  0.5910720000000  0.5209450000000 1.0
C      1  0.6034700000000  0.4890840000000  0.5246930000000 1.0
C      1  0.5194120000000  0.4029360000000  0.5219340000000 1.0
C      1  0.4098100000000  0.4349140000000  0.5285050000000 1.0
C      1  0.4148350000000  0.5674200000000  0.5231330000000 1.0
C      1  0.5453600000000  0.5818030000000  0.4652900000000 1.0
C      1  0.5925840000000  0.4871020000000  0.4686780000000 1.0
C      1  0.5195590000000  0.4076350000000  0.4657090000000 1.0
C      1  0.4132140000000  0.4347180000000  0.4692850000000 1.0
C      1  0.4299030000000  0.5656840000000  0.4692930000000 1.0
C      1  0.5621270000000  0.5143180000000  0.4454840000000 1.0
C      1  0.5360100000000  0.4445870000000  0.4402710000000 1.0
C      1  0.4516570000000  0.4486750000000  0.4413280000000 1.0
C      1  0.4471830000000  0.5261550000000  0.4497920000000 1.0
C      1  0.5077110000000  0.5637680000000  0.4421630000000 1.0
C      1  0.5775940000000  0.5109120000000  0.5611710000000 1.0
C      1  0.5285200000000  0.4373890000000  0.5531520000000 1.0
C      1  0.4471150000000  0.4472440000000  0.5595360000000 1.0
C      1  0.4345650000000  0.5369230000000  0.5544570000000 1.0
C      1  0.5218800000000  0.5738020000000  0.5552820000000 1.0
C      1  0.5174280000000  0.5865620000000  0.4584760000000 1.0
C      1  0.5864840000000  0.5147920000000  0.4623360000000 1.0
C      1  0.5434420000000  0.4228470000000  0.4588550000000 1.0
C      1  0.4414600000000  0.4287280000000  0.4623080000000 1.0
C      1  0.4237420000000  0.5384480000000  0.4619330000000 1.0
C      1  0.5232370000000  0.5926060000000  0.5313380000000 1.0
C      1  0.5955540000000  0.5154280000000  0.5362600000000 1.0
C      1  0.5404280000000  0.4209580000000  0.5313750000000 1.0
C      1  0.4368540000000  0.4271190000000  0.5382750000000 1.0
C      1  0.4156260000000  0.5394900000000  0.5317110000000 1.0
C      1  0.4708420000000  0.5490030000000  0.4887020000000 1.0
C      1  0.5281400000000  0.5409790000000  0.4819390000000 1.0
C      1  0.5464540000000  0.4801080000000  0.4805460000000 1.0
C      1  0.4997870000000  0.4496520000000  0.4755850000000 1.0
C      1  0.4266090000000  0.4788030000000  0.4705850000000 1.0
C      1  0.4586830000000  0.5751620000000  0.5379450000000 1.0
C      1  0.5523120000000  0.5445730000000  0.5308700000000 1.0
C      1  0.5599550000000  0.4775530000000  0.5329940000000 1.0
C      1  0.4864230000000  0.4373170000000  0.5263680000000 1.0
C      1  0.4296340000000  0.4759110000000  0.5259780000000 1.0
END
