TITL C-3623286-7563-358 0.146052188792616 125000 -1098.20393264215 0 0 177 (C1) n - 1
REM
REM in /home/nfs/bkarasulu/CARBON/AIRSS/Generating-Clusters/LCBOP/Higher-Symm/SD-CG/FIRE-CG
REM
REM
REM
REM
REM
REM ./C.cell (b20cbc046b6831c77cfcea5457e17084)
REM AIRSS Version 0.9.1 bugfix July 2018 build 013d7b7c2542+ Fri, 06 Jul 2018 19:26:36 +0100
REM compiler GCC version 9.2.1 20190827 (Red Hat 9.2.1-1)
REM options -cpp -mtune=generic -march=x86-64 -g -O0 -fpre-include=/usr/include/finclude/math-vector-fortran.h
REM seed -2018158478 1114036489 1182580575 1309391890 -453567399 -1402175445 628640449 9346743 1101037438 798581882 -313881977 659166103 714204298 930767493 611184948 -1459394747 710661601 -884048792 -1523870395 1925426513 1516080603 -990275341 -794790992 -626194067 -500659440 -1897223120 -2032943215 -1619054862 -1312435831 -2112480014 -131495355 1905562639 -1717992630
REM
CELL 1.54180   50.00000   50.00000   50.00000   90.00000   90.00000   90.00000
LATT -1
SFAC C  
C      1  0.6060490000000  0.5553590000000  0.5544520000000 1.0
C      1  0.3975290000000  0.5407010000000  0.4327810000000 1.0
C      1  0.5165570000000  0.4209140000000  0.5577790000000 1.0
C      1  0.6222630000000  0.5162610000000  0.5009380000000 1.0
C      1  0.4788350000000  0.5570660000000  0.4236030000000 1.0
C      1  0.5522840000000  0.5044460000000  0.5172970000000 1.0
C      1  0.5390060000000  0.5214700000000  0.5002200000000 1.0
C      1  0.4709490000000  0.6006370000000  0.4564640000000 1.0
C      1  0.4877730000000  0.3911980000000  0.4471620000000 1.0
C      1  0.5559610000000  0.4465040000000  0.4699230000000 1.0
C      1  0.4779780000000  0.5472460000000  0.3610050000000 1.0
C      1  0.5024940000000  0.4097670000000  0.4288040000000 1.0
C      1  0.4103990000000  0.5042310000000  0.4961300000000 1.0
C      1  0.4161090000000  0.5591290000000  0.4469240000000 1.0
C      1  0.5500940000000  0.5757260000000  0.6348060000000 1.0
C      1  0.4971150000000  0.5355900000000  0.4319580000000 1.0
C      1  0.4802690000000  0.4525060000000  0.4496100000000 1.0
C      1  0.5970770000000  0.4956390000000  0.5383220000000 1.0
C      1  0.6046870000000  0.5188380000000  0.5225000000000 1.0
C      1  0.4339800000000  0.4874920000000  0.4887410000000 1.0
C      1  0.4344330000000  0.4798420000000  0.4611100000000 1.0
C      1  0.4828160000000  0.5829570000000  0.4371550000000 1.0
C      1  0.4776310000000  0.5289910000000  0.4760860000000 1.0
C      1  0.5568600000000  0.4082370000000  0.5032180000000 1.0
C      1  0.5279740000000  0.5944940000000  0.5014050000000 1.0
C      1  0.5796370000000  0.5661910000000  0.4678910000000 1.0
C      1  0.5597010000000  0.5485030000000  0.4239750000000 1.0
C      1  0.5583860000000  0.5093510000000  0.4566010000000 1.0
C      1  0.4685460000000  0.4753850000000  0.6264310000000 1.0
C      1  0.5519730000000  0.5562650000000  0.3977980000000 1.0
C      1  0.4934370000000  0.5023020000000  0.5952200000000 1.0
C      1  0.4601260000000  0.5638100000000  0.4961770000000 1.0
C      1  0.4443410000000  0.6045180000000  0.4973000000000 1.0
C      1  0.5311020000000  0.3805820000000  0.5352620000000 1.0
C      1  0.5757560000000  0.4886390000000  0.4667040000000 1.0
C      1  0.4093170000000  0.4633580000000  0.4540440000000 1.0
C      1  0.5534760000000  0.5119630000000  0.5439010000000 1.0
C      1  0.5794210000000  0.4206450000000  0.5182270000000 1.0
C      1  0.4877030000000  0.4564340000000  0.6186530000000 1.0
C      1  0.5297950000000  0.5902200000000  0.4231540000000 1.0
C      1  0.3794250000000  0.4841480000000  0.5267860000000 1.0
C      1  0.5476070000000  0.5235560000000  0.4334750000000 1.0
C      1  0.4366300000000  0.5341550000000  0.6030880000000 1.0
C      1  0.5744520000000  0.4454000000000  0.4263330000000 1.0
C      1  0.4221260000000  0.4338930000000  0.4478820000000 1.0
C      1  0.4274450000000  0.5414110000000  0.4672900000000 1.0
C      1  0.5325370000000  0.4625900000000  0.5258230000000 1.0
C      1  0.5248990000000  0.4236310000000  0.4413380000000 1.0
C      1  0.5288800000000  0.5195940000000  0.5538640000000 1.0
C      1  0.4853750000000  0.4419600000000  0.5937530000000 1.0
C      1  0.4457250000000  0.4648010000000  0.5357350000000 1.0
C      1  0.4409620000000  0.5264250000000  0.5327510000000 1.0
C      1  0.4606370000000  0.4397420000000  0.5322300000000 1.0
C      1  0.5686120000000  0.4805750000000  0.5755130000000 1.0
C      1  0.4000800000000  0.5495870000000  0.5170390000000 1.0
C      1  0.4316900000000  0.5885300000000  0.5189240000000 1.0
C      1  0.5818680000000  0.4573410000000  0.5629900000000 1.0
C      1  0.4938030000000  0.4697750000000  0.4341680000000 1.0
C      1  0.5189400000000  0.6125330000000  0.4806540000000 1.0
C      1  0.5407270000000  0.6153570000000  0.4607970000000 1.0
C      1  0.4484340000000  0.5020620000000  0.4145080000000 1.0
C      1  0.4138650000000  0.4278330000000  0.5189760000000 1.0
C      1  0.5764550000000  0.4298110000000  0.5681670000000 1.0
C      1  0.5493110000000  0.5426260000000  0.3729160000000 1.0
C      1  0.5131510000000  0.6000160000000  0.5492000000000 1.0
C      1  0.4234030000000  0.5859680000000  0.4515500000000 1.0
C      1  0.5102070000000  0.3945520000000  0.5487260000000 1.0
C      1  0.5756040000000  0.5018770000000  0.5573650000000 1.0
C      1  0.4705730000000  0.6180200000000  0.4996950000000 1.0
C      1  0.4582820000000  0.5310150000000  0.3719410000000 1.0
C      1  0.4796410000000  0.4448990000000  0.4768120000000 1.0
C      1  0.5987490000000  0.4709410000000  0.4623430000000 1.0
C      1  0.5653090000000  0.5652200000000  0.4916920000000 1.0
C      1  0.5314620000000  0.4387120000000  0.5410820000000 1.0
C      1  0.4301650000000  0.4461470000000  0.3682150000000 1.0
C      1  0.4737730000000  0.4661490000000  0.4942240000000 1.0
C      1  0.5170010000000  0.5633810000000  0.4640300000000 1.0
C      1  0.5335210000000  0.4458010000000  0.6236330000000 1.0
C      1  0.4436800000000  0.4349930000000  0.3875030000000 1.0
C      1  0.5508660000000  0.4397660000000  0.4411750000000 1.0
C      1  0.3942740000000  0.5145250000000  0.4466000000000 1.0
C      1  0.5061600000000  0.5014830000000  0.5486110000000 1.0
C      1  0.3953710000000  0.4581880000000  0.4832330000000 1.0
C      1  0.4434260000000  0.5987510000000  0.4672870000000 1.0
C      1  0.4613830000000  0.5134400000000  0.5186930000000 1.0
C      1  0.5392740000000  0.3847650000000  0.5080830000000 1.0
C      1  0.4963610000000  0.4864100000000  0.4976220000000 1.0
C      1  0.5545750000000  0.5756330000000  0.5382610000000 1.0
C      1  0.5191550000000  0.4883830000000  0.6033990000000 1.0
C      1  0.6386390000000  0.5181040000000  0.4801920000000 1.0
C      1  0.4358010000000  0.4884980000000  0.5800700000000 1.0
C      1  0.4804630000000  0.5119930000000  0.4985790000000 1.0
C      1  0.5977400000000  0.5822060000000  0.4246970000000 1.0
C      1  0.5947620000000  0.5625640000000  0.5777320000000 1.0
C      1  0.5597130000000  0.4706550000000  0.4834760000000 1.0
C      1  0.3924920000000  0.4860780000000  0.4406350000000 1.0
C      1  0.4451940000000  0.5746800000000  0.5412340000000 1.0
C      1  0.4450510000000  0.4199220000000  0.4345310000000 1.0
C      1  0.4411320000000  0.4207430000000  0.5225850000000 1.0
C      1  0.6050400000000  0.4559770000000  0.4872960000000 1.0
C      1  0.5968110000000  0.4571700000000  0.4371860000000 1.0
C      1  0.5447450000000  0.4252500000000  0.4844200000000 1.0
C      1  0.4596850000000  0.4425550000000  0.5795170000000 1.0
C      1  0.5025340000000  0.5371400000000  0.3491530000000 1.0
C      1  0.4492460000000  0.4747730000000  0.5081530000000 1.0
C      1  0.5492080000000  0.5629610000000  0.5636400000000 1.0
C      1  0.4188110000000  0.4179900000000  0.4729340000000 1.0
C      1  0.4524150000000  0.5473960000000  0.5494650000000 1.0
C      1  0.5182320000000  0.5155220000000  0.4287330000000 1.0
C      1  0.5947580000000  0.4466840000000  0.5132450000000 1.0
C      1  0.4775890000000  0.5389390000000  0.5635610000000 1.0
C      1  0.4953900000000  0.3987420000000  0.4989140000000 1.0
C      1  0.5203540000000  0.4217880000000  0.4703500000000 1.0
C      1  0.4966040000000  0.5857050000000  0.5674890000000 1.0
C      1  0.5347620000000  0.4285960000000  0.6012680000000 1.0
C      1  0.5453550000000  0.4863060000000  0.5912980000000 1.0
C      1  0.5522140000000  0.5976650000000  0.4401090000000 1.0
C      1  0.4079870000000  0.5207470000000  0.4718230000000 1.0
C      1  0.4577000000000  0.4249980000000  0.4093230000000 1.0
C      1  0.4959890000000  0.4231280000000  0.4843220000000 1.0
C      1  0.4998090000000  0.5573070000000  0.5669630000000 1.0
C      1  0.5954030000000  0.5458240000000  0.5298390000000 1.0
C      1  0.4856830000000  0.4196410000000  0.4082320000000 1.0
C      1  0.5055370000000  0.3738800000000  0.4631790000000 1.0
C      1  0.4809200000000  0.5656960000000  0.5127440000000 1.0
C      1  0.5256570000000  0.5509130000000  0.3589920000000 1.0
C      1  0.5142530000000  0.4919500000000  0.4717960000000 1.0
C      1  0.5596880000000  0.5711830000000  0.6110060000000 1.0
C      1  0.5143520000000  0.4663320000000  0.6219170000000 1.0
C      1  0.4865240000000  0.5727540000000  0.3722750000000 1.0
C      1  0.4468940000000  0.4922300000000  0.4392040000000 1.0
C      1  0.3899070000000  0.4813300000000  0.5000770000000 1.0
C      1  0.4627450000000  0.3941350000000  0.5631580000000 1.0
C      1  0.5333650000000  0.5942970000000  0.5296370000000 1.0
C      1  0.4502440000000  0.3993850000000  0.5061910000000 1.0
C      1  0.4893960000000  0.6138400000000  0.4771850000000 1.0
C      1  0.3932980000000  0.5055880000000  0.5401490000000 1.0
C      1  0.5727360000000  0.5737450000000  0.4400150000000 1.0
C      1  0.5161220000000  0.3803910000000  0.4896120000000 1.0
C      1  0.4118800000000  0.5222190000000  0.5225050000000 1.0
C      1  0.4872660000000  0.5111960000000  0.5682000000000 1.0
C      1  0.4455690000000  0.4660480000000  0.5655730000000 1.0
C      1  0.5259320000000  0.5452340000000  0.5059220000000 1.0
C      1  0.4494950000000  0.5149340000000  0.3912600000000 1.0
C      1  0.5109500000000  0.5815190000000  0.4422060000000 1.0
C      1  0.4592640000000  0.3999830000000  0.4533500000000 1.0
C      1  0.4533460000000  0.5443700000000  0.4771600000000 1.0
C      1  0.5106730000000  0.4288860000000  0.5845470000000 1.0
C      1  0.3596020000000  0.4691270000000  0.5376870000000 1.0
C      1  0.5024380000000  0.5514790000000  0.5190340000000 1.0
C      1  0.5677390000000  0.5657340000000  0.5849720000000 1.0
C      1  0.5057230000000  0.4771180000000  0.5271590000000 1.0
C      1  0.4448610000000  0.5075810000000  0.5990780000000 1.0
C      1  0.5360720000000  0.5099380000000  0.4754560000000 1.0
C      1  0.4750850000000  0.3901920000000  0.5156540000000 1.0
C      1  0.5956840000000  0.4653980000000  0.5368680000000 1.0
C      1  0.4068070000000  0.5755300000000  0.5136870000000 1.0
C      1  0.5512310000000  0.4768830000000  0.5098850000000 1.0
C      1  0.4987740000000  0.5406530000000  0.4613360000000 1.0
C      1  0.4423710000000  0.4009490000000  0.4782010000000 1.0
C      1  0.4872690000000  0.4507900000000  0.5333400000000 1.0
C      1  0.5811590000000  0.4129400000000  0.5458910000000 1.0
C      1  0.5596270000000  0.4224750000000  0.5894600000000 1.0
C      1  0.5324000000000  0.5782770000000  0.3979410000000 1.0
C      1  0.5098030000000  0.4908140000000  0.4428540000000 1.0
C      1  0.5261120000000  0.5460770000000  0.5644160000000 1.0
C      1  0.4762060000000  0.5942180000000  0.5849860000000 1.0
C      1  0.4692800000000  0.4992860000000  0.6113740000000 1.0
C      1  0.4420910000000  0.5603900000000  0.6045300000000 1.0
C      1  0.6533900000000  0.5198660000000  0.4587710000000 1.0
C      1  0.5735950000000  0.5626800000000  0.5192950000000 1.0
C      1  0.5151990000000  0.5744860000000  0.3752390000000 1.0
C      1  0.4562570000000  0.5824640000000  0.5987960000000 1.0
C      1  0.4509490000000  0.4156780000000  0.5745220000000 1.0
C      1  0.4823270000000  0.3887010000000  0.5434540000000 1.0
C      1  0.5348250000000  0.5677030000000  0.4886270000000 1.0
C      1  0.4041070000000  0.4325070000000  0.4929630000000 1.0
END
