TITL C-3623286-7563-1861 -9.07664309246658e-08 125000 -518.153763112299 0 0 84 (Ci) n - 1
REM
REM in /home/nfs/bkarasulu/CARBON/AIRSS/Generating-Clusters/LCBOP/Higher-Symm/SD-CG/FIRE-CG
REM
REM
REM
REM
REM
REM ./C.cell (b20cbc046b6831c77cfcea5457e17084)
REM AIRSS Version 0.9.1 bugfix July 2018 build 013d7b7c2542+ Fri, 06 Jul 2018 19:26:36 +0100
REM compiler GCC version 9.2.1 20190827 (Red Hat 9.2.1-1)
REM options -cpp -mtune=generic -march=x86-64 -g -O0 -fpre-include=/usr/include/finclude/math-vector-fortran.h
REM seed -1185342073 -462997778 1053179137 28854471 -1670208863 -236275349 -2061576078 -240705393 -1355865244 1464967439 2051718167 -1766653411 1571172008 696082774 2121904513 -598492388 -170737619 -1306327579 1687168088 -105613427 -604759894 -126823119 -1716931616 -89788086 626800785 1187515111 -1536869898 1245831493 -594299148 -1220900251 977842479 -6306506 -392888108
REM
CELL 1.54180   50.00000   50.00000   50.00000   90.00000   90.00000   90.00000
LATT -1
SFAC C  
C      1  0.5137170000000  0.4343700000000  0.4707410000000 1.0
C      1  0.4771290000000  0.5651640000000  0.4736840000000 1.0
C      1  0.4795720000000  0.4246300000000  0.5051240000000 1.0
C      1  0.4862830000000  0.5656300000000  0.5292590000000 1.0
C      1  0.5228710000000  0.4348360000000  0.5263160000000 1.0
C      1  0.5204280000000  0.5753700000000  0.4948760000000 1.0
C      1  0.4707350000000  0.5219800000000  0.4922420000000 1.0
C      1  0.4819910000000  0.4783610000000  0.5246380000000 1.0
C      1  0.5112760000000  0.5175820000000  0.5276830000000 1.0
C      1  0.5292650000000  0.4780200000000  0.5077580000000 1.0
C      1  0.5180090000000  0.5216390000000  0.4753620000000 1.0
C      1  0.4887240000000  0.4824180000000  0.4723170000000 1.0
C      1  0.5256720000000  0.4970760000000  0.5910880000000 1.0
C      1  0.5945210000000  0.5006950000000  0.5246340000000 1.0
C      1  0.5660640000000  0.4973670000000  0.4329930000000 1.0
C      1  0.4743280000000  0.5029240000000  0.4089120000000 1.0
C      1  0.4054790000000  0.4993050000000  0.4753660000000 1.0
C      1  0.4339360000000  0.5026330000000  0.5670070000000 1.0
C      1  0.4448340000000  0.5325960000000  0.4455120000000 1.0
C      1  0.4272800000000  0.4732900000000  0.5188550000000 1.0
C      1  0.4800320000000  0.5310150000000  0.5716250000000 1.0
C      1  0.5551660000000  0.4674040000000  0.5544880000000 1.0
C      1  0.5727200000000  0.5267100000000  0.4811450000000 1.0
C      1  0.5199680000000  0.4689850000000  0.4283750000000 1.0
C      1  0.5724100000000  0.4823920000000  0.4560230000000 1.0
C      1  0.4976560000000  0.5164820000000  0.4169310000000 1.0
C      1  0.4233480000000  0.4858580000000  0.4577500000000 1.0
C      1  0.4275900000000  0.5176080000000  0.5439770000000 1.0
C      1  0.5023440000000  0.4835180000000  0.5830690000000 1.0
C      1  0.5766520000000  0.5141420000000  0.5422500000000 1.0
C      1  0.5242320000000  0.5307030000000  0.5538170000000 1.0
C      1  0.5640520000000  0.4654880000000  0.5079670000000 1.0
C      1  0.5352250000000  0.5338430000000  0.4518160000000 1.0
C      1  0.4757680000000  0.4692970000000  0.4461830000000 1.0
C      1  0.4359480000000  0.5345120000000  0.4920330000000 1.0
C      1  0.4647750000000  0.4661570000000  0.5481840000000 1.0
C      1  0.4936620000000  0.5423770000000  0.4310370000000 1.0
C      1  0.4364690000000  0.4616440000000  0.4692890000000 1.0
C      1  0.4417670000000  0.5429300000000  0.5390000000000 1.0
C      1  0.5063380000000  0.4576230000000  0.5689630000000 1.0
C      1  0.5635310000000  0.5383560000000  0.5307110000000 1.0
C      1  0.5582330000000  0.4570700000000  0.4610000000000 1.0
C      1  0.5565540000000  0.5310720000000  0.5039940000000 1.0
C      1  0.5322430000000  0.4517420000000  0.4491670000000 1.0
C      1  0.4697070000000  0.5482400000000  0.4475730000000 1.0
C      1  0.4434460000000  0.4689280000000  0.4960060000000 1.0
C      1  0.4677570000000  0.5482580000000  0.5508330000000 1.0
C      1  0.5302930000000  0.4517600000000  0.5524270000000 1.0
C      1  0.5164220000000  0.5682110000000  0.5232140000000 1.0
C      1  0.5326030000000  0.4321520000000  0.4963560000000 1.0
C      1  0.5065930000000  0.5703420000000  0.4699350000000 1.0
C      1  0.4835780000000  0.4317890000000  0.4767860000000 1.0
C      1  0.4673970000000  0.5678480000000  0.5036440000000 1.0
C      1  0.4934070000000  0.4296580000000  0.5300650000000 1.0
C      1  0.5390520000000  0.5533290000000  0.5395520000000 1.0
C      1  0.5587290000000  0.4452270000000  0.4877550000000 1.0
C      1  0.5159520000000  0.5559880000000  0.4451990000000 1.0
C      1  0.4609480000000  0.4466710000000  0.4604480000000 1.0
C      1  0.4412710000000  0.5547730000000  0.5122450000000 1.0
C      1  0.4840480000000  0.4440120000000  0.5548010000000 1.0
C      1  0.4940670000000  0.4580430000000  0.4259610000000 1.0
C      1  0.4286440000000  0.5442030000000  0.4654940000000 1.0
C      1  0.4374010000000  0.4577210000000  0.5399770000000 1.0
C      1  0.5059330000000  0.5419570000000  0.5740390000000 1.0
C      1  0.5713560000000  0.4557970000000  0.5345060000000 1.0
C      1  0.5625990000000  0.5422790000000  0.4600230000000 1.0
C      1  0.5395120000000  0.5105570000000  0.5706580000000 1.0
C      1  0.5845790000000  0.4862280000000  0.5023050000000 1.0
C      1  0.5421680000000  0.5122170000000  0.4317100000000 1.0
C      1  0.4604880000000  0.4894430000000  0.4293420000000 1.0
C      1  0.4154210000000  0.5137720000000  0.4976950000000 1.0
C      1  0.4578320000000  0.4877830000000  0.5682900000000 1.0
C      1  0.5812080000000  0.4992530000000  0.4777430000000 1.0
C      1  0.5199200000000  0.4981570000000  0.4222630000000 1.0
C      1  0.4399490000000  0.5036820000000  0.4419040000000 1.0
C      1  0.4187920000000  0.5007470000000  0.5222570000000 1.0
C      1  0.4800800000000  0.5018430000000  0.5777370000000 1.0
C      1  0.5600510000000  0.4963180000000  0.5580960000000 1.0
C      1  0.5100890000000  0.4876190000000  0.5263900000000 1.0
C      1  0.5289550000000  0.5241830000000  0.5017050000000 1.0
C      1  0.5168460000000  0.4759930000000  0.4827380000000 1.0
C      1  0.4899110000000  0.5123810000000  0.4736100000000 1.0
C      1  0.4710450000000  0.4758170000000  0.4982950000000 1.0
C      1  0.4831540000000  0.5240070000000  0.5172620000000 1.0
END
