TITL C-3623288-6813-575 0.0112752845104577 125000 -80.8256663759985 0 0 15 (C2v) n - 1
REM
REM in /home/nfs/bkarasulu/CARBON/AIRSS/Generating-Clusters/LCBOP/Higher-Symm/SD-CG/FIRE-CG
REM
REM
REM
REM
REM
REM ./C.cell (b20cbc046b6831c77cfcea5457e17084)
REM AIRSS Version 0.9.1 bugfix July 2018 build 013d7b7c2542+ Fri, 06 Jul 2018 19:26:36 +0100
REM compiler GCC version 9.2.1 20190827 (Red Hat 9.2.1-1)
REM options -cpp -mtune=generic -march=x86-64 -g -O0 -fpre-include=/usr/include/finclude/math-vector-fortran.h
REM seed -1968963007 684490167 -675633954 -1964675472 1093993178 1677935869 -125237847 853738458 655379467 -51139475 930204536 579527593 1488938454 1903605953 -618029049 602920806 -649994469 405173851 -1565038455 -1253187558 1087243216 -1248904274 -1236226095 1439880740 387836260 128013200 453102375 -1462956042 975771645 -2069495263 890513993 -1689961126 1237309613
REM
CELL 1.54180   50.00000   50.00000   50.00000   90.00000   90.00000   90.00000
LATT -1
SFAC C  
C      1  0.5053240000000  0.4464840000000  0.4332170000000 1.0
C      1  0.4945590000000  0.5556000000000  0.4333030000000 1.0
C      1  0.4918910000000  0.5813080000000  0.5731590000000 1.0
C      1  0.5077810000000  0.4205340000000  0.5730320000000 1.0
C      1  0.5052680000000  0.4463360000000  0.5272910000000 1.0
C      1  0.4944730000000  0.5555860000000  0.5273770000000 1.0
C      1  0.4971630000000  0.5287810000000  0.4800960000000 1.0
C      1  0.5026490000000  0.4732220000000  0.4800520000000 1.0
C      1  0.5040400000000  0.4593230000000  0.4558610000000 1.0
C      1  0.4958090000000  0.5427220000000  0.4559270000000 1.0
C      1  0.4931710000000  0.5685530000000  0.5504580000000 1.0
C      1  0.5065350000000  0.4333280000000  0.5503510000000 1.0
C      1  0.5040010000000  0.4593390000000  0.5042490000000 1.0
C      1  0.4957740000000  0.5426220000000  0.5043150000000 1.0
C      1  0.4999060000000  0.5010020000000  0.4800440000000 1.0
END
