TITL C-3623289-7120-1720 189.586352856119 125000 -884.8171462983 0 0 145 (C1) n - 1
REM
REM in /home/nfs/bkarasulu/CARBON/AIRSS/Generating-Clusters/LCBOP/Higher-Symm/SD-CG/FIRE-CG
REM
REM
REM
REM
REM
REM ./C.cell (b20cbc046b6831c77cfcea5457e17084)
REM AIRSS Version 0.9.1 bugfix July 2018 build 013d7b7c2542+ Fri, 06 Jul 2018 19:26:36 +0100
REM compiler GCC version 9.2.1 20190827 (Red Hat 9.2.1-1)
REM options -cpp -mtune=generic -march=x86-64 -g -O0 -fpre-include=/usr/include/finclude/math-vector-fortran.h
REM seed 1554678293 -1825999804 -761609305 -1478733118 1574576960 -289160332 1213638969 323335062 176570885 -744521905 -1806880299 -644853582 -1703645152 1196001072 -1489473655 1795387386 -709349959 -1137345999 -576109431 -117043070 -1420317442 1122387428 -429046940 1228850808 1884534116 -1237405849 1451905665 -16970074 648106994 -287989924 -640114886 -2016155332 1588046272
REM
CELL 1.54180   50.00000   50.00000   50.00000   90.00000   90.00000   90.00000
LATT -1
SFAC C  
C      1  0.4918480000000  0.5448130000000  0.4822010000000 1.0
C      1  0.5142490000000  0.4479120000000  0.4931970000000 1.0
C      1  0.5213130000000  0.5154500000000  0.4956430000000 1.0
C      1  0.4801130000000  0.4819540000000  0.4924160000000 1.0
C      1  0.5721220000000  0.6214180000000  0.4872850000000 1.0
C      1  0.4287780000000  0.3879160000000  0.5172970000000 1.0
C      1  0.4212380000000  0.4665750000000  0.4225980000000 1.0
C      1  0.5709870000000  0.5445390000000  0.5801670000000 1.0
C      1  0.5563100000000  0.4380510000000  0.4944400000000 1.0
C      1  0.4416600000000  0.5636930000000  0.5056190000000 1.0
C      1  0.5205660000000  0.4784620000000  0.4338790000000 1.0
C      1  0.4754070000000  0.5116250000000  0.5516790000000 1.0
C      1  0.5123530000000  0.4799740000000  0.5399750000000 1.0
C      1  0.4919330000000  0.5126190000000  0.4464020000000 1.0
C      1  0.4920010000000  0.4567620000000  0.5939000000000 1.0
C      1  0.5146700000000  0.5509200000000  0.4065810000000 1.0
C      1  0.4373760000000  0.4477390000000  0.5399580000000 1.0
C      1  0.5610550000000  0.5677600000000  0.4651770000000 1.0
C      1  0.3947370000000  0.4450540000000  0.4935600000000 1.0
C      1  0.6057390000000  0.5638170000000  0.5155170000000 1.0
C      1  0.3457210000000  0.4740490000000  0.4774250000000 1.0
C      1  0.6396970000000  0.5040300000000  0.5330620000000 1.0
C      1  0.5953250000000  0.5186630000000  0.5486190000000 1.0
C      1  0.3777880000000  0.4594840000000  0.4416520000000 1.0
C      1  0.4848560000000  0.5165510000000  0.5792670000000 1.0
C      1  0.5086430000000  0.4803570000000  0.4059310000000 1.0
C      1  0.5990480000000  0.4249170000000  0.4494270000000 1.0
C      1  0.4103160000000  0.5136680000000  0.5628260000000 1.0
C      1  0.5366100000000  0.4092960000000  0.5013680000000 1.0
C      1  0.4606900000000  0.5877040000000  0.4977610000000 1.0
C      1  0.5830970000000  0.6043990000000  0.5066340000000 1.0
C      1  0.4161250000000  0.4026180000000  0.4971480000000 1.0
C      1  0.5064260000000  0.4582620000000  0.5190040000000 1.0
C      1  0.4797250000000  0.5354080000000  0.4586090000000 1.0
C      1  0.5160900000000  0.4290270000000  0.4430090000000 1.0
C      1  0.4871720000000  0.5655050000000  0.5265690000000 1.0
C      1  0.4422410000000  0.4569930000000  0.5848400000000 1.0
C      1  0.5609580000000  0.5593130000000  0.4210410000000 1.0
C      1  0.5834330000000  0.4951770000000  0.5604420000000 1.0
C      1  0.3550010000000  0.4675200000000  0.4531020000000 1.0
C      1  0.5199570000000  0.5409990000000  0.4808060000000 1.0
C      1  0.4777510000000  0.4617870000000  0.5134280000000 1.0
C      1  0.5432630000000  0.4705120000000  0.5876590000000 1.0
C      1  0.4664830000000  0.5449600000000  0.4144730000000 1.0
C      1  0.5390970000000  0.4674730000000  0.4543520000000 1.0
C      1  0.4655410000000  0.5269420000000  0.5280190000000 1.0
C      1  0.4588260000000  0.5459460000000  0.4423140000000 1.0
C      1  0.5639910000000  0.4745570000000  0.5653820000000 1.0
C      1  0.4189440000000  0.4964410000000  0.5030380000000 1.0
C      1  0.5795230000000  0.5110350000000  0.4936700000000 1.0
C      1  0.4619860000000  0.4723780000000  0.4513450000000 1.0
C      1  0.5283440000000  0.5296970000000  0.5407570000000 1.0
C      1  0.3834360000000  0.4668970000000  0.5091750000000 1.0
C      1  0.6141610000000  0.5376980000000  0.5076480000000 1.0
C      1  0.4961230000000  0.5926720000000  0.4326630000000 1.0
C      1  0.5190420000000  0.4213650000000  0.5626030000000 1.0
C      1  0.4862870000000  0.5899360000000  0.5125930000000 1.0
C      1  0.5116250000000  0.4011850000000  0.4882330000000 1.0
C      1  0.5585960000000  0.4566460000000  0.5429110000000 1.0
C      1  0.4367960000000  0.5572550000000  0.4568830000000 1.0
C      1  0.4588520000000  0.4917910000000  0.6141750000000 1.0
C      1  0.5427520000000  0.5150360000000  0.4233230000000 1.0
C      1  0.4562520000000  0.5191330000000  0.6131340000000 1.0
C      1  0.5600590000000  0.4941510000000  0.4135440000000 1.0
C      1  0.5317540000000  0.5122290000000  0.5813200000000 1.0
C      1  0.4637830000000  0.4937120000000  0.4093880000000 1.0
C      1  0.5604410000000  0.4415460000000  0.4211980000000 1.0
C      1  0.4649670000000  0.5559250000000  0.5723720000000 1.0
C      1  0.5576570000000  0.4480970000000  0.4668110000000 1.0
C      1  0.4438070000000  0.5473280000000  0.5304550000000 1.0
C      1  0.4000400000000  0.5547160000000  0.5865170000000 1.0
C      1  0.6457090000000  0.4022500000000  0.4578940000000 1.0
C      1  0.5279790000000  0.5037140000000  0.5533710000000 1.0
C      1  0.4721250000000  0.4936860000000  0.4368200000000 1.0
C      1  0.5571870000000  0.6163770000000  0.4654770000000 1.0
C      1  0.4391750000000  0.3971400000000  0.5402200000000 1.0
C      1  0.5392160000000  0.5233090000000  0.5161760000000 1.0
C      1  0.4567490000000  0.4794350000000  0.4771070000000 1.0
C      1  0.5980150000000  0.5379880000000  0.4573830000000 1.0
C      1  0.4109790000000  0.4882460000000  0.5502560000000 1.0
C      1  0.5141310000000  0.4751230000000  0.5961680000000 1.0
C      1  0.4910900000000  0.5338860000000  0.4018950000000 1.0
C      1  0.5176040000000  0.5525800000000  0.5567760000000 1.0
C      1  0.4630310000000  0.4467850000000  0.4401750000000 1.0
C      1  0.4007420000000  0.4859230000000  0.5227050000000 1.0
C      1  0.6024650000000  0.5260130000000  0.4832860000000 1.0
C      1  0.4894390000000  0.5605250000000  0.5546350000000 1.0
C      1  0.5342550000000  0.4294170000000  0.4225150000000 1.0
C      1  0.5521200000000  0.5286170000000  0.5908770000000 1.0
C      1  0.4384460000000  0.4809220000000  0.4067960000000 1.0
C      1  0.5072800000000  0.5033020000000  0.5924500000000 1.0
C      1  0.4891950000000  0.5032520000000  0.3971650000000 1.0
C      1  0.4847210000000  0.4020480000000  0.4829090000000 1.0
C      1  0.5124220000000  0.6016040000000  0.5134670000000 1.0
C      1  0.4684840000000  0.5355310000000  0.5930730000000 1.0
C      1  0.5645360000000  0.4675590000000  0.4097320000000 1.0
C      1  0.5396050000000  0.4379950000000  0.5520740000000 1.0
C      1  0.4368280000000  0.5857260000000  0.4563040000000 1.0
C      1  0.4590260000000  0.5971480000000  0.4701650000000 1.0
C      1  0.5385870000000  0.3958210000000  0.5263450000000 1.0
C      1  0.4197150000000  0.5217880000000  0.4904240000000 1.0
C      1  0.5754260000000  0.4840060000000  0.5030730000000 1.0
C      1  0.5160290000000  0.5780520000000  0.4190590000000 1.0
C      1  0.4994480000000  0.4325630000000  0.5799890000000 1.0
C      1  0.5393760000000  0.5918530000000  0.5860090000000 1.0
C      1  0.4624400000000  0.4077600000000  0.4048740000000 1.0
C      1  0.5416520000000  0.5400620000000  0.4112940000000 1.0
C      1  0.4645660000000  0.4677710000000  0.5992560000000 1.0
C      1  0.4317140000000  0.4176360000000  0.4769610000000 1.0
C      1  0.5654660000000  0.5888800000000  0.5248420000000 1.0
C      1  0.5744820000000  0.4371140000000  0.4462730000000 1.0
C      1  0.4394130000000  0.5529780000000  0.5579770000000 1.0
C      1  0.5610590000000  0.5321080000000  0.5006660000000 1.0
C      1  0.4372140000000  0.4757730000000  0.4969400000000 1.0
C      1  0.6225630000000  0.4134610000000  0.4536250000000 1.0
C      1  0.4162420000000  0.5406690000000  0.5695460000000 1.0
C      1  0.4596330000000  0.4107050000000  0.4765010000000 1.0
C      1  0.5376250000000  0.5955110000000  0.5223610000000 1.0
C      1  0.5831660000000  0.5445260000000  0.5548010000000 1.0
C      1  0.4057800000000  0.4549840000000  0.4440770000000 1.0
C      1  0.6072940000000  0.5894730000000  0.5031470000000 1.0
C      1  0.3929800000000  0.4179610000000  0.5036800000000 1.0
C      1  0.4831480000000  0.5420260000000  0.5100240000000 1.0
C      1  0.5093830000000  0.4391310000000  0.4675780000000 1.0
C      1  0.4420730000000  0.4281740000000  0.5806600000000 1.0
C      1  0.5436320000000  0.5836110000000  0.4265800000000 1.0
C      1  0.4850360000000  0.4858190000000  0.5479400000000 1.0
C      1  0.5199690000000  0.5071530000000  0.4398660000000 1.0
C      1  0.5232770000000  0.3966650000000  0.5490140000000 1.0
C      1  0.4814860000000  0.6015650000000  0.4534280000000 1.0
C      1  0.5648370000000  0.4589270000000  0.5144310000000 1.0
C      1  0.4303170000000  0.5473180000000  0.4833940000000 1.0
C      1  0.5473600000000  0.5506840000000  0.4822430000000 1.0
C      1  0.4495120000000  0.4581350000000  0.5171850000000 1.0
C      1  0.4135430000000  0.4415970000000  0.4692470000000 1.0
C      1  0.5826010000000  0.5653340000000  0.5347080000000 1.0
C      1  0.3571610000000  0.4741170000000  0.5018000000000 1.0
C      1  0.6172770000000  0.5193120000000  0.5299480000000 1.0
C      1  0.4287700000000  0.4676870000000  0.5600970000000 1.0
C      1  0.5774340000000  0.5537500000000  0.4452390000000 1.0
C      1  0.5326030000000  0.5711930000000  0.5715570000000 1.0
C      1  0.4632600000000  0.4267840000000  0.4226750000000 1.0
C      1  0.5508450000000  0.5922140000000  0.4532440000000 1.0
C      1  0.4406050000000  0.4217750000000  0.5527900000000 1.0
C      1  0.5035880000000  0.4956870000000  0.4901460000000 1.0
END
