TITL C-3623286-7563-442 3.07345348416316 125000 -1109.72459160359 0 0 181 (C1) n - 1
REM
REM in /home/nfs/bkarasulu/CARBON/AIRSS/Generating-Clusters/LCBOP/Higher-Symm/SD-CG/FIRE-CG
REM
REM
REM
REM
REM
REM ./C.cell (b20cbc046b6831c77cfcea5457e17084)
REM AIRSS Version 0.9.1 bugfix July 2018 build 013d7b7c2542+ Fri, 06 Jul 2018 19:26:36 +0100
REM compiler GCC version 9.2.1 20190827 (Red Hat 9.2.1-1)
REM options -cpp -mtune=generic -march=x86-64 -g -O0 -fpre-include=/usr/include/finclude/math-vector-fortran.h
REM seed -275052561 -284355351 655457912 842594799 -357551113 -701749388 -2074443431 -1725388298 697409741 682468682 -555240924 698966659 613509269 -890426058 -337861770 128707911 -1942128342 1183753478 -641788473 -1612954231 528706753 1821779639 106595425 -643205337 600029218 -1642835928 -1264315488 -1173301564 -405757134 -1026524543 -1639983301 95996896 -206928417
REM
CELL 1.54180   50.00000   50.00000   50.00000   90.00000   90.00000   90.00000
LATT -1
SFAC C  
C      1  0.5311020000000  0.5093810000000  0.6232560000000 1.0
C      1  0.4671830000000  0.4923710000000  0.3808250000000 1.0
C      1  0.4313430000000  0.4643180000000  0.4847690000000 1.0
C      1  0.5825150000000  0.5468020000000  0.5539150000000 1.0
C      1  0.5438480000000  0.5429700000000  0.5253520000000 1.0
C      1  0.4719830000000  0.4858660000000  0.4705360000000 1.0
C      1  0.5499040000000  0.5570460000000  0.4567460000000 1.0
C      1  0.4659620000000  0.4363390000000  0.5195150000000 1.0
C      1  0.5725530000000  0.3805800000000  0.4907420000000 1.0
C      1  0.4364770000000  0.6178880000000  0.5125460000000 1.0
C      1  0.3774170000000  0.4409820000000  0.4903620000000 1.0
C      1  0.6035120000000  0.5671310000000  0.5004560000000 1.0
C      1  0.3675480000000  0.4892340000000  0.5090470000000 1.0
C      1  0.6076120000000  0.5192640000000  0.4868820000000 1.0
C      1  0.6164350000000  0.4764360000000  0.5744300000000 1.0
C      1  0.3691440000000  0.5087540000000  0.4218440000000 1.0
C      1  0.5639620000000  0.5076780000000  0.5944730000000 1.0
C      1  0.4305790000000  0.4991520000000  0.4102050000000 1.0
C      1  0.5253550000000  0.5568650000000  0.3895500000000 1.0
C      1  0.4775140000000  0.4424830000000  0.6034350000000 1.0
C      1  0.4303430000000  0.4647100000000  0.5136340000000 1.0
C      1  0.5518530000000  0.5387580000000  0.4992430000000 1.0
C      1  0.4813950000000  0.5741540000000  0.5942660000000 1.0
C      1  0.5122250000000  0.4235950000000  0.4032070000000 1.0
C      1  0.5958320000000  0.4858580000000  0.5592740000000 1.0
C      1  0.3893920000000  0.5108540000000  0.4401010000000 1.0
C      1  0.5194510000000  0.4133490000000  0.4286520000000 1.0
C      1  0.4740870000000  0.5815550000000  0.5674930000000 1.0
C      1  0.5195570000000  0.6137030000000  0.4637990000000 1.0
C      1  0.4911720000000  0.3763870000000  0.5272070000000 1.0
C      1  0.4522480000000  0.5683130000000  0.5528820000000 1.0
C      1  0.5398880000000  0.4256210000000  0.4441670000000 1.0
C      1  0.3730200000000  0.5170340000000  0.5555720000000 1.0
C      1  0.6157990000000  0.4804940000000  0.4492680000000 1.0
C      1  0.5244520000000  0.4460600000000  0.4886490000000 1.0
C      1  0.4762610000000  0.5651560000000  0.5096900000000 1.0
C      1  0.4865320000000  0.6041620000000  0.5566760000000 1.0
C      1  0.5116560000000  0.3874480000000  0.4356540000000 1.0
C      1  0.4708980000000  0.5079490000000  0.5247620000000 1.0
C      1  0.5355990000000  0.4752140000000  0.4883770000000 1.0
C      1  0.4830010000000  0.5095650000000  0.4817170000000 1.0
C      1  0.5217560000000  0.4924230000000  0.5080810000000 1.0
C      1  0.4749610000000  0.3922970000000  0.5444850000000 1.0
C      1  0.5393490000000  0.6007720000000  0.4461060000000 1.0
C      1  0.4955480000000  0.6196470000000  0.4499580000000 1.0
C      1  0.5151440000000  0.3676360000000  0.5397680000000 1.0
C      1  0.4937940000000  0.6197310000000  0.5363880000000 1.0
C      1  0.5135940000000  0.3698950000000  0.4555900000000 1.0
C      1  0.4536290000000  0.4356300000000  0.4293810000000 1.0
C      1  0.5441750000000  0.5733870000000  0.5784330000000 1.0
C      1  0.4653430000000  0.4500320000000  0.4074400000000 1.0
C      1  0.5318650000000  0.5530620000000  0.5958990000000 1.0
C      1  0.5975440000000  0.5797640000000  0.5236950000000 1.0
C      1  0.3978190000000  0.4319000000000  0.4754240000000 1.0
C      1  0.4677050000000  0.4364140000000  0.5763610000000 1.0
C      1  0.5442610000000  0.5564190000000  0.4114530000000 1.0
C      1  0.4806320000000  0.5351000000000  0.3984250000000 1.0
C      1  0.5239900000000  0.4631860000000  0.6084920000000 1.0
C      1  0.4438590000000  0.4257030000000  0.4545560000000 1.0
C      1  0.5579930000000  0.5867380000000  0.5559230000000 1.0
C      1  0.5824090000000  0.4667140000000  0.5157020000000 1.0
C      1  0.3957810000000  0.5444970000000  0.4765400000000 1.0
C      1  0.5247250000000  0.5783530000000  0.3724950000000 1.0
C      1  0.4689820000000  0.4251870000000  0.6233260000000 1.0
C      1  0.5634010000000  0.4378940000000  0.4331060000000 1.0
C      1  0.4352950000000  0.5503970000000  0.5684640000000 1.0
C      1  0.4617060000000  0.6228620000000  0.5028990000000 1.0
C      1  0.5461630000000  0.3733110000000  0.4904530000000 1.0
C      1  0.4687960000000  0.5835000000000  0.4653350000000 1.0
C      1  0.5328390000000  0.4080430000000  0.5228730000000 1.0
C      1  0.4324200000000  0.5696840000000  0.5001610000000 1.0
C      1  0.5685080000000  0.4297150000000  0.4822850000000 1.0
C      1  0.3843220000000  0.5205480000000  0.4669790000000 1.0
C      1  0.5966750000000  0.4864520000000  0.5303190000000 1.0
C      1  0.4922250000000  0.5367350000000  0.6229630000000 1.0
C      1  0.5042100000000  0.4634680000000  0.3777900000000 1.0
C      1  0.3705810000000  0.5051330000000  0.4860000000000 1.0
C      1  0.6074250000000  0.5071950000000  0.5133120000000 1.0
C      1  0.5436190000000  0.5069530000000  0.4329190000000 1.0
C      1  0.4426530000000  0.4778400000000  0.5764080000000 1.0
C      1  0.4927210000000  0.4442300000000  0.3964940000000 1.0
C      1  0.5029310000000  0.5563730000000  0.6041350000000 1.0
C      1  0.5375510000000  0.4938200000000  0.3675190000000 1.0
C      1  0.4601230000000  0.5041980000000  0.6156810000000 1.0
C      1  0.4784390000000  0.4353460000000  0.4961190000000 1.0
C      1  0.5158320000000  0.5642530000000  0.4879040000000 1.0
C      1  0.5146900000000  0.4487920000000  0.5381170000000 1.0
C      1  0.5212030000000  0.5546010000000  0.4622830000000 1.0
C      1  0.4849970000000  0.4897480000000  0.6213840000000 1.0
C      1  0.5136000000000  0.5098470000000  0.3724510000000 1.0
C      1  0.5003560000000  0.5126210000000  0.5653360000000 1.0
C      1  0.5170860000000  0.4979530000000  0.4301160000000 1.0
C      1  0.5159700000000  0.4615860000000  0.5624330000000 1.0
C      1  0.5017430000000  0.5516080000000  0.4411360000000 1.0
C      1  0.5326430000000  0.4199200000000  0.3832560000000 1.0
C      1  0.4598570000000  0.5773800000000  0.6131420000000 1.0
C      1  0.5608590000000  0.5320240000000  0.5443000000000 1.0
C      1  0.4439460000000  0.4848010000000  0.4700680000000 1.0
C      1  0.5957890000000  0.3951660000000  0.4904190000000 1.0
C      1  0.4154300000000  0.6040210000000  0.5235210000000 1.0
C      1  0.5522730000000  0.5296270000000  0.4186860000000 1.0
C      1  0.4512330000000  0.4554990000000  0.5616690000000 1.0
C      1  0.5873880000000  0.4686440000000  0.4869720000000 1.0
C      1  0.4210870000000  0.5303520000000  0.5256890000000 1.0
C      1  0.4715130000000  0.5606650000000  0.4818100000000 1.0
C      1  0.5242440000000  0.4340330000000  0.5167010000000 1.0
C      1  0.5422190000000  0.4287160000000  0.4727250000000 1.0
C      1  0.4518010000000  0.5689170000000  0.5233260000000 1.0
C      1  0.5325530000000  0.4653090000000  0.3698100000000 1.0
C      1  0.4631750000000  0.5319750000000  0.6252880000000 1.0
C      1  0.5035340000000  0.5633160000000  0.5131020000000 1.0
C      1  0.4967430000000  0.4465910000000  0.4783330000000 1.0
C      1  0.4587890000000  0.5165940000000  0.3926900000000 1.0
C      1  0.5410910000000  0.4838800000000  0.6176280000000 1.0
C      1  0.5550600000000  0.5053870000000  0.5495180000000 1.0
C      1  0.4336870000000  0.5064730000000  0.4554290000000 1.0
C      1  0.5035200000000  0.4763300000000  0.4380250000000 1.0
C      1  0.5051240000000  0.5360150000000  0.5536110000000 1.0
C      1  0.4948260000000  0.4643530000000  0.6124540000000 1.0
C      1  0.5068710000000  0.5346070000000  0.3852810000000 1.0
C      1  0.4708460000000  0.3871010000000  0.4826430000000 1.0
C      1  0.5375600000000  0.6112800000000  0.5117250000000 1.0
C      1  0.4702400000000  0.6077310000000  0.4509250000000 1.0
C      1  0.5360100000000  0.3861950000000  0.5409140000000 1.0
C      1  0.4930000000000  0.4890360000000  0.3731660000000 1.0
C      1  0.5040340000000  0.5113560000000  0.6274350000000 1.0
C      1  0.5615220000000  0.4647790000000  0.4253110000000 1.0
C      1  0.4464730000000  0.5257280000000  0.5758710000000 1.0
C      1  0.5782240000000  0.4254460000000  0.5402360000000 1.0
C      1  0.4186300000000  0.5780390000000  0.4528830000000 1.0
C      1  0.4143720000000  0.5656740000000  0.4779960000000 1.0
C      1  0.5747410000000  0.4391780000000  0.5164310000000 1.0
C      1  0.3858630000000  0.5355080000000  0.5703310000000 1.0
C      1  0.6069090000000  0.4551990000000  0.4436910000000 1.0
C      1  0.5179930000000  0.3719070000000  0.4834990000000 1.0
C      1  0.4902480000000  0.6215670000000  0.5080390000000 1.0
C      1  0.4447090000000  0.5163680000000  0.5255870000000 1.0
C      1  0.5619610000000  0.4792780000000  0.4729360000000 1.0
C      1  0.4495360000000  0.5297140000000  0.4547310000000 1.0
C      1  0.5028950000000  0.4861880000000  0.5660670000000 1.0
C      1  0.4074560000000  0.5513220000000  0.5744280000000 1.0
C      1  0.5859850000000  0.4361680000000  0.4505090000000 1.0
C      1  0.4518920000000  0.4738270000000  0.3973540000000 1.0
C      1  0.5454260000000  0.5272070000000  0.6044790000000 1.0
C      1  0.4692660000000  0.5334320000000  0.4744610000000 1.0
C      1  0.5368030000000  0.4940340000000  0.5319930000000 1.0
C      1  0.5314560000000  0.4513520000000  0.5839410000000 1.0
C      1  0.4791040000000  0.5484310000000  0.4233940000000 1.0
C      1  0.4026260000000  0.5803260000000  0.5296870000000 1.0
C      1  0.6103470000000  0.4185580000000  0.4889010000000 1.0
C      1  0.4525400000000  0.5485780000000  0.4337730000000 1.0
C      1  0.5531790000000  0.4341680000000  0.5807560000000 1.0
C      1  0.4328480000000  0.5684660000000  0.4319620000000 1.0
C      1  0.5661650000000  0.4159990000000  0.5638150000000 1.0
C      1  0.5950760000000  0.5455230000000  0.4836850000000 1.0
C      1  0.3676800000000  0.4613880000000  0.5047160000000 1.0
C      1  0.4895840000000  0.4669300000000  0.4602070000000 1.0
C      1  0.5175180000000  0.5498170000000  0.5328070000000 1.0
C      1  0.4046980000000  0.5526190000000  0.5285080000000 1.0
C      1  0.6091010000000  0.4462490000000  0.4858590000000 1.0
C      1  0.4557460000000  0.4024660000000  0.4663650000000 1.0
C      1  0.5462570000000  0.6035630000000  0.5361600000000 1.0
C      1  0.6155140000000  0.5030520000000  0.4645040000000 1.0
C      1  0.3675030000000  0.5011190000000  0.5346760000000 1.0
C      1  0.5669710000000  0.5465370000000  0.4768910000000 1.0
C      1  0.4474030000000  0.4525530000000  0.5331260000000 1.0
C      1  0.5596010000000  0.4863030000000  0.4441920000000 1.0
C      1  0.4479000000000  0.5016670000000  0.5901050000000 1.0
C      1  0.5160580000000  0.6166180000000  0.4932760000000 1.0
C      1  0.4929540000000  0.3776510000000  0.4983060000000 1.0
C      1  0.5548450000000  0.3902230000000  0.5612010000000 1.0
C      1  0.4488720000000  0.6205450000000  0.4398190000000 1.0
C      1  0.5490330000000  0.5755660000000  0.4339980000000 1.0
C      1  0.4718530000000  0.4110180000000  0.5637710000000 1.0
C      1  0.5449160000000  0.4401980000000  0.3699110000000 1.0
C      1  0.4487470000000  0.5560410000000  0.6259420000000 1.0
C      1  0.5828830000000  0.5742800000000  0.5474250000000 1.0
C      1  0.4243000000000  0.4402250000000  0.4704190000000 1.0
C      1  0.4163540000000  0.5037710000000  0.4335440000000 1.0
C      1  0.5713710000000  0.4958670000000  0.5703060000000 1.0
C      1  0.4944360000000  0.5041910000000  0.5073610000000 1.0
END
