TITL C-3623285-6872-1914 0.0025269410754048 125000 -629.715041007651 0 0 102 (C1) n - 1
REM
REM in /home/nfs/bkarasulu/CARBON/AIRSS/Generating-Clusters/LCBOP/Higher-Symm/SD-CG/FIRE-CG
REM
REM
REM
REM
REM
REM ./C.cell (b20cbc046b6831c77cfcea5457e17084)
REM AIRSS Version 0.9.1 bugfix July 2018 build 013d7b7c2542+ Fri, 06 Jul 2018 19:26:36 +0100
REM compiler GCC version 9.2.1 20190827 (Red Hat 9.2.1-1)
REM options -cpp -mtune=generic -march=x86-64 -g -O0 -fpre-include=/usr/include/finclude/math-vector-fortran.h
REM seed -1542201101 1132348838 776775975 791137681 -289017904 336396706 -1038904112 -1217691545 -199385787 702746493 -1769346746 161614184 804782760 -1528568058 1062665456 1401982940 1954133811 -1032331571 -422375198 -425489042 771033710 1017947338 398868224 688080591 -1419732810 836282375 -561553476 -1579078289 568974248 1005177241 -1834557663 346230597 -1121376309
REM
CELL 1.54180   50.00000   50.00000   50.00000   90.00000   90.00000   90.00000
LATT -1
SFAC C  
C      1  0.5651520000000  0.4026520000000  0.5336130000000 1.0
C      1  0.4028880000000  0.5946740000000  0.5442850000000 1.0
C      1  0.5696900000000  0.4056360000000  0.4537620000000 1.0
C      1  0.3760580000000  0.5907360000000  0.4689270000000 1.0
C      1  0.3834290000000  0.6349240000000  0.5207560000000 1.0
C      1  0.5584220000000  0.3616000000000  0.5049150000000 1.0
C      1  0.3744190000000  0.6336040000000  0.4955960000000 1.0
C      1  0.5603100000000  0.3624860000000  0.4782400000000 1.0
C      1  0.4240800000000  0.5501800000000  0.5368810000000 1.0
C      1  0.5671980000000  0.4524990000000  0.5345590000000 1.0
C      1  0.3996870000000  0.5470260000000  0.4653560000000 1.0
C      1  0.5628040000000  0.4548960000000  0.4578540000000 1.0
C      1  0.5719970000000  0.4298380000000  0.4677960000000 1.0
C      1  0.3868360000000  0.5673320000000  0.4799380000000 1.0
C      1  0.5711420000000  0.4275630000000  0.5223240000000 1.0
C      1  0.4048590000000  0.5699110000000  0.5313280000000 1.0
C      1  0.4801870000000  0.4332050000000  0.4635000000000 1.0
C      1  0.5394240000000  0.5625550000000  0.4662320000000 1.0
C      1  0.4690690000000  0.4377930000000  0.5377310000000 1.0
C      1  0.5357350000000  0.5627360000000  0.5303930000000 1.0
C      1  0.4925650000000  0.4941930000000  0.6107290000000 1.0
C      1  0.5149030000000  0.5090010000000  0.6073980000000 1.0
C      1  0.5032360000000  0.4875580000000  0.3903070000000 1.0
C      1  0.5258620000000  0.5021520000000  0.3923840000000 1.0
C      1  0.5448240000000  0.5182970000000  0.4028640000000 1.0
C      1  0.4822870000000  0.4723850000000  0.3982460000000 1.0
C      1  0.5346810000000  0.5234390000000  0.5959960000000 1.0
C      1  0.4722480000000  0.4774590000000  0.6044280000000 1.0
C      1  0.5101090000000  0.4584780000000  0.4887830000000 1.0
C      1  0.4997730000000  0.5457840000000  0.4836180000000 1.0
C      1  0.5163550000000  0.4718020000000  0.5129400000000 1.0
C      1  0.4852980000000  0.5367000000000  0.5061660000000 1.0
C      1  0.5407980000000  0.4553330000000  0.4398650000000 1.0
C      1  0.4918470000000  0.5516470000000  0.4116780000000 1.0
C      1  0.5232830000000  0.4570590000000  0.5770390000000 1.0
C      1  0.4833960000000  0.5590640000000  0.5786330000000 1.0
C      1  0.6000310000000  0.5201690000000  0.4481630000000 1.0
C      1  0.4248690000000  0.4730170000000  0.4465550000000 1.0
C      1  0.5927820000000  0.5231910000000  0.5520510000000 1.0
C      1  0.4164490000000  0.4832060000000  0.5595360000000 1.0
C      1  0.4996890000000  0.4655270000000  0.5664160000000 1.0
C      1  0.5012870000000  0.5444220000000  0.5642240000000 1.0
C      1  0.5135070000000  0.4612240000000  0.4366650000000 1.0
C      1  0.5090290000000  0.5397850000000  0.4291380000000 1.0
C      1  0.6260080000000  0.5222420000000  0.5152370000000 1.0
C      1  0.4233040000000  0.4599650000000  0.5185410000000 1.0
C      1  0.6287190000000  0.5204130000000  0.4883160000000 1.0
C      1  0.4126470000000  0.4571960000000  0.4922210000000 1.0
C      1  0.5555330000000  0.5359100000000  0.4229330000000 1.0
C      1  0.4697070000000  0.4573210000000  0.4192680000000 1.0
C      1  0.5470320000000  0.5387660000000  0.5750890000000 1.0
C      1  0.4580120000000  0.4621940000000  0.5844980000000 1.0
C      1  0.5526910000000  0.5425840000000  0.4845570000000 1.0
C      1  0.4580300000000  0.4500370000000  0.4722640000000 1.0
C      1  0.5474260000000  0.5411540000000  0.5136800000000 1.0
C      1  0.4507390000000  0.4554730000000  0.5237390000000 1.0
C      1  0.4921980000000  0.4808130000000  0.5253720000000 1.0
C      1  0.5030100000000  0.5239870000000  0.5245140000000 1.0
C      1  0.4942930000000  0.4784790000000  0.4730920000000 1.0
C      1  0.5123140000000  0.5240220000000  0.4698640000000 1.0
C      1  0.4320980000000  0.4707760000000  0.5775040000000 1.0
C      1  0.5734440000000  0.5336490000000  0.5671630000000 1.0
C      1  0.4435960000000  0.4645310000000  0.4287820000000 1.0
C      1  0.5815230000000  0.5316360000000  0.4326860000000 1.0
C      1  0.4190730000000  0.5069690000000  0.5143540000000 1.0
C      1  0.5896250000000  0.4912880000000  0.5146140000000 1.0
C      1  0.4145120000000  0.5044070000000  0.4851040000000 1.0
C      1  0.5930000000000  0.4886430000000  0.4853480000000 1.0
C      1  0.4966710000000  0.4323260000000  0.4892540000000 1.0
C      1  0.5161300000000  0.5701870000000  0.4839120000000 1.0
C      1  0.4861530000000  0.4250330000000  0.5163840000000 1.0
C      1  0.5224030000000  0.5798370000000  0.5107840000000 1.0
C      1  0.6093190000000  0.5080800000000  0.4717490000000 1.0
C      1  0.4145200000000  0.4782660000000  0.4727520000000 1.0
C      1  0.6039450000000  0.5113510000000  0.5292550000000 1.0
C      1  0.4149880000000  0.4844160000000  0.5314960000000 1.0
C      1  0.5397690000000  0.5182860000000  0.4748690000000 1.0
C      1  0.4676650000000  0.4750390000000  0.4834780000000 1.0
C      1  0.5313040000000  0.5176360000000  0.5201140000000 1.0
C      1  0.4674410000000  0.4759320000000  0.5118670000000 1.0
C      1  0.3945440000000  0.6196880000000  0.5397320000000 1.0
C      1  0.5602610000000  0.3773380000000  0.5264700000000 1.0
C      1  0.3715360000000  0.6163090000000  0.4753860000000 1.0
C      1  0.5648500000000  0.3797060000000  0.4582720000000 1.0
C      1  0.5402740000000  0.4893030000000  0.5129490000000 1.0
C      1  0.4570870000000  0.5357420000000  0.5034040000000 1.0
C      1  0.5476860000000  0.4932550000000  0.4834890000000 1.0
C      1  0.4462470000000  0.5384250000000  0.4768750000000 1.0
C      1  0.5353950000000  0.5515940000000  0.4376680000000 1.0
C      1  0.4894340000000  0.4435810000000  0.4370900000000 1.0
C      1  0.5285330000000  0.5534450000000  0.5579170000000 1.0
C      1  0.4756670000000  0.4488490000000  0.5647220000000 1.0
C      1  0.4955930000000  0.5189440000000  0.5521530000000 1.0
C      1  0.4951230000000  0.4902770000000  0.5524820000000 1.0
C      1  0.5039710000000  0.5153540000000  0.4440190000000 1.0
C      1  0.5034340000000  0.4868020000000  0.4471980000000 1.0
C      1  0.4359680000000  0.5293790000000  0.5220950000000 1.0
C      1  0.5657650000000  0.4790030000000  0.5252260000000 1.0
C      1  0.4201690000000  0.5286380000000  0.4708730000000 1.0
C      1  0.5692950000000  0.4784000000000  0.4726850000000 1.0
C      1  0.5783980000000  0.4280360000000  0.4951160000000 1.0
C      1  0.3894350000000  0.5663440000000  0.5079940000000 1.0
END
