TITL C-3623285-6872-435 0.00895388518625568 125000 -439.523661492418 0 0 72 (C1) n - 1
REM
REM in /home/nfs/bkarasulu/CARBON/AIRSS/Generating-Clusters/LCBOP/Higher-Symm/SD-CG/FIRE-CG
REM
REM
REM
REM
REM
REM ./C.cell (b20cbc046b6831c77cfcea5457e17084)
REM AIRSS Version 0.9.1 bugfix July 2018 build 013d7b7c2542+ Fri, 06 Jul 2018 19:26:36 +0100
REM compiler GCC version 9.2.1 20190827 (Red Hat 9.2.1-1)
REM options -cpp -mtune=generic -march=x86-64 -g -O0 -fpre-include=/usr/include/finclude/math-vector-fortran.h
REM seed 235921001 -1398153955 1417682202 -2104475216 1809565006 325300970 -768843581 -1002018210 654475472 -326980848 -846763576 -242857747 -1367362100 14308142 -1533028724 296197626 650602934 544294794 -146642926 -2134484531 -1489969157 -412102603 455374991 -1203200342 -1889277959 -1065843731 48444200 1508807495 -1536456603 1719223512 -433906530 -221179929 1120925993
REM
CELL 1.54180   50.00000   50.00000   50.00000   90.00000   90.00000   90.00000
LATT -1
SFAC C  
C      1  0.5074670000000  0.5473430000000  0.5805550000000 1.0
C      1  0.5245370000000  0.5382810000000  0.4931820000000 1.0
C      1  0.4793180000000  0.4599460000000  0.4405270000000 1.0
C      1  0.5475300000000  0.4644530000000  0.4312210000000 1.0
C      1  0.5174360000000  0.4430750000000  0.4950870000000 1.0
C      1  0.5752090000000  0.4532760000000  0.5603180000000 1.0
C      1  0.5672190000000  0.4685310000000  0.4518450000000 1.0
C      1  0.4446700000000  0.5136230000000  0.5470120000000 1.0
C      1  0.5098660000000  0.4967120000000  0.4498610000000 1.0
C      1  0.4892700000000  0.4856350000000  0.4337140000000 1.0
C      1  0.5778750000000  0.4677310000000  0.4983920000000 1.0
C      1  0.4507730000000  0.5104690000000  0.5746680000000 1.0
C      1  0.4888540000000  0.5294820000000  0.5936520000000 1.0
C      1  0.5450500000000  0.5341090000000  0.5526140000000 1.0
C      1  0.5598180000000  0.4920790000000  0.5347840000000 1.0
C      1  0.5107140000000  0.4441750000000  0.5245610000000 1.0
C      1  0.5000580000000  0.4419360000000  0.4490080000000 1.0
C      1  0.4947450000000  0.5716620000000  0.5707120000000 1.0
C      1  0.4675240000000  0.5542070000000  0.4338370000000 1.0
C      1  0.5623610000000  0.5359290000000  0.4555480000000 1.0
C      1  0.5593150000000  0.4616290000000  0.4782020000000 1.0
C      1  0.4791850000000  0.5047490000000  0.5816660000000 1.0
C      1  0.5258660000000  0.4455950000000  0.4360130000000 1.0
C      1  0.5370690000000  0.5355590000000  0.4425080000000 1.0
C      1  0.4965560000000  0.4345170000000  0.4767780000000 1.0
C      1  0.4953410000000  0.4350170000000  0.5686250000000 1.0
C      1  0.4475040000000  0.5082060000000  0.4318700000000 1.0
C      1  0.4665460000000  0.4627210000000  0.5037410000000 1.0
C      1  0.5156230000000  0.5540010000000  0.4469580000000 1.0
C      1  0.5170740000000  0.5114470000000  0.4971880000000 1.0
C      1  0.5318220000000  0.4655060000000  0.4844440000000 1.0
C      1  0.5845050000000  0.5155990000000  0.4960000000000 1.0
C      1  0.5295770000000  0.5096260000000  0.4334320000000 1.0
C      1  0.4978980000000  0.4232330000000  0.5430340000000 1.0
C      1  0.4544350000000  0.4893010000000  0.5027430000000 1.0
C      1  0.5391550000000  0.5111400000000  0.5391990000000 1.0
C      1  0.5287630000000  0.4579570000000  0.5470240000000 1.0
C      1  0.4883930000000  0.5580860000000  0.4537360000000 1.0
C      1  0.4650810000000  0.5476700000000  0.6000490000000 1.0
C      1  0.4624220000000  0.5028130000000  0.5276540000000 1.0
C      1  0.5145710000000  0.5058900000000  0.5251140000000 1.0
C      1  0.4425390000000  0.4884590000000  0.4535670000000 1.0
C      1  0.4286600000000  0.5578560000000  0.5272610000000 1.0
C      1  0.4724240000000  0.5669620000000  0.5024140000000 1.0
C      1  0.4484450000000  0.5346890000000  0.4427480000000 1.0
C      1  0.4334640000000  0.4402860000000  0.4447420000000 1.0
C      1  0.4269550000000  0.5338860000000  0.5390040000000 1.0
C      1  0.4713050000000  0.5731810000000  0.5878960000000 1.0
C      1  0.5197020000000  0.5621490000000  0.5044850000000 1.0
C      1  0.4965160000000  0.5723480000000  0.5167950000000 1.0
C      1  0.5789520000000  0.5160710000000  0.4675560000000 1.0
C      1  0.5553170000000  0.4669930000000  0.5476810000000 1.0
C      1  0.5180330000000  0.4907090000000  0.4773300000000 1.0
C      1  0.5975880000000  0.5366260000000  0.5077440000000 1.0
C      1  0.4712590000000  0.5008780000000  0.4180070000000 1.0
C      1  0.4472730000000  0.5716640000000  0.5139220000000 1.0
C      1  0.4877780000000  0.4646650000000  0.5231680000000 1.0
C      1  0.4702980000000  0.4400530000000  0.4873180000000 1.0
C      1  0.4012840000000  0.3988510000000  0.4415490000000 1.0
C      1  0.4901740000000  0.4920570000000  0.5360650000000 1.0
C      1  0.4425630000000  0.5312720000000  0.5929900000000 1.0
C      1  0.4511520000000  0.4615660000000  0.4471810000000 1.0
C      1  0.4171770000000  0.4194620000000  0.4430360000000 1.0
C      1  0.5080800000000  0.4615320000000  0.5691140000000 1.0
C      1  0.4966100000000  0.5794870000000  0.5440030000000 1.0
C      1  0.5422240000000  0.4894350000000  0.4177200000000 1.0
C      1  0.4530450000000  0.5308570000000  0.4724710000000 1.0
C      1  0.5767190000000  0.4927290000000  0.5117540000000 1.0
C      1  0.5831890000000  0.4923170000000  0.4520180000000 1.0
C      1  0.4475940000000  0.5028200000000  0.4788910000000 1.0
C      1  0.4931530000000  0.4860820000000  0.5657420000000 1.0
C      1  0.4735320000000  0.5511420000000  0.4787560000000 1.0
END
