TITL C-3623282-6910-1882 1.69755512401574e-06 125000 -561.843257116495 0 0 100 (T23) n - 1
REM
REM in /home/nfs/bkarasulu/CARBON/AIRSS/Generating-Clusters/LCBOP/Higher-Symm/SD-CG/FIRE-CG
REM
REM
REM
REM
REM
REM ./C.cell (b20cbc046b6831c77cfcea5457e17084)
REM AIRSS Version 0.9.1 bugfix July 2018 build 013d7b7c2542+ Fri, 06 Jul 2018 19:26:36 +0100
REM compiler GCC version 9.2.1 20190827 (Red Hat 9.2.1-1)
REM options -cpp -mtune=generic -march=x86-64 -g -O0 -fpre-include=/usr/include/finclude/math-vector-fortran.h
REM seed 595153420 1889878302 -476478246 -1175696084 -1389269616 421641651 -504722655 -1084552982 -1190857117 208885991 -1609156935 -1455086779 281258136 1082549624 1572277546 -239296958 1260975532 1940989382 -106488383 -1983140115 324002152 109223633 -809651865 -149494785 1842150842 1800877761 -959649804 112849825 1210221718 848506134 405962850 -874602995 -1505986434
REM
CELL 1.54180   50.00000   50.00000   50.00000   90.00000   90.00000   90.00000
LATT -1
SFAC C  
C      1  0.4820120000000  0.4627280000000  0.5749290000000 1.0
C      1  0.4627990000000  0.5751800000000  0.4816890000000 1.0
C      1  0.5752510000000  0.4819410000000  0.4624770000000 1.0
C      1  0.5174850000000  0.5366280000000  0.5749290000000 1.0
C      1  0.4820120000000  0.5366270000000  0.4239240000000 1.0
C      1  0.5174850000000  0.4627280000000  0.4239240000000 1.0
C      1  0.5366980000000  0.4241750000000  0.4816900000000 1.0
C      1  0.4627990000000  0.4241750000000  0.5171630000000 1.0
C      1  0.5366980000000  0.5751810000000  0.5171620000000 1.0
C      1  0.4242460000000  0.5174140000000  0.4624760000000 1.0
C      1  0.5752510000000  0.5174150000000  0.5363760000000 1.0
C      1  0.4242460000000  0.4819420000000  0.5363760000000 1.0
C      1  0.4900270000000  0.5812430000000  0.5431740000000 1.0
C      1  0.5813130000000  0.5434260000000  0.4897050000000 1.0
C      1  0.5434960000000  0.4899570000000  0.5809910000000 1.0
C      1  0.5094700000000  0.4181130000000  0.5431740000000 1.0
C      1  0.4900280000000  0.4181130000000  0.4556790000000 1.0
C      1  0.5094700000000  0.5812430000000  0.4556780000000 1.0
C      1  0.4181840000000  0.4559300000000  0.4897050000000 1.0
C      1  0.5813140000000  0.4559300000000  0.5091480000000 1.0
C      1  0.4181830000000  0.5434260000000  0.5091470000000 1.0
C      1  0.4560010000000  0.5093990000000  0.5809910000000 1.0
C      1  0.5434960000000  0.5093980000000  0.4178610000000 1.0
C      1  0.4560010000000  0.4899560000000  0.4178610000000 1.0
C      1  0.4820530000000  0.5748970000000  0.4575050000000 1.0
C      1  0.5749680000000  0.4577560000000  0.4817320000000 1.0
C      1  0.4578270000000  0.4819830000000  0.5746460000000 1.0
C      1  0.5174440000000  0.4244590000000  0.4575050000000 1.0
C      1  0.4820530000000  0.4244590000000  0.5413480000000 1.0
C      1  0.5174440000000  0.5748970000000  0.5413470000000 1.0
C      1  0.4245290000000  0.5415990000000  0.4817310000000 1.0
C      1  0.5749680000000  0.5415990000000  0.5171210000000 1.0
C      1  0.4245290000000  0.4577570000000  0.5171220000000 1.0
C      1  0.5416700000000  0.5173730000000  0.5746450000000 1.0
C      1  0.4578270000000  0.5173730000000  0.4242070000000 1.0
C      1  0.5416700000000  0.4819820000000  0.4242070000000 1.0
C      1  0.5045100000000  0.4871680000000  0.5359940000000 1.0
C      1  0.4872390000000  0.5362460000000  0.5041880000000 1.0
C      1  0.5363160000000  0.5044400000000  0.4869160000000 1.0
C      1  0.4949870000000  0.5121880000000  0.5359940000000 1.0
C      1  0.5045100000000  0.5121880000000  0.4628590000000 1.0
C      1  0.4949870000000  0.4871680000000  0.4628590000000 1.0
C      1  0.5122580000000  0.4631100000000  0.5041880000000 1.0
C      1  0.4872390000000  0.4631100000000  0.4946650000000 1.0
C      1  0.5122580000000  0.5362460000000  0.4946640000000 1.0
C      1  0.4631810000000  0.4949160000000  0.4869160000000 1.0
C      1  0.5363160000000  0.4949160000000  0.5119360000000 1.0
C      1  0.4631810000000  0.5044400000000  0.5119360000000 1.0
C      1  0.4400180000000  0.4932000000000  0.4713820000000 1.0
C      1  0.4932710000000  0.4716330000000  0.4396960000000 1.0
C      1  0.4717040000000  0.4399470000000  0.4929490000000 1.0
C      1  0.5594790000000  0.5061550000000  0.4713820000000 1.0
C      1  0.4400180000000  0.5061550000000  0.5274710000000 1.0
C      1  0.5594790000000  0.4932010000000  0.5274710000000 1.0
C      1  0.5062260000000  0.5277220000000  0.4396960000000 1.0
C      1  0.4932710000000  0.5277230000000  0.5591570000000 1.0
C      1  0.5062260000000  0.4716340000000  0.5591570000000 1.0
C      1  0.5277930000000  0.5594080000000  0.4929490000000 1.0
C      1  0.4717040000000  0.5594080000000  0.5059030000000 1.0
C      1  0.5277930000000  0.4399470000000  0.5059040000000 1.0
C      1  0.5321430000000  0.4318570000000  0.5330750000000 1.0
C      1  0.4319270000000  0.5333260000000  0.5318200000000 1.0
C      1  0.5333970000000  0.5320720000000  0.4316050000000 1.0
C      1  0.4673540000000  0.5674990000000  0.5330740000000 1.0
C      1  0.5321430000000  0.5674990000000  0.4657780000000 1.0
C      1  0.4673540000000  0.4318560000000  0.4657780000000 1.0
C      1  0.5675700000000  0.4660300000000  0.5318210000000 1.0
C      1  0.4319270000000  0.4660290000000  0.4670320000000 1.0
C      1  0.5675700000000  0.5333260000000  0.4670320000000 1.0
C      1  0.4661000000000  0.4672830000000  0.4316050000000 1.0
C      1  0.5333970000000  0.4672840000000  0.5672480000000 1.0
C      1  0.4661000000000  0.5320720000000  0.5672470000000 1.0
C      1  0.5104140000000  0.4550230000000  0.3958480000000 1.0
C      1  0.4550940000000  0.3961000000000  0.5100920000000 1.0
C      1  0.3961700000000  0.5103430000000  0.4547720000000 1.0
C      1  0.4890830000000  0.5443320000000  0.3958480000000 1.0
C      1  0.5104140000000  0.5443330000000  0.6030040000000 1.0
C      1  0.4890830000000  0.4550240000000  0.6030050000000 1.0
C      1  0.5444030000000  0.6032560000000  0.5100910000000 1.0
C      1  0.4550940000000  0.6032560000000  0.4887600000000 1.0
C      1  0.5444030000000  0.3961000000000  0.4887610000000 1.0
C      1  0.6033270000000  0.4890120000000  0.4547720000000 1.0
C      1  0.3961700000000  0.4890120000000  0.5440810000000 1.0
C      1  0.6033270000000  0.5103440000000  0.5440810000000 1.0
C      1  0.4694350000000  0.4407840000000  0.5593030000000 1.0
C      1  0.4408540000000  0.5595540000000  0.4691120000000 1.0
C      1  0.5596250000000  0.4693640000000  0.4405320000000 1.0
C      1  0.5300620000000  0.5585730000000  0.5593030000000 1.0
C      1  0.4694350000000  0.5585720000000  0.4395490000000 1.0
C      1  0.5300620000000  0.4407830000000  0.4395500000000 1.0
C      1  0.5586430000000  0.4398010000000  0.4691130000000 1.0
C      1  0.4408540000000  0.4398010000000  0.5297400000000 1.0
C      1  0.5586430000000  0.5595550000000  0.5297400000000 1.0
C      1  0.4398720000000  0.5299910000000  0.4405320000000 1.0
C      1  0.5596250000000  0.5299920000000  0.5583210000000 1.0
C      1  0.4398720000000  0.4693640000000  0.5583210000000 1.0
C      1  0.4512000000000  0.5482270000000  0.5479750000000 1.0
C      1  0.5482970000000  0.4511290000000  0.5479750000000 1.0
C      1  0.5482970000000  0.5482260000000  0.4508770000000 1.0
C      1  0.4512000000000  0.4511290000000  0.4508780000000 1.0
END
