TITL C-3623286-7563-528 -7.03244536438904e-07 125000 -719.014601862385 0 0 128 (C2) n - 1
REM
REM in /home/nfs/bkarasulu/CARBON/AIRSS/Generating-Clusters/LCBOP/Higher-Symm/SD-CG/FIRE-CG
REM
REM
REM
REM
REM
REM ./C.cell (b20cbc046b6831c77cfcea5457e17084)
REM AIRSS Version 0.9.1 bugfix July 2018 build 013d7b7c2542+ Fri, 06 Jul 2018 19:26:36 +0100
REM compiler GCC version 9.2.1 20190827 (Red Hat 9.2.1-1)
REM options -cpp -mtune=generic -march=x86-64 -g -O0 -fpre-include=/usr/include/finclude/math-vector-fortran.h
REM seed 489424307 -114441910 1712067372 1460792563 -1339966950 -315101688 112587153 -599296462 56787422 -1770051027 183958308 291940135 1199905659 134862230 -1778548829 -1485611014 1121963908 -937015204 1055671702 592116278 499102277 1803299236 -866970794 22030087 1821930834 -1901197215 -126758987 1736089760 -130796664 -941277478 503290723 2026406740 1634750179
REM
CELL 1.54180   50.00000   50.00000   50.00000   90.00000   90.00000   90.00000
LATT -1
SFAC C  
C      1  0.4524150000000  0.4847650000000  0.5488160000000 1.0
C      1  0.4846280000000  0.5491010000000  0.4523000000000 1.0
C      1  0.5490820000000  0.4518420000000  0.4850390000000 1.0
C      1  0.4525130000000  0.5150510000000  0.4513790000000 1.0
C      1  0.5474290000000  0.4847650000000  0.4513040000000 1.0
C      1  0.5473300000000  0.5150510000000  0.5487410000000 1.0
C      1  0.4847590000000  0.4500870000000  0.5475660000000 1.0
C      1  0.5152150000000  0.5491010000000  0.5478200000000 1.0
C      1  0.5150840000000  0.4500870000000  0.4525540000000 1.0
C      1  0.5490430000000  0.5479050000000  0.5146750000000 1.0
C      1  0.4507610000000  0.4518420000000  0.5150810000000 1.0
C      1  0.4508000000000  0.5479050000000  0.4854450000000 1.0
C      1  0.5475680000000  0.4847770000000  0.5491890000000 1.0
C      1  0.5149970000000  0.5488240000000  0.4529560000000 1.0
C      1  0.4512530000000  0.4522700000000  0.4847530000000 1.0
C      1  0.5480200000000  0.5151210000000  0.4510040000000 1.0
C      1  0.4522750000000  0.4847770000000  0.4509310000000 1.0
C      1  0.4518230000000  0.5151210000000  0.5491160000000 1.0
C      1  0.5145260000000  0.4510100000000  0.5481350000000 1.0
C      1  0.4848460000000  0.5488240000000  0.5471640000000 1.0
C      1  0.4853170000000  0.4510100000000  0.4519840000000 1.0
C      1  0.4497470000000  0.5473980000000  0.5150670000000 1.0
C      1  0.5485900000000  0.4522700000000  0.5153660000000 1.0
C      1  0.5500960000000  0.5473980000000  0.4850530000000 1.0
C      1  0.4831750000000  0.4485570000000  0.5170610000000 1.0
C      1  0.4490010000000  0.5155110000000  0.4820920000000 1.0
C      1  0.5172610000000  0.4837750000000  0.4493250000000 1.0
C      1  0.4814100000000  0.5510760000000  0.4847020000000 1.0
C      1  0.5166680000000  0.4485570000000  0.4830590000000 1.0
C      1  0.5184330000000  0.5510760000000  0.5154180000000 1.0
C      1  0.4488620000000  0.4841770000000  0.5180260000000 1.0
C      1  0.5508420000000  0.5155110000000  0.5180280000000 1.0
C      1  0.5509810000000  0.4841770000000  0.4820930000000 1.0
C      1  0.5171010000000  0.5166550000000  0.5508970000000 1.0
C      1  0.4825830000000  0.4837750000000  0.5507950000000 1.0
C      1  0.4827430000000  0.5166550000000  0.4492230000000 1.0
C      1  0.5178220000000  0.4488910000000  0.5158040000000 1.0
C      1  0.5514690000000  0.5169690000000  0.4833030000000 1.0
C      1  0.4846540000000  0.4817450000000  0.4489910000000 1.0
C      1  0.5160670000000  0.5509200000000  0.4827660000000 1.0
C      1  0.4820210000000  0.4488910000000  0.4843160000000 1.0
C      1  0.4837760000000  0.5509200000000  0.5173540000000 1.0
C      1  0.5506430000000  0.4827290000000  0.5166060000000 1.0
C      1  0.4483740000000  0.5169690000000  0.5168160000000 1.0
C      1  0.4492000000000  0.4827290000000  0.4835130000000 1.0
C      1  0.4842160000000  0.5181290000000  0.5507390000000 1.0
C      1  0.5151900000000  0.4817450000000  0.5511290000000 1.0
C      1  0.5156270000000  0.5181290000000  0.4493810000000 1.0
C      1  0.5158630000000  0.4045910000000  0.4604260000000 1.0
C      1  0.4050260000000  0.4600470000000  0.5156300000000 1.0
C      1  0.4601570000000  0.5155450000000  0.4054440000000 1.0
C      1  0.5156910000000  0.5948860000000  0.5397300000000 1.0
C      1  0.4839800000000  0.4045910000000  0.5396940000000 1.0
C      1  0.4841520000000  0.5948860000000  0.4603900000000 1.0
C      1  0.4048320000000  0.5394800000000  0.4847010000000 1.0
C      1  0.5948170000000  0.4600460000000  0.4844900000000 1.0
C      1  0.5950110000000  0.5394800000000  0.5154190000000 1.0
C      1  0.4603320000000  0.4843270000000  0.5946930000000 1.0
C      1  0.5396870000000  0.5155450000000  0.5946760000000 1.0
C      1  0.5395120000000  0.4843270000000  0.4054270000000 1.0
C      1  0.4845560000000  0.4049760000000  0.4602930000000 1.0
C      1  0.5944880000000  0.4601180000000  0.5157700000000 1.0
C      1  0.5395140000000  0.5156080000000  0.4053130000000 1.0
C      1  0.4843820000000  0.5947520000000  0.5397020000000 1.0
C      1  0.5152870000000  0.4049760000000  0.5398270000000 1.0
C      1  0.5154610000000  0.5947520000000  0.4604180000000 1.0
C      1  0.5955140000000  0.5394650000000  0.4840740000000 1.0
C      1  0.4053550000000  0.4601180000000  0.4843500000000 1.0
C      1  0.4043290000000  0.5394660000000  0.5160460000000 1.0
C      1  0.5396150000000  0.4842860000000  0.5949510000000 1.0
C      1  0.4603290000000  0.5156080000000  0.5948070000000 1.0
C      1  0.4602280000000  0.4842860000000  0.4051690000000 1.0
C      1  0.5314440000000  0.5728600000000  0.4454300000000 1.0
C      1  0.5726340000000  0.4449670000000  0.5317440000000 1.0
C      1  0.4448850000000  0.5316420000000  0.5733410000000 1.0
C      1  0.5311590000000  0.4267460000000  0.5553010000000 1.0
C      1  0.4683990000000  0.5728600000000  0.5546900000000 1.0
C      1  0.4686840000000  0.4267460000000  0.4448180000000 1.0
C      1  0.5736780000000  0.5546610000000  0.4682240000000 1.0
C      1  0.4272090000000  0.4449670000000  0.4683760000000 1.0
C      1  0.4261650000000  0.5546610000000  0.5318960000000 1.0
C      1  0.4450530000000  0.4682350000000  0.4267430000000 1.0
C      1  0.5549580000000  0.5316420000000  0.4267790000000 1.0
C      1  0.5547900000000  0.4682350000000  0.5733770000000 1.0
C      1  0.4680360000000  0.5732550000000  0.4451170000000 1.0
C      1  0.4265860000000  0.4447410000000  0.5316490000000 1.0
C      1  0.5549260000000  0.5313880000000  0.5727840000000 1.0
C      1  0.4680780000000  0.4263720000000  0.5548090000000 1.0
C      1  0.5318080000000  0.5732550000000  0.5550030000000 1.0
C      1  0.5317650000000  0.4263720000000  0.4453110000000 1.0
C      1  0.4265420000000  0.5549360000000  0.4687800000000 1.0
C      1  0.5732570000000  0.4447400000000  0.4684700000000 1.0
C      1  0.5733020000000  0.5549360000000  0.5313400000000 1.0
C      1  0.5546740000000  0.4683340000000  0.4272290000000 1.0
C      1  0.4449180000000  0.5313880000000  0.4273360000000 1.0
C      1  0.4451690000000  0.4683340000000  0.5728910000000 1.0
C      1  0.4861980000000  0.4735290000000  0.3961920000000 1.0
C      1  0.4735000000000  0.3960130000000  0.4861910000000 1.0
C      1  0.3963540000000  0.4860760000000  0.4735190000000 1.0
C      1  0.4863290000000  0.5264470000000  0.6036560000000 1.0
C      1  0.5136450000000  0.4735290000000  0.6039280000000 1.0
C      1  0.5135140000000  0.5264470000000  0.3964640000000 1.0
C      1  0.4734920000000  0.6037980000000  0.5137790000000 1.0
C      1  0.5263430000000  0.3960130000000  0.5139290000000 1.0
C      1  0.5263510000000  0.6037980000000  0.4863410000000 1.0
C      1  0.3955680000000  0.5133380000000  0.5267020000000 1.0
C      1  0.6034890000000  0.4860760000000  0.5266010000000 1.0
C      1  0.6042750000000  0.5133380000000  0.4734180000000 1.0
C      1  0.5135940000000  0.4734680000000  0.3963640000000 1.0
C      1  0.5265010000000  0.3957710000000  0.4865220000000 1.0
C      1  0.6039870000000  0.4859270000000  0.4736180000000 1.0
C      1  0.5137340000000  0.5264830000000  0.6035950000000 1.0
C      1  0.4862490000000  0.4734680000000  0.6037560000000 1.0
C      1  0.4861090000000  0.5264840000000  0.3965250000000 1.0
C      1  0.5264710000000  0.6038560000000  0.5137380000000 1.0
C      1  0.4733420000000  0.3957710000000  0.5135970000000 1.0
C      1  0.4733720000000  0.6038560000000  0.4863820000000 1.0
C      1  0.6036810000000  0.5134690000000  0.5264280000000 1.0
C      1  0.3958560000000  0.4859270000000  0.5265020000000 1.0
C      1  0.3961630000000  0.5134690000000  0.4736920000000 1.0
C      1  0.5591180000000  0.5590310000000  0.4408800000000 1.0
C      1  0.5587790000000  0.4407250000000  0.5593440000000 1.0
C      1  0.4410640000000  0.4407250000000  0.4407760000000 1.0
C      1  0.4407250000000  0.5590310000000  0.5592400000000 1.0
C      1  0.4405220000000  0.5590320000000  0.4411810000000 1.0
C      1  0.4407000000000  0.4406790000000  0.5590890000000 1.0
C      1  0.5591430000000  0.4406790000000  0.4410310000000 1.0
C      1  0.5593210000000  0.5590320000000  0.5589390000000 1.0
END
