TITL C-3623285-6872-2011 -0.844987361729661 125000 -390.940574175226 0 0 66 (C2) n - 1
REM
REM in /home/nfs/bkarasulu/CARBON/AIRSS/Generating-Clusters/LCBOP/Higher-Symm/SD-CG/FIRE-CG
REM
REM
REM
REM
REM
REM ./C.cell (b20cbc046b6831c77cfcea5457e17084)
REM AIRSS Version 0.9.1 bugfix July 2018 build 013d7b7c2542+ Fri, 06 Jul 2018 19:26:36 +0100
REM compiler GCC version 9.2.1 20190827 (Red Hat 9.2.1-1)
REM options -cpp -mtune=generic -march=x86-64 -g -O0 -fpre-include=/usr/include/finclude/math-vector-fortran.h
REM seed 1087325906 -1800649670 -107127123 158840343 -1770914083 1425189808 -593561461 1603854675 -1891996265 1659571933 1555692160 -459660660 -1609020079 574543017 -440636614 -1425818411 505377106 -1092013128 -9963023 -192472177 -594411161 -474447158 1579127618 1609412438 491800437 1554903111 1829335026 -431868761 -17834175 -2078283052 1325691919 1144614683 -195814328
REM
CELL 1.54180   50.00000   50.00000   50.00000   90.00000   90.00000   90.00000
LATT -1
SFAC C  
C      1  0.4687180000000  0.5597420000000  0.5056450000000 1.0
C      1  0.5236360000000  0.5643610000000  0.5260140000000 1.0
C      1  0.5142150000000  0.5662610000000  0.4682850000000 1.0
C      1  0.4660970000000  0.4337030000000  0.5073290000000 1.0
C      1  0.5205400000000  0.4357200000000  0.5287040000000 1.0
C      1  0.5121990000000  0.4402230000000  0.4707170000000 1.0
C      1  0.4599390000000  0.5620840000000  0.5322060000000 1.0
C      1  0.5523940000000  0.5603310000000  0.5211710000000 1.0
C      1  0.4938750000000  0.5606860000000  0.4474560000000 1.0
C      1  0.4560070000000  0.4392870000000  0.5344870000000 1.0
C      1  0.5483310000000  0.4407070000000  0.5215250000000 1.0
C      1  0.4934810000000  0.4394000000000  0.4494560000000 1.0
C      1  0.4766420000000  0.5270830000000  0.5598860000000 1.0
C      1  0.5644150000000  0.5262120000000  0.4895290000000 1.0
C      1  0.4591050000000  0.5269440000000  0.4494170000000 1.0
C      1  0.4762250000000  0.4738630000000  0.5608070000000 1.0
C      1  0.5635040000000  0.4729910000000  0.4898380000000 1.0
C      1  0.4592120000000  0.4729060000000  0.4494100000000 1.0
C      1  0.5088130000000  0.5444590000000  0.4857500000000 1.0
C      1  0.4734660000000  0.5303440000000  0.5057730000000 1.0
C      1  0.5146360000000  0.5409470000000  0.5119590000000 1.0
C      1  0.5112800000000  0.4696280000000  0.4753340000000 1.0
C      1  0.4842770000000  0.4555290000000  0.5056910000000 1.0
C      1  0.5086650000000  0.4590950000000  0.5169010000000 1.0
C      1  0.4826420000000  0.4856150000000  0.4341850000000 1.0
C      1  0.4525170000000  0.4858180000000  0.5466870000000 1.0
C      1  0.5634860000000  0.4856350000000  0.5171530000000 1.0
C      1  0.4827660000000  0.5147690000000  0.4345130000000 1.0
C      1  0.4516450000000  0.5147150000000  0.5473840000000 1.0
C      1  0.5642690000000  0.5141230000000  0.5168430000000 1.0
C      1  0.4653880000000  0.4450650000000  0.4573270000000 1.0
C      1  0.4788510000000  0.4446610000000  0.5549330000000 1.0
C      1  0.5548540000000  0.4448770000000  0.4920860000000 1.0
C      1  0.4655020000000  0.5548090000000  0.4570720000000 1.0
C      1  0.4806220000000  0.5551880000000  0.5518540000000 1.0
C      1  0.5580770000000  0.5554060000000  0.4908060000000 1.0
C      1  0.4741620000000  0.4799800000000  0.4980320000000 1.0
C      1  0.5161130000000  0.4865890000000  0.5199560000000 1.0
C      1  0.5102290000000  0.4951860000000  0.4710180000000 1.0
C      1  0.4695060000000  0.5047770000000  0.5038810000000 1.0
C      1  0.5160920000000  0.5134700000000  0.5199330000000 1.0
C      1  0.5034930000000  0.5199790000000  0.4742920000000 1.0
C      1  0.4322260000000  0.5343340000000  0.4927860000000 1.0
C      1  0.5262280000000  0.5333350000000  0.5593150000000 1.0
C      1  0.5396080000000  0.5342280000000  0.4470170000000 1.0
C      1  0.4339040000000  0.4650420000000  0.4929110000000 1.0
C      1  0.5253140000000  0.4665100000000  0.5617210000000 1.0
C      1  0.5415380000000  0.4659500000000  0.4445480000000 1.0
C      1  0.5072840000000  0.4655550000000  0.4322900000000 1.0
C      1  0.4399080000000  0.4657350000000  0.5276110000000 1.0
C      1  0.5525020000000  0.4668100000000  0.5382010000000 1.0
C      1  0.5069520000000  0.5348490000000  0.4338320000000 1.0
C      1  0.4369890000000  0.5340110000000  0.5288550000000 1.0
C      1  0.5549500000000  0.5336380000000  0.5376950000000 1.0
C      1  0.5033650000000  0.5144880000000  0.5656500000000 1.0
C      1  0.5556260000000  0.5141970000000  0.4633990000000 1.0
C      1  0.4393010000000  0.5142420000000  0.4691340000000 1.0
C      1  0.5029380000000  0.4860000000000  0.5664000000000 1.0
C      1  0.5565330000000  0.4853000000000  0.4627450000000 1.0
C      1  0.4396380000000  0.4850880000000  0.4693760000000 1.0
C      1  0.5107680000000  0.5594010000000  0.5516750000000 1.0
C      1  0.5428970000000  0.5607110000000  0.4641560000000 1.0
C      1  0.4518780000000  0.5605000000000  0.4828650000000 1.0
C      1  0.5097380000000  0.4397830000000  0.5557870000000 1.0
C      1  0.5400170000000  0.4379160000000  0.4677380000000 1.0
C      1  0.4500160000000  0.4392110000000  0.4830460000000 1.0
END
