TITL C-3623289-7120-562 41210.6185212726 125000 -1053.57809542471 0 0 171 (C1) n - 1
REM
REM in /home/nfs/bkarasulu/CARBON/AIRSS/Generating-Clusters/LCBOP/Higher-Symm/SD-CG/FIRE-CG
REM
REM
REM
REM
REM
REM ./C.cell (b20cbc046b6831c77cfcea5457e17084)
REM AIRSS Version 0.9.1 bugfix July 2018 build 013d7b7c2542+ Fri, 06 Jul 2018 19:26:36 +0100
REM compiler GCC version 9.2.1 20190827 (Red Hat 9.2.1-1)
REM options -cpp -mtune=generic -march=x86-64 -g -O0 -fpre-include=/usr/include/finclude/math-vector-fortran.h
REM seed 1438495192 -1106313360 1868107782 842917357 1418628262 -1144307069 1384620836 212346295 1220583510 1915931839 1866503248 -1741881934 -1304301803 -868529215 271915527 378058865 734451457 590119865 -1403491206 -580177585 -779581842 1221281259 1027466591 -119652201 -602945052 1122774694 -80948867 1290360415 -538358552 -570518773 807529560 1623749726 1723569557
REM
CELL 1.54180   50.00000   50.00000   50.00000   90.00000   90.00000   90.00000
LATT -1
SFAC C  
C      1  0.4561750000000  0.4349260000000  0.4718220000000 1.0
C      1  0.4567460000000  0.5546220000000  0.4581630000000 1.0
C      1  0.4570450000000  0.5079260000000  0.5697430000000 1.0
C      1  0.4562110000000  0.4359020000000  0.5262580000000 1.0
C      1  0.4569830000000  0.5543440000000  0.5419100000000 1.0
C      1  0.4564450000000  0.5083180000000  0.4297800000000 1.0
C      1  0.4033570000000  0.5499700000000  0.5280470000000 1.0
C      1  0.4028200000000  0.4511650000000  0.5291630000000 1.0
C      1  0.4019180000000  0.4995280000000  0.4430550000000 1.0
C      1  0.4032140000000  0.5501350000000  0.4724230000000 1.0
C      1  0.4017410000000  0.4512910000000  0.4707070000000 1.0
C      1  0.4023200000000  0.4992050000000  0.5572170000000 1.0
C      1  0.4910620000000  0.4802110000000  0.5846070000000 1.0
C      1  0.4902630000000  0.4360110000000  0.4403760000000 1.0
C      1  0.4916220000000  0.5817200000000  0.4741900000000 1.0
C      1  0.4903930000000  0.4805600000000  0.4148610000000 1.0
C      1  0.4909860000000  0.4361170000000  0.5578140000000 1.0
C      1  0.4917500000000  0.5815060000000  0.5259620000000 1.0
C      1  0.5452900000000  0.5277440000000  0.5164580000000 1.0
C      1  0.5446520000000  0.4712330000000  0.5158630000000 1.0
C      1  0.5439630000000  0.5001300000000  0.4670980000000 1.0
C      1  0.5450840000000  0.5278530000000  0.4833270000000 1.0
C      1  0.5437520000000  0.4712000000000  0.4837050000000 1.0
C      1  0.5445140000000  0.4999790000000  0.5325390000000 1.0
C      1  0.5059770000000  0.5211380000000  0.5651760000000 1.0
C      1  0.5051170000000  0.4322710000000  0.4856810000000 1.0
C      1  0.5117840000000  0.5481300000000  0.4449410000000 1.0
C      1  0.5053720000000  0.5215640000000  0.4345630000000 1.0
C      1  0.5113160000000  0.4278160000000  0.5139090000000 1.0
C      1  0.5121190000000  0.5478230000000  0.5550100000000 1.0
C      1  0.4368560000000  0.5510200000000  0.5630690000000 1.0
C      1  0.4358900000000  0.4195480000000  0.5127150000000 1.0
C      1  0.4402650000000  0.5302500000000  0.4205800000000 1.0
C      1  0.4364670000000  0.5514430000000  0.4371040000000 1.0
C      1  0.4398170000000  0.4160280000000  0.4860800000000 1.0
C      1  0.4408070000000  0.5296790000000  0.5793500000000 1.0
C      1  0.5540570000000  0.3993590000000  0.5323360000000 1.0
C      1  0.5548410000000  0.5356670000000  0.3913130000000 1.0
C      1  0.5547610000000  0.5780660000000  0.5704640000000 1.0
C      1  0.5546290000000  0.3878540000000  0.4762750000000 1.0
C      1  0.5552240000000  0.5352990000000  0.6084900000000 1.0
C      1  0.5544860000000  0.5783390000000  0.4294890000000 1.0
C      1  0.4180030000000  0.4531760000000  0.4469130000000 1.0
C      1  0.4190820000000  0.5699050000000  0.4861420000000 1.0
C      1  0.4186430000000  0.4776450000000  0.5674420000000 1.0
C      1  0.4185250000000  0.4531220000000  0.5532360000000 1.0
C      1  0.4191490000000  0.5698230000000  0.5143270000000 1.0
C      1  0.4180800000000  0.4779020000000  0.4327310000000 1.0
C      1  0.4914170000000  0.3923420000000  0.5377340000000 1.0
C      1  0.4960900000000  0.5200420000000  0.3890290000000 1.0
C      1  0.4919230000000  0.5860620000000  0.5738410000000 1.0
C      1  0.4958420000000  0.3937210000000  0.4614410000000 1.0
C      1  0.4964010000000  0.5195820000000  0.6106790000000 1.0
C      1  0.4917040000000  0.5864780000000  0.4262610000000 1.0
C      1  0.4544170000000  0.5262080000000  0.4819270000000 1.0
C      1  0.4544100000000  0.5012690000000  0.5325010000000 1.0
C      1  0.4539750000000  0.4703310000000  0.4847460000000 1.0
C      1  0.4545570000000  0.5261440000000  0.5177900000000 1.0
C      1  0.4541220000000  0.5014140000000  0.4668840000000 1.0
C      1  0.4541650000000  0.4706440000000  0.5138530000000 1.0
C      1  0.5253570000000  0.4229680000000  0.6045510000000 1.0
C      1  0.5273490000000  0.4475970000000  0.3814190000000 1.0
C      1  0.5243720000000  0.6288070000000  0.5139180000000 1.0
C      1  0.5273120000000  0.4236800000000  0.3951230000000 1.0
C      1  0.5263200000000  0.4469990000000  0.6180430000000 1.0
C      1  0.5243300000000  0.6289010000000  0.4863280000000 1.0
C      1  0.5746490000000  0.5243480000000  0.4056890000000 1.0
C      1  0.5798600000000  0.5712240000000  0.5634170000000 1.0
C      1  0.5791610000000  0.4088660000000  0.5299850000000 1.0
C      1  0.5751020000000  0.5242050000000  0.5940290000000 1.0
C      1  0.5796090000000  0.5714020000000  0.4363540000000 1.0
C      1  0.5744720000000  0.4059540000000  0.4738600000000 1.0
C      1  0.5806990000000  0.5224770000000  0.4331690000000 1.0
C      1  0.5840620000000  0.5462180000000  0.5513140000000 1.0
C      1  0.5833790000000  0.4318240000000  0.5143730000000 1.0
C      1  0.5811740000000  0.5223490000000  0.5665420000000 1.0
C      1  0.5837810000000  0.5463560000000  0.4483650000000 1.0
C      1  0.5804840000000  0.4306430000000  0.4860820000000 1.0
C      1  0.4854240000000  0.5657690000000  0.4487880000000 1.0
C      1  0.4849140000000  0.5101700000000  0.5832630000000 1.0
C      1  0.4841080000000  0.4221030000000  0.4670070000000 1.0
C      1  0.4856640000000  0.5653890000000  0.5512710000000 1.0
C      1  0.4843760000000  0.5105700000000  0.4163560000000 1.0
C      1  0.4849310000000  0.4222160000000  0.5311440000000 1.0
C      1  0.5414180000000  0.4346250000000  0.5613970000000 1.0
C      1  0.5412980000000  0.4796790000000  0.4136060000000 1.0
C      1  0.5418360000000  0.5859060000000  0.5255650000000 1.0
C      1  0.5412230000000  0.4352670000000  0.4390650000000 1.0
C      1  0.5416500000000  0.4792270000000  0.5863730000000 1.0
C      1  0.5417480000000  0.5860700000000  0.4744530000000 1.0
C      1  0.5739120000000  0.5430130000000  0.4762680000000 1.0
C      1  0.5728720000000  0.4990530000000  0.5497380000000 1.0
C      1  0.5722120000000  0.4570260000000  0.4745350000000 1.0
C      1  0.5740600000000  0.5429420000000  0.5234330000000 1.0
C      1  0.5723460000000  0.4992400000000  0.4501930000000 1.0
C      1  0.5734590000000  0.4576920000000  0.5253790000000 1.0
C      1  0.4909960000000  0.5719540000000  0.5998580000000 1.0
C      1  0.4904900000000  0.3769390000000  0.5123940000000 1.0
C      1  0.5046500000000  0.5482130000000  0.3903000000000 1.0
C      1  0.4907350000000  0.5724230000000  0.4001960000000 1.0
C      1  0.5043690000000  0.3806190000000  0.4864440000000 1.0
C      1  0.5049740000000  0.5477380000000  0.6095930000000 1.0
C      1  0.5166120000000  0.4512950000000  0.5543210000000 1.0
C      1  0.5159670000000  0.4769030000000  0.4308200000000 1.0
C      1  0.5173240000000  0.5710360000000  0.5145080000000 1.0
C      1  0.5159070000000  0.4515800000000  0.4452680000000 1.0
C      1  0.5166030000000  0.4765210000000  0.5687540000000 1.0
C      1  0.5172630000000  0.5711880000000  0.4855270000000 1.0
C      1  0.3951740000000  0.4751620000000  0.5146060000000 1.0
C      1  0.3951540000000  0.5002220000000  0.4713350000000 1.0
C      1  0.3954160000000  0.5253930000000  0.5145740000000 1.0
C      1  0.3950610000000  0.4754120000000  0.4855130000000 1.0
C      1  0.3953250000000  0.4999620000000  0.5289620000000 1.0
C      1  0.3953340000000  0.5255150000000  0.4858420000000 1.0
C      1  0.5286720000000  0.6106260000000  0.4640520000000 1.0
C      1  0.5304060000000  0.4753340000000  0.6131310000000 1.0
C      1  0.5304340000000  0.4138840000000  0.4222520000000 1.0
C      1  0.5287680000000  0.6104180000000  0.5360870000000 1.0
C      1  0.5305240000000  0.4759550000000  0.3866560000000 1.0
C      1  0.5288010000000  0.4130100000000  0.5774030000000 1.0
C      1  0.5315340000000  0.3877080000000  0.4922260000000 1.0
C      1  0.5328010000000  0.5606990000000  0.4260330000000 1.0
C      1  0.5321450000000  0.5492120000000  0.6006270000000 1.0
C      1  0.5324160000000  0.4052180000000  0.5152920000000 1.0
C      1  0.5330950000000  0.5604040000000  0.5739190000000 1.0
C      1  0.5318190000000  0.5496040000000  0.3992850000000 1.0
C      1  0.5649000000000  0.4765470000000  0.4306440000000 1.0
C      1  0.5655400000000  0.5718200000000  0.5144850000000 1.0
C      1  0.5651940000000  0.4512430000000  0.5548920000000 1.0
C      1  0.5652530000000  0.4763730000000  0.5693500000000 1.0
C      1  0.5654790000000  0.5718910000000  0.4853600000000 1.0
C      1  0.5648410000000  0.4515240000000  0.4450440000000 1.0
C      1  0.4980010000000  0.4761660000000  0.4861210000000 1.0
C      1  0.4988790000000  0.5249490000000  0.4860970000000 1.0
C      1  0.4988500000000  0.4993160000000  0.5269950000000 1.0
C      1  0.4983580000000  0.4748980000000  0.5140380000000 1.0
C      1  0.4991190000000  0.5244680000000  0.5140200000000 1.0
C      1  0.4982860000000  0.5001400000000  0.4729140000000 1.0
C      1  0.4673570000000  0.5906280000000  0.4862880000000 1.0
C      1  0.4664900000000  0.4656520000000  0.5859430000000 1.0
C      1  0.4655610000000  0.4420920000000  0.4271310000000 1.0
C      1  0.4674360000000  0.5905340000000  0.5140470000000 1.0
C      1  0.4656410000000  0.4661610000000  0.4133240000000 1.0
C      1  0.4665360000000  0.4419300000000  0.5715300000000 1.0
C      1  0.4432830000000  0.4832230000000  0.4199950000000 1.0
C      1  0.4448070000000  0.5767830000000  0.5253240000000 1.0
C      1  0.4439280000000  0.4394920000000  0.5539090000000 1.0
C      1  0.4440440000000  0.4828170000000  0.5797000000000 1.0
C      1  0.4446820000000  0.5769300000000  0.4750310000000 1.0
C      1  0.4431420000000  0.4393350000000  0.4451710000000 1.0
C      1  0.5195500000000  0.5434080000000  0.4743710000000 1.0
C      1  0.5183770000000  0.4994350000000  0.5493760000000 1.0
C      1  0.5175000000000  0.4568650000000  0.4748570000000 1.0
C      1  0.5197570000000  0.5431370000000  0.5255960000000 1.0
C      1  0.5176580000000  0.4998690000000  0.4503810000000 1.0
C      1  0.5189780000000  0.4556230000000  0.5245620000000 1.0
C      1  0.5136080000000  0.4985390000000  0.3775810000000 1.0
C      1  0.5108270000000  0.6063180000000  0.5604240000000 1.0
C      1  0.5106080000000  0.3940270000000  0.5618700000000 1.0
C      1  0.5137010000000  0.4980360000000  0.6222510000000 1.0
C      1  0.5106800000000  0.6066430000000  0.4397330000000 1.0
C      1  0.5134490000000  0.3946920000000  0.4371510000000 1.0
C      1  0.4015300000000  0.4280150000000  0.4860140000000 1.0
C      1  0.4082490000000  0.5480800000000  0.4447110000000 1.0
C      1  0.4022730000000  0.5241210000000  0.5696690000000 1.0
C      1  0.4077630000000  0.4281690000000  0.5135070000000 1.0
C      1  0.4085730000000  0.5477760000000  0.5557150000000 1.0
C      1  0.4018740000000  0.5244830000000  0.4306740000000 1.0
C      1  0.5868320000000  0.4778280000000  0.4994860000000 1.0
C      1  0.5870680000000  0.5101700000000  0.4805990000000 1.0
C      1  0.5872730000000  0.5102280000000  0.5188380000000 1.0
END
