TITL C-3623283-6828-1530 43207.9264324597 125000 -1128.67931910332 0 0 183 (C1) n - 1
REM
REM in /home/nfs/bkarasulu/CARBON/AIRSS/Generating-Clusters/LCBOP/Higher-Symm/SD-CG/FIRE-CG
REM
REM
REM
REM
REM
REM ./C.cell (b20cbc046b6831c77cfcea5457e17084)
REM AIRSS Version 0.9.1 bugfix July 2018 build 013d7b7c2542+ Fri, 06 Jul 2018 19:26:36 +0100
REM compiler GCC version 9.2.1 20190827 (Red Hat 9.2.1-1)
REM options -cpp -mtune=generic -march=x86-64 -g -O0 -fpre-include=/usr/include/finclude/math-vector-fortran.h
REM seed 679716885 -649005003 -1931469272 -2090431093 1989070160 -1592809653 729744448 -505785190 -1335899734 -1286552855 740369634 -2101473774 -1897896116 -2055670979 2028955088 1648456605 1492663768 554008862 -975484940 -1831688888 168865216 865517369 -109028165 -89148590 -1220336345 -229128317 -1998141129 -411159155 -341657319 978040379 1544404457 -1353410059 454630257
REM
CELL 1.54180   50.00000   50.00000   50.00000   90.00000   90.00000   90.00000
LATT -1
SFAC C  
C      1  0.5942800000000  0.5028630000000  0.4484100000000 1.0
C      1  0.5869550000000  0.5239360000000  0.5752770000000 1.0
C      1  0.6079910000000  0.4756510000000  0.4486910000000 1.0
C      1  0.5914310000000  0.4935660000000  0.5574470000000 1.0
C      1  0.5402200000000  0.5223010000000  0.4328430000000 1.0
C      1  0.5323720000000  0.5495340000000  0.5700560000000 1.0
C      1  0.4554780000000  0.3813550000000  0.4359280000000 1.0
C      1  0.4525460000000  0.3843560000000  0.5614630000000 1.0
C      1  0.4888580000000  0.5351340000000  0.4516030000000 1.0
C      1  0.4892320000000  0.5370890000000  0.5561390000000 1.0
C      1  0.4478910000000  0.5636950000000  0.5668440000000 1.0
C      1  0.4455170000000  0.5608020000000  0.4361510000000 1.0
C      1  0.5681950000000  0.4803100000000  0.3946320000000 1.0
C      1  0.5619400000000  0.4655600000000  0.6057750000000 1.0
C      1  0.4025060000000  0.4939690000000  0.4372880000000 1.0
C      1  0.4042740000000  0.4974780000000  0.5576080000000 1.0
C      1  0.5133420000000  0.4302340000000  0.4841500000000 1.0
C      1  0.5120420000000  0.4312940000000  0.5156490000000 1.0
C      1  0.5707860000000  0.6085630000000  0.5939950000000 1.0
C      1  0.5592590000000  0.5882670000000  0.4228560000000 1.0
C      1  0.4629900000000  0.5586610000000  0.5171780000000 1.0
C      1  0.4611030000000  0.5554130000000  0.4877440000000 1.0
C      1  0.5025130000000  0.5887820000000  0.4867920000000 1.0
C      1  0.5020780000000  0.5893930000000  0.5160170000000 1.0
C      1  0.4897810000000  0.5759120000000  0.4278590000000 1.0
C      1  0.4926190000000  0.5772340000000  0.5772640000000 1.0
C      1  0.5053240000000  0.3968310000000  0.4301990000000 1.0
C      1  0.5014520000000  0.3994300000000  0.5695010000000 1.0
C      1  0.5088990000000  0.4618290000000  0.4463120000000 1.0
C      1  0.5050430000000  0.4631640000000  0.5543760000000 1.0
C      1  0.4983590000000  0.6030250000000  0.5649020000000 1.0
C      1  0.4910180000000  0.6024800000000  0.4396990000000 1.0
C      1  0.5896530000000  0.5527510000000  0.5315480000000 1.0
C      1  0.5814030000000  0.5852980000000  0.4420260000000 1.0
C      1  0.5165090000000  0.4570570000000  0.4726280000000 1.0
C      1  0.5139910000000  0.4590300000000  0.5280630000000 1.0
C      1  0.4107710000000  0.4189270000000  0.5122890000000 1.0
C      1  0.4071940000000  0.4079400000000  0.4850290000000 1.0
C      1  0.4106450000000  0.5262390000000  0.5550470000000 1.0
C      1  0.4076120000000  0.5227080000000  0.4423690000000 1.0
C      1  0.6229080000000  0.4779510000000  0.4752910000000 1.0
C      1  0.6103110000000  0.4937660000000  0.5333500000000 1.0
C      1  0.4063210000000  0.4343630000000  0.4389290000000 1.0
C      1  0.4050980000000  0.4381780000000  0.5574710000000 1.0
C      1  0.4246560000000  0.4502050000000  0.4215010000000 1.0
C      1  0.4225780000000  0.4530310000000  0.5756600000000 1.0
C      1  0.4801680000000  0.5966350000000  0.4672070000000 1.0
C      1  0.4838040000000  0.5991560000000  0.5380100000000 1.0
C      1  0.4911170000000  0.4168060000000  0.5892410000000 1.0
C      1  0.4956620000000  0.4158320000000  0.4114210000000 1.0
C      1  0.5181620000000  0.5301420000000  0.4168280000000 1.0
C      1  0.5204430000000  0.5310930000000  0.5914210000000 1.0
C      1  0.4412710000000  0.5243570000000  0.4052540000000 1.0
C      1  0.4414210000000  0.5252930000000  0.5947930000000 1.0
C      1  0.5290290000000  0.5044950000000  0.4720950000000 1.0
C      1  0.5206300000000  0.5112650000000  0.5203250000000 1.0
C      1  0.5543780000000  0.5636960000000  0.5845610000000 1.0
C      1  0.5525190000000  0.5464850000000  0.4379320000000 1.0
C      1  0.5325870000000  0.4743580000000  0.4277930000000 1.0
C      1  0.5222400000000  0.4646430000000  0.5784970000000 1.0
C      1  0.5718770000000  0.5940990000000  0.5151940000000 1.0
C      1  0.5760490000000  0.5943150000000  0.4887030000000 1.0
C      1  0.5540190000000  0.4812040000000  0.6264770000000 1.0
C      1  0.5592760000000  0.5019790000000  0.3804660000000 1.0
C      1  0.4873380000000  0.4946370000000  0.5806540000000 1.0
C      1  0.4882680000000  0.4937540000000  0.4214670000000 1.0
C      1  0.4880530000000  0.4167940000000  0.4742060000000 1.0
C      1  0.4864990000000  0.4158880000000  0.5200130000000 1.0
C      1  0.5837060000000  0.4560130000000  0.4405020000000 1.0
C      1  0.5699410000000  0.4702840000000  0.5564990000000 1.0
C      1  0.5682120000000  0.5374800000000  0.5955960000000 1.0
C      1  0.5508740000000  0.5625310000000  0.4129720000000 1.0
C      1  0.4224490000000  0.4453930000000  0.5104280000000 1.0
C      1  0.4202140000000  0.4575760000000  0.4850020000000 1.0
C      1  0.4711340000000  0.5292120000000  0.4740110000000 1.0
C      1  0.4745620000000  0.5343780000000  0.5315060000000 1.0
C      1  0.5371090000000  0.5201820000000  0.3776790000000 1.0
C      1  0.5362430000000  0.5032640000000  0.6255900000000 1.0
C      1  0.4827910000000  0.4758540000000  0.4429180000000 1.0
C      1  0.4811210000000  0.4800270000000  0.5573920000000 1.0
C      1  0.5218940000000  0.4828760000000  0.5141440000000 1.0
C      1  0.5229870000000  0.4805330000000  0.4864060000000 1.0
C      1  0.5048310000000  0.4797190000000  0.5986690000000 1.0
C      1  0.5106920000000  0.4865940000000  0.4035140000000 1.0
C      1  0.4947900000000  0.5206160000000  0.5154780000000 1.0
C      1  0.4839470000000  0.5101340000000  0.4928960000000 1.0
C      1  0.5104660000000  0.5063240000000  0.3812760000000 1.0
C      1  0.5074460000000  0.4980520000000  0.6218020000000 1.0
C      1  0.5423800000000  0.4979050000000  0.4465720000000 1.0
C      1  0.5457740000000  0.5286580000000  0.5542000000000 1.0
C      1  0.6265620000000  0.4609760000000  0.4979910000000 1.0
C      1  0.6218960000000  0.4687850000000  0.5239890000000 1.0
C      1  0.4634620000000  0.4289940000000  0.4803260000000 1.0
C      1  0.4637620000000  0.4271860000000  0.5090910000000 1.0
C      1  0.4526020000000  0.5140490000000  0.5309920000000 1.0
C      1  0.4484790000000  0.5100070000000  0.4656940000000 1.0
C      1  0.4118780000000  0.4140490000000  0.5417240000000 1.0
C      1  0.4132890000000  0.4104280000000  0.4556120000000 1.0
C      1  0.3898750000000  0.4816920000000  0.5372950000000 1.0
C      1  0.3885780000000  0.4768290000000  0.4562300000000 1.0
C      1  0.5373480000000  0.4106320000000  0.4764810000000 1.0
C      1  0.5358860000000  0.4132100000000  0.5261690000000 1.0
C      1  0.4424140000000  0.4455080000000  0.4700560000000 1.0
C      1  0.4488890000000  0.4478140000000  0.5193610000000 1.0
C      1  0.4657240000000  0.5388540000000  0.3966710000000 1.0
C      1  0.4663350000000  0.5380590000000  0.6058750000000 1.0
C      1  0.4635950000000  0.4840780000000  0.4634960000000 1.0
C      1  0.4626390000000  0.4883640000000  0.5376750000000 1.0
C      1  0.6071930000000  0.5940670000000  0.4361050000000 1.0
C      1  0.6322370000000  0.6001780000000  0.4322940000000 1.0
C      1  0.3982340000000  0.4756180000000  0.4831420000000 1.0
C      1  0.3885230000000  0.4850250000000  0.5086240000000 1.0
C      1  0.4482000000000  0.4389530000000  0.4103380000000 1.0
C      1  0.4445180000000  0.4409260000000  0.5886220000000 1.0
C      1  0.5438840000000  0.5241450000000  0.6078430000000 1.0
C      1  0.5337300000000  0.5440040000000  0.3953470000000 1.0
C      1  0.5709270000000  0.4765470000000  0.5074710000000 1.0
C      1  0.5703520000000  0.4751330000000  0.4795940000000 1.0
C      1  0.4198200000000  0.4793900000000  0.4186230000000 1.0
C      1  0.4188360000000  0.4820510000000  0.5778100000000 1.0
C      1  0.5690540000000  0.4945020000000  0.4582260000000 1.0
C      1  0.5470590000000  0.5043500000000  0.5520750000000 1.0
C      1  0.4729800000000  0.4294810000000  0.4062020000000 1.0
C      1  0.4685290000000  0.4305280000000  0.5942410000000 1.0
C      1  0.4851790000000  0.3890460000000  0.5279670000000 1.0
C      1  0.4867810000000  0.3888940000000  0.4700250000000 1.0
C      1  0.5517630000000  0.4637010000000  0.5791700000000 1.0
C      1  0.5621780000000  0.4644510000000  0.4186820000000 1.0
C      1  0.5973130000000  0.5434450000000  0.5569320000000 1.0
C      1  0.6064630000000  0.5232050000000  0.4650720000000 1.0
C      1  0.3834860000000  0.4503560000000  0.4460370000000 1.0
C      1  0.3847540000000  0.4550380000000  0.5465230000000 1.0
C      1  0.6001200000000  0.5401120000000  0.5086080000000 1.0
C      1  0.5954550000000  0.5469010000000  0.4794670000000 1.0
C      1  0.4803180000000  0.3849920000000  0.5554110000000 1.0
C      1  0.4830940000000  0.3820110000000  0.4427930000000 1.0
C      1  0.5289410000000  0.4008520000000  0.4479570000000 1.0
C      1  0.5260400000000  0.4039700000000  0.5539080000000 1.0
C      1  0.3897380000000  0.5470640000000  0.5124110000000 1.0
C      1  0.3873720000000  0.5444400000000  0.4855250000000 1.0
C      1  0.6127790000000  0.5140510000000  0.5120560000000 1.0
C      1  0.6208770000000  0.5060020000000  0.4847870000000 1.0
C      1  0.4315680000000  0.3915900000000  0.4437110000000 1.0
C      1  0.4287120000000  0.3942730000000  0.5533340000000 1.0
C      1  0.5386410000000  0.5316110000000  0.5100930000000 1.0
C      1  0.5406360000000  0.5296340000000  0.4823140000000 1.0
C      1  0.5675730000000  0.4577740000000  0.5290560000000 1.0
C      1  0.5725270000000  0.4484680000000  0.4678400000000 1.0
C      1  0.4694300000000  0.5636280000000  0.5877670000000 1.0
C      1  0.4674050000000  0.5625960000000  0.4160190000000 1.0
C      1  0.5603220000000  0.4315950000000  0.5172410000000 1.0
C      1  0.5618860000000  0.4283690000000  0.4849680000000 1.0
C      1  0.4618190000000  0.4721450000000  0.5151070000000 1.0
C      1  0.4731230000000  0.4830900000000  0.4911450000000 1.0
C      1  0.4281470000000  0.5381070000000  0.4280810000000 1.0
C      1  0.4301890000000  0.5405860000000  0.5718790000000 1.0
C      1  0.4325410000000  0.4984520000000  0.5966420000000 1.0
C      1  0.4344730000000  0.4970430000000  0.4017220000000 1.0
C      1  0.5759700000000  0.5707250000000  0.4699270000000 1.0
C      1  0.5670270000000  0.5692450000000  0.5272500000000 1.0
C      1  0.5016490000000  0.5600540000000  0.4493770000000 1.0
C      1  0.5082620000000  0.5599550000000  0.5574010000000 1.0
C      1  0.4272560000000  0.5175260000000  0.4843020000000 1.0
C      1  0.4303190000000  0.5204670000000  0.5131570000000 1.0
C      1  0.4290210000000  0.5931050000000  0.4732170000000 1.0
C      1  0.4326120000000  0.5986370000000  0.5311220000000 1.0
C      1  0.5270340000000  0.6063000000000  0.5721870000000 1.0
C      1  0.5149290000000  0.6160790000000  0.4328150000000 1.0
C      1  0.4860510000000  0.5243170000000  0.3809990000000 1.0
C      1  0.4856340000000  0.5203400000000  0.6219780000000 1.0
C      1  0.4940630000000  0.5205450000000  0.4285580000000 1.0
C      1  0.4967110000000  0.5206700000000  0.5777860000000 1.0
C      1  0.5417620000000  0.5574330000000  0.5216820000000 1.0
C      1  0.5480100000000  0.5564440000000  0.4664250000000 1.0
C      1  0.4538920000000  0.5774060000000  0.4668770000000 1.0
C      1  0.4562780000000  0.5814050000000  0.5384270000000 1.0
C      1  0.4093370000000  0.5340520000000  0.5277260000000 1.0
C      1  0.4051550000000  0.5292660000000  0.4700410000000 1.0
C      1  0.5400320000000  0.6090340000000  0.4253560000000 1.0
C      1  0.5507600000000  0.5926920000000  0.5836790000000 1.0
C      1  0.5202310000000  0.5710320000000  0.4693060000000 1.0
C      1  0.5179780000000  0.5699630000000  0.5304180000000 1.0
C      1  0.5367100000000  0.3923120000000  0.5021590000000 1.0
END
