TITL C-3623282-6910-247 -2.05744465015825e-07 125000 -1074.73613740823 0 0 178 (C1) n - 1
REM
REM in /home/nfs/bkarasulu/CARBON/AIRSS/Generating-Clusters/LCBOP/Higher-Symm/SD-CG/FIRE-CG
REM
REM
REM
REM
REM
REM ./C.cell (b20cbc046b6831c77cfcea5457e17084)
REM AIRSS Version 0.9.1 bugfix July 2018 build 013d7b7c2542+ Fri, 06 Jul 2018 19:26:36 +0100
REM compiler GCC version 9.2.1 20190827 (Red Hat 9.2.1-1)
REM options -cpp -mtune=generic -march=x86-64 -g -O0 -fpre-include=/usr/include/finclude/math-vector-fortran.h
REM seed 1424426672 320539217 1153238366 -427869212 -1544723088 634402581 373348108 -1289763443 -461087300 896801723 499973994 -704607684 -1864704195 1746396342 -2080989805 1229141886 1179070177 2068517976 -1342426955 -1794225905 -1434815229 31064063 -1431863809 1910306716 -1813759089 1325310153 -1491291204 -1962118862 1762679114 -2020002717 -1299712203 1293118708 -2006549247
REM
CELL 1.54180   50.00000   50.00000   50.00000   90.00000   90.00000   90.00000
LATT -1
SFAC C  
C      1  0.5332440000000  0.5906160000000  0.4283970000000 1.0
C      1  0.5391460000000  0.4077270000000  0.5722290000000 1.0
C      1  0.4793700000000  0.5840970000000  0.5684520000000 1.0
C      1  0.4681360000000  0.4089320000000  0.4276570000000 1.0
C      1  0.5363240000000  0.4249460000000  0.5937600000000 1.0
C      1  0.5222570000000  0.5670230000000  0.4163920000000 1.0
C      1  0.4646140000000  0.5739110000000  0.5905450000000 1.0
C      1  0.4777540000000  0.4332160000000  0.4171640000000 1.0
C      1  0.4346810000000  0.4752270000000  0.4911640000000 1.0
C      1  0.4466510000000  0.5239190000000  0.5063550000000 1.0
C      1  0.5514030000000  0.4889120000000  0.5129650000000 1.0
C      1  0.5552740000000  0.5374090000000  0.4969160000000 1.0
C      1  0.4355860000000  0.4776520000000  0.4616020000000 1.0
C      1  0.4352790000000  0.4989760000000  0.5109460000000 1.0
C      1  0.5604770000000  0.5096460000000  0.4964250000000 1.0
C      1  0.5610570000000  0.4884610000000  0.5402780000000 1.0
C      1  0.4625650000000  0.4108850000000  0.4565640000000 1.0
C      1  0.4649430000000  0.5875980000000  0.5420800000000 1.0
C      1  0.5426960000000  0.4124910000000  0.5422870000000 1.0
C      1  0.5459800000000  0.5884840000000  0.4557660000000 1.0
C      1  0.4590330000000  0.4577600000000  0.4154910000000 1.0
C      1  0.4550430000000  0.5457050000000  0.5882390000000 1.0
C      1  0.5399360000000  0.5419970000000  0.4102470000000 1.0
C      1  0.5366300000000  0.4552780000000  0.5932280000000 1.0
C      1  0.4230500000000  0.5602720000000  0.4242340000000 1.0
C      1  0.4240900000000  0.4382090000000  0.5785480000000 1.0
C      1  0.5748330000000  0.5615170000000  0.5836200000000 1.0
C      1  0.5746810000000  0.4356280000000  0.4113470000000 1.0
C      1  0.4277460000000  0.4186130000000  0.5604190000000 1.0
C      1  0.4254240000000  0.5806870000000  0.4417210000000 1.0
C      1  0.5783420000000  0.5790980000000  0.5634290000000 1.0
C      1  0.5752190000000  0.4171030000000  0.4312290000000 1.0
C      1  0.4489850000000  0.4586640000000  0.4452650000000 1.0
C      1  0.4585180000000  0.5407180000000  0.5577360000000 1.0
C      1  0.5332820000000  0.4592840000000  0.5633670000000 1.0
C      1  0.5494050000000  0.5376960000000  0.4389280000000 1.0
C      1  0.4652270000000  0.4415610000000  0.4608950000000 1.0
C      1  0.4639360000000  0.5577090000000  0.5348550000000 1.0
C      1  0.5600890000000  0.5609340000000  0.4519590000000 1.0
C      1  0.5379490000000  0.4425040000000  0.5409540000000 1.0
C      1  0.5667570000000  0.4826240000000  0.4356870000000 1.0
C      1  0.5574000000000  0.5161090000000  0.5539580000000 1.0
C      1  0.4384700000000  0.4873490000000  0.5476790000000 1.0
C      1  0.4360120000000  0.5062440000000  0.4506910000000 1.0
C      1  0.5642920000000  0.4443610000000  0.4769110000000 1.0
C      1  0.5725750000000  0.5561440000000  0.5095080000000 1.0
C      1  0.4416480000000  0.5505220000000  0.4871110000000 1.0
C      1  0.4398140000000  0.4489570000000  0.5112200000000 1.0
C      1  0.4646380000000  0.5442320000000  0.4659740000000 1.0
C      1  0.4689870000000  0.4583380000000  0.5204700000000 1.0
C      1  0.5144590000000  0.5426610000000  0.5189750000000 1.0
C      1  0.5401190000000  0.4536040000000  0.4635180000000 1.0
C      1  0.4671920000000  0.4783290000000  0.5430310000000 1.0
C      1  0.4620740000000  0.5160470000000  0.4632340000000 1.0
C      1  0.5259660000000  0.5256820000000  0.5429280000000 1.0
C      1  0.5436610000000  0.4785160000000  0.4512980000000 1.0
C      1  0.4389920000000  0.5407300000000  0.4113840000000 1.0
C      1  0.4388270000000  0.4590940000000  0.5906520000000 1.0
C      1  0.5559960000000  0.5436830000000  0.5951510000000 1.0
C      1  0.5585320000000  0.4550700000000  0.3976180000000 1.0
C      1  0.4463330000000  0.4094710000000  0.5412470000000 1.0
C      1  0.4445830000000  0.5918580000000  0.4594790000000 1.0
C      1  0.5631860000000  0.5924240000000  0.5434840000000 1.0
C      1  0.5596800000000  0.4044090000000  0.4518470000000 1.0
C      1  0.5319790000000  0.5879400000000  0.5067920000000 1.0
C      1  0.5316840000000  0.4069750000000  0.4918920000000 1.0
C      1  0.4768790000000  0.5898330000000  0.4950640000000 1.0
C      1  0.4743000000000  0.4051890000000  0.5021760000000 1.0
C      1  0.5251870000000  0.5059410000000  0.5974110000000 1.0
C      1  0.5274070000000  0.4919660000000  0.4046880000000 1.0
C      1  0.4687180000000  0.4995390000000  0.5978690000000 1.0
C      1  0.4722090000000  0.5061800000000  0.4138770000000 1.0
C      1  0.3920910000000  0.5466510000000  0.5308000000000 1.0
C      1  0.3789940000000  0.4522310000000  0.4868740000000 1.0
C      1  0.6220910000000  0.5332770000000  0.4784270000000 1.0
C      1  0.5954620000000  0.4581210000000  0.5246580000000 1.0
C      1  0.3896810000000  0.5241780000000  0.5469550000000 1.0
C      1  0.3809240000000  0.4743470000000  0.4715670000000 1.0
C      1  0.5870890000000  0.4769320000000  0.5443790000000 1.0
C      1  0.6230560000000  0.5190240000000  0.4557140000000 1.0
C      1  0.4742570000000  0.4052540000000  0.5494140000000 1.0
C      1  0.4716830000000  0.5976850000000  0.4485840000000 1.0
C      1  0.5314880000000  0.3988140000000  0.4442720000000 1.0
C      1  0.5370400000000  0.6017760000000  0.5524110000000 1.0
C      1  0.4642180000000  0.5501130000000  0.3995590000000 1.0
C      1  0.4652140000000  0.4515330000000  0.6014250000000 1.0
C      1  0.5311430000000  0.4464660000000  0.3916590000000 1.0
C      1  0.5293400000000  0.5539500000000  0.6026030000000 1.0
C      1  0.4937260000000  0.4411220000000  0.5236300000000 1.0
C      1  0.4920330000000  0.5560580000000  0.4594530000000 1.0
C      1  0.5128850000000  0.4406930000000  0.4581390000000 1.0
C      1  0.5038450000000  0.5689720000000  0.5581130000000 1.0
C      1  0.4987790000000  0.5542560000000  0.4293850000000 1.0
C      1  0.4862370000000  0.4713030000000  0.5656050000000 1.0
C      1  0.5035480000000  0.4437920000000  0.4282000000000 1.0
C      1  0.5069780000000  0.5377860000000  0.5640700000000 1.0
C      1  0.6119090000000  0.5272180000000  0.5037170000000 1.0
C      1  0.6024500000000  0.4722790000000  0.4999430000000 1.0
C      1  0.3946000000000  0.5396010000000  0.5029390000000 1.0
C      1  0.3896440000000  0.4434320000000  0.5100430000000 1.0
C      1  0.6036200000000  0.5011160000000  0.5410900000000 1.0
C      1  0.6123490000000  0.4962640000000  0.4465800000000 1.0
C      1  0.3917820000000  0.4993020000000  0.5316640000000 1.0
C      1  0.3911240000000  0.4999920000000  0.4764740000000 1.0
C      1  0.5221700000000  0.4033670000000  0.5200000000000 1.0
C      1  0.5232700000000  0.5898690000000  0.4778950000000 1.0
C      1  0.4843580000000  0.4021700000000  0.4753020000000 1.0
C      1  0.4864660000000  0.5959800000000  0.5218560000000 1.0
C      1  0.5174410000000  0.5200120000000  0.4033600000000 1.0
C      1  0.5152550000000  0.4777800000000  0.6028270000000 1.0
C      1  0.4807770000000  0.4794120000000  0.4082280000000 1.0
C      1  0.4765690000000  0.5247770000000  0.5998240000000 1.0
C      1  0.5296320000000  0.5238910000000  0.4537460000000 1.0
C      1  0.5128500000000  0.4778360000000  0.5578240000000 1.0
C      1  0.4809450000000  0.5230440000000  0.5560140000000 1.0
C      1  0.4991820000000  0.4876790000000  0.4614370000000 1.0
C      1  0.5200650000000  0.4521710000000  0.5200930000000 1.0
C      1  0.5150040000000  0.5405270000000  0.4711570000000 1.0
C      1  0.4854890000000  0.5458580000000  0.5172950000000 1.0
C      1  0.4902170000000  0.4556690000000  0.4707350000000 1.0
C      1  0.4881260000000  0.5323260000000  0.4101960000000 1.0
C      1  0.4846670000000  0.4739120000000  0.5960080000000 1.0
C      1  0.5080600000000  0.5320580000000  0.5945460000000 1.0
C      1  0.5104680000000  0.4657960000000  0.4070500000000 1.0
C      1  0.4928620000000  0.4107870000000  0.5256700000000 1.0
C      1  0.4930980000000  0.5858440000000  0.4692110000000 1.0
C      1  0.5148670000000  0.5893650000000  0.5343290000000 1.0
C      1  0.5128960000000  0.4102550000000  0.4671770000000 1.0
C      1  0.4295380000000  0.5957920000000  0.5098960000000 1.0
C      1  0.4272590000000  0.4032660000000  0.4908390000000 1.0
C      1  0.5757170000000  0.6034140000000  0.4936990000000 1.0
C      1  0.5777290000000  0.4044130000000  0.5048520000000 1.0
C      1  0.4202430000000  0.5097650000000  0.5911650000000 1.0
C      1  0.4260900000000  0.4916570000000  0.4029680000000 1.0
C      1  0.5713850000000  0.4926870000000  0.5981360000000 1.0
C      1  0.5715720000000  0.5077510000000  0.3917690000000 1.0
C      1  0.5614710000000  0.4141110000000  0.4817760000000 1.0
C      1  0.5631540000000  0.5846910000000  0.5137560000000 1.0
C      1  0.4449300000000  0.4164800000000  0.5109510000000 1.0
C      1  0.4461680000000  0.5822450000000  0.4890760000000 1.0
C      1  0.5589760000000  0.4847610000000  0.4063020000000 1.0
C      1  0.5543210000000  0.5143140000000  0.5859790000000 1.0
C      1  0.4410100000000  0.5113890000000  0.4201540000000 1.0
C      1  0.4381150000000  0.4887420000000  0.5806370000000 1.0
C      1  0.4360750000000  0.4008790000000  0.4651300000000 1.0
C      1  0.4390810000000  0.5996760000000  0.5353180000000 1.0
C      1  0.5692540000000  0.4042670000000  0.5308360000000 1.0
C      1  0.5673940000000  0.6060210000000  0.4677290000000 1.0
C      1  0.4351850000000  0.4659530000000  0.3995500000000 1.0
C      1  0.4280620000000  0.5356100000000  0.5959460000000 1.0
C      1  0.5624250000000  0.5336960000000  0.3923170000000 1.0
C      1  0.5628340000000  0.4671630000000  0.6025010000000 1.0
C      1  0.5878690000000  0.4635070000000  0.4760160000000 1.0
C      1  0.5943880000000  0.5427350000000  0.5216040000000 1.0
C      1  0.4117530000000  0.4521670000000  0.5254990000000 1.0
C      1  0.4124760000000  0.5429540000000  0.4798440000000 1.0
C      1  0.5907250000000  0.4789830000000  0.4509630000000 1.0
C      1  0.5872050000000  0.5267870000000  0.5454100000000 1.0
C      1  0.4103680000000  0.5182530000000  0.4631080000000 1.0
C      1  0.4099370000000  0.4776800000000  0.5397230000000 1.0
C      1  0.5314380000000  0.6011570000000  0.5806690000000 1.0
C      1  0.5255290000000  0.4007200000000  0.4163330000000 1.0
C      1  0.4736790000000  0.5965340000000  0.4201960000000 1.0
C      1  0.4801280000000  0.4086550000000  0.5767620000000 1.0
C      1  0.5265950000000  0.5822150000000  0.5996890000000 1.0
C      1  0.5261880000000  0.4182530000000  0.3954170000000 1.0
C      1  0.4747890000000  0.4251800000000  0.5973660000000 1.0
C      1  0.4690000000000  0.5784610000000  0.4003590000000 1.0
C      1  0.5281240000000  0.5435330000000  0.4953460000000 1.0
C      1  0.5246880000000  0.4797220000000  0.5136590000000 1.0
C      1  0.4761080000000  0.5181830000000  0.5084000000000 1.0
C      1  0.4770060000000  0.4722190000000  0.4953820000000 1.0
C      1  0.5127660000000  0.4972200000000  0.5351140000000 1.0
C      1  0.5236400000000  0.4970610000000  0.4540030000000 1.0
C      1  0.4829410000000  0.5034260000000  0.5331770000000 1.0
C      1  0.4800080000000  0.5017910000000  0.4828440000000 1.0
C      1  0.6119540000000  0.4991000000000  0.5116220000000 1.0
C      1  0.3878260000000  0.5097530000000  0.5036060000000 1.0
END
