TITL C-3623285-6872-1703 16150.9785776259 125000 -1179.67209990271 0 0 200 (C1) n - 1
REM
REM in /home/nfs/bkarasulu/CARBON/AIRSS/Generating-Clusters/LCBOP/Higher-Symm/SD-CG/FIRE-CG
REM
REM
REM
REM
REM
REM ./C.cell (b20cbc046b6831c77cfcea5457e17084)
REM AIRSS Version 0.9.1 bugfix July 2018 build 013d7b7c2542+ Fri, 06 Jul 2018 19:26:36 +0100
REM compiler GCC version 9.2.1 20190827 (Red Hat 9.2.1-1)
REM options -cpp -mtune=generic -march=x86-64 -g -O0 -fpre-include=/usr/include/finclude/math-vector-fortran.h
REM seed -796813806 -1938464618 -38552384 1454764523 -1583980205 -1292081342 742075943 512737575 -1879518436 1023464637 1412008295 -787299401 -711413710 -1460312990 1862036211 -1649481238 -1682924662 482318112 626647569 570556726 1609112137 274856390 417643391 2021582986 -105464488 -130599779 1828078748 1989286149 1633628499 1325008313 802068304 -186454053 -1623078707
REM
CELL 1.54180   50.00000   50.00000   50.00000   90.00000   90.00000   90.00000
LATT -1
SFAC C  
C      1  0.5114430000000  0.5440110000000  0.6143560000000 1.0
C      1  0.4931640000000  0.5422950000000  0.3913340000000 1.0
C      1  0.5198700000000  0.4621530000000  0.3927120000000 1.0
C      1  0.4820230000000  0.4518330000000  0.6163830000000 1.0
C      1  0.6188070000000  0.5417090000000  0.5164260000000 1.0
C      1  0.3912770000000  0.5460150000000  0.4855290000000 1.0
C      1  0.3841030000000  0.4502650000000  0.5090070000000 1.0
C      1  0.6142940000000  0.4557500000000  0.4868100000000 1.0
C      1  0.5518510000000  0.4990860000000  0.5493330000000 1.0
C      1  0.4483330000000  0.5023200000000  0.4609610000000 1.0
C      1  0.5632050000000  0.4976020000000  0.4753140000000 1.0
C      1  0.4486820000000  0.4906600000000  0.5274550000000 1.0
C      1  0.5287700000000  0.5010400000000  0.5665520000000 1.0
C      1  0.4727130000000  0.5071420000000  0.4504100000000 1.0
C      1  0.4557350000000  0.4961390000000  0.5530950000000 1.0
C      1  0.5427310000000  0.4985850000000  0.4544310000000 1.0
C      1  0.5073180000000  0.4818510000000  0.5565650000000 1.0
C      1  0.4969910000000  0.4913690000000  0.4588660000000 1.0
C      1  0.5169310000000  0.5144570000000  0.4595500000000 1.0
C      1  0.4747330000000  0.5172090000000  0.5551030000000 1.0
C      1  0.5528010000000  0.4806660000000  0.5283240000000 1.0
C      1  0.4487240000000  0.4807110000000  0.4781850000000 1.0
C      1  0.4496270000000  0.5125390000000  0.5095870000000 1.0
C      1  0.5560970000000  0.5177860000000  0.4972280000000 1.0
C      1  0.4061850000000  0.4673370000000  0.6110710000000 1.0
C      1  0.5859270000000  0.4791900000000  0.3889700000000 1.0
C      1  0.4341280000000  0.5255060000000  0.3792530000000 1.0
C      1  0.5665050000000  0.5324550000000  0.6317770000000 1.0
C      1  0.6238300000000  0.4673290000000  0.4320530000000 1.0
C      1  0.3791090000000  0.4778780000000  0.5592990000000 1.0
C      1  0.3869480000000  0.5319520000000  0.4139210000000 1.0
C      1  0.6126710000000  0.5164810000000  0.5978830000000 1.0
C      1  0.5887270000000  0.4531210000000  0.5701860000000 1.0
C      1  0.4155720000000  0.4731220000000  0.4266950000000 1.0
C      1  0.5922590000000  0.5348720000000  0.4323060000000 1.0
C      1  0.4078830000000  0.5584600000000  0.5768840000000 1.0
C      1  0.5684300000000  0.4594640000000  0.5874080000000 1.0
C      1  0.4377650000000  0.4726450000000  0.4110970000000 1.0
C      1  0.4261180000000  0.5602240000000  0.5969050000000 1.0
C      1  0.5743470000000  0.5358850000000  0.4122140000000 1.0
C      1  0.4633620000000  0.4182990000000  0.5152260000000 1.0
C      1  0.5399810000000  0.4187030000000  0.4842150000000 1.0
C      1  0.4656290000000  0.5813500000000  0.4869850000000 1.0
C      1  0.5482190000000  0.5739900000000  0.5255580000000 1.0
C      1  0.5164990000000  0.4197850000000  0.4625570000000 1.0
C      1  0.4863200000000  0.4162940000000  0.5374030000000 1.0
C      1  0.4873000000000  0.5842250000000  0.4637710000000 1.0
C      1  0.5224590000000  0.5770240000000  0.5414920000000 1.0
C      1  0.5100900000000  0.5248190000000  0.4302720000000 1.0
C      1  0.4879600000000  0.5213110000000  0.5817760000000 1.0
C      1  0.4874220000000  0.4770220000000  0.5761280000000 1.0
C      1  0.5053480000000  0.4807580000000  0.4304730000000 1.0
C      1  0.4243880000000  0.5172320000000  0.4960870000000 1.0
C      1  0.5753150000000  0.5197920000000  0.5180180000000 1.0
C      1  0.5782580000000  0.4759170000000  0.5142100000000 1.0
C      1  0.4249700000000  0.4733670000000  0.4932070000000 1.0
C      1  0.5057590000000  0.5507610000000  0.5451320000000 1.0
C      1  0.5076300000000  0.5620650000000  0.4676650000000 1.0
C      1  0.4996710000000  0.4444750000000  0.4667220000000 1.0
C      1  0.5057970000000  0.4386240000000  0.5391170000000 1.0
C      1  0.5436460000000  0.5632420000000  0.5007410000000 1.0
C      1  0.4695170000000  0.5562480000000  0.5033190000000 1.0
C      1  0.4599970000000  0.4454890000000  0.5036230000000 1.0
C      1  0.5428290000000  0.4458150000000  0.4992810000000 1.0
C      1  0.4746520000000  0.5756620000000  0.5947190000000 1.0
C      1  0.5338650000000  0.5638250000000  0.4122650000000 1.0
C      1  0.4766080000000  0.4420510000000  0.4110610000000 1.0
C      1  0.5228310000000  0.4402600000000  0.5929860000000 1.0
C      1  0.5932010000000  0.5561640000000  0.4768910000000 1.0
C      1  0.4139920000000  0.5702990000000  0.5277110000000 1.0
C      1  0.4064790000000  0.4434540000000  0.4650820000000 1.0
C      1  0.5974050000000  0.4279840000000  0.5243010000000 1.0
C      1  0.5980290000000  0.5593660000000  0.5068300000000 1.0
C      1  0.4120360000000  0.5662140000000  0.4976790000000 1.0
C      1  0.5993980000000  0.4317140000000  0.4956560000000 1.0
C      1  0.4034810000000  0.4313070000000  0.4989310000000 1.0
C      1  0.5038230000000  0.5694800000000  0.5976030000000 1.0
C      1  0.5038030000000  0.5651280000000  0.4093370000000 1.0
C      1  0.4936870000000  0.4354840000000  0.5955070000000 1.0
C      1  0.5065890000000  0.4394720000000  0.4096090000000 1.0
C      1  0.4277540000000  0.4143850000000  0.5205930000000 1.0
C      1  0.5720210000000  0.4163900000000  0.4762070000000 1.0
C      1  0.4355210000000  0.5768410000000  0.4785620000000 1.0
C      1  0.5759580000000  0.5722020000000  0.5319810000000 1.0
C      1  0.5240950000000  0.4248660000000  0.4319230000000 1.0
C      1  0.4740790000000  0.4201350000000  0.5694790000000 1.0
C      1  0.4813580000000  0.5793210000000  0.4334640000000 1.0
C      1  0.5270270000000  0.5820910000000  0.5728670000000 1.0
C      1  0.4674510000000  0.5815100000000  0.5678450000000 1.0
C      1  0.5461660000000  0.5753970000000  0.4350980000000 1.0
C      1  0.4630790000000  0.4304470000000  0.4329280000000 1.0
C      1  0.5343620000000  0.4225040000000  0.5740330000000 1.0
C      1  0.5746990000000  0.5744600000000  0.4645700000000 1.0
C      1  0.4397470000000  0.5775480000000  0.5383040000000 1.0
C      1  0.4308430000000  0.4316200000000  0.4573130000000 1.0
C      1  0.5728090000000  0.4153660000000  0.5296920000000 1.0
C      1  0.5033220000000  0.5987380000000  0.5183900000000 1.0
C      1  0.5036110000000  0.6101970000000  0.4696590000000 1.0
C      1  0.4953930000000  0.3986930000000  0.4735160000000 1.0
C      1  0.5062200000000  0.3955780000000  0.5234620000000 1.0
C      1  0.5165320000000  0.6104400000000  0.4957290000000 1.0
C      1  0.4749630000000  0.6020950000000  0.5097490000000 1.0
C      1  0.4729450000000  0.3956660000000  0.4911070000000 1.0
C      1  0.5288380000000  0.3940750000000  0.5055730000000 1.0
C      1  0.5181260000000  0.5312200000000  0.5711420000000 1.0
C      1  0.4799460000000  0.5270290000000  0.4314960000000 1.0
C      1  0.5350870000000  0.4789360000000  0.4342830000000 1.0
C      1  0.4601280000000  0.4738190000000  0.5698410000000 1.0
C      1  0.5696410000000  0.5207000000000  0.5457940000000 1.0
C      1  0.4292300000000  0.5222500000000  0.4676950000000 1.0
C      1  0.4373570000000  0.4628860000000  0.5187900000000 1.0
C      1  0.5672870000000  0.4672230000000  0.4861200000000 1.0
C      1  0.4508590000000  0.3548940000000  0.5095550000000 1.0
C      1  0.5511460000000  0.3570350000000  0.4805490000000 1.0
C      1  0.4384210000000  0.6350760000000  0.5007410000000 1.0
C      1  0.5355930000000  0.6602390000000  0.4240090000000 1.0
C      1  0.4247110000000  0.3463110000000  0.4622380000000 1.0
C      1  0.5690990000000  0.3347390000000  0.5271890000000 1.0
C      1  0.4852790000000  0.6421260000000  0.4357410000000 1.0
C      1  0.4471310000000  0.6599160000000  0.5486910000000 1.0
C      1  0.5454630000000  0.5439730000000  0.5875470000000 1.0
C      1  0.4587590000000  0.5417950000000  0.4191470000000 1.0
C      1  0.5533700000000  0.4612270000000  0.4217400000000 1.0
C      1  0.4431020000000  0.4543400000000  0.5808030000000 1.0
C      1  0.5848030000000  0.5372230000000  0.5628530000000 1.0
C      1  0.4206160000000  0.5416320000000  0.4489900000000 1.0
C      1  0.4188470000000  0.4528780000000  0.5407760000000 1.0
C      1  0.5821840000000  0.4551520000000  0.4578800000000 1.0
C      1  0.5221000000000  0.5168590000000  0.6148550000000 1.0
C      1  0.4873030000000  0.5142880000000  0.3907430000000 1.0
C      1  0.5278910000000  0.4897800000000  0.3925090000000 1.0
C      1  0.4813330000000  0.4793060000000  0.6202760000000 1.0
C      1  0.6199340000000  0.5142810000000  0.5185880000000 1.0
C      1  0.3827850000000  0.5219590000000  0.4721790000000 1.0
C      1  0.3835410000000  0.4781140000000  0.5086180000000 1.0
C      1  0.6124260000000  0.4823020000000  0.4777270000000 1.0
C      1  0.5510580000000  0.5771580000000  0.4782430000000 1.0
C      1  0.4608950000000  0.5632330000000  0.5291270000000 1.0
C      1  0.5504820000000  0.4318820000000  0.5279960000000 1.0
C      1  0.4515660000000  0.4349280000000  0.4751400000000 1.0
C      1  0.4797570000000  0.5652940000000  0.5499850000000 1.0
C      1  0.5318080000000  0.5739530000000  0.4581470000000 1.0
C      1  0.5312030000000  0.4291180000000  0.5472520000000 1.0
C      1  0.4739760000000  0.4363550000000  0.4573390000000 1.0
C      1  0.4270400000000  0.4250720000000  0.5467820000000 1.0
C      1  0.5716100000000  0.4290130000000  0.4511930000000 1.0
C      1  0.4344310000000  0.5669220000000  0.4510710000000 1.0
C      1  0.5772770000000  0.5650390000000  0.5596740000000 1.0
C      1  0.5517970000000  0.4336650000000  0.4308560000000 1.0
C      1  0.4466930000000  0.4279690000000  0.5689440000000 1.0
C      1  0.4557580000000  0.5677630000000  0.4313360000000 1.0
C      1  0.5531940000000  0.5697990000000  0.5765450000000 1.0
C      1  0.3859370000000  0.4958270000000  0.4605650000000 1.0
C      1  0.5960160000000  0.4987650000000  0.5166810000000 1.0
C      1  0.4062790000000  0.4940020000000  0.5003560000000 1.0
C      1  0.5937850000000  0.5044960000000  0.4698290000000 1.0
C      1  0.4857960000000  0.4887440000000  0.4073370000000 1.0
C      1  0.5323540000000  0.4928890000000  0.5972600000000 1.0
C      1  0.5289660000000  0.5162860000000  0.4075180000000 1.0
C      1  0.4861290000000  0.4968830000000  0.5980250000000 1.0
C      1  0.3997800000000  0.4699740000000  0.4512390000000 1.0
C      1  0.6025590000000  0.4438780000000  0.5482410000000 1.0
C      1  0.3995820000000  0.5612270000000  0.5509620000000 1.0
C      1  0.5973000000000  0.5317980000000  0.4603600000000 1.0
C      1  0.4653600000000  0.4682890000000  0.4048000000000 1.0
C      1  0.5409310000000  0.4640560000000  0.5972550000000 1.0
C      1  0.5471170000000  0.5387400000000  0.4048180000000 1.0
C      1  0.4507150000000  0.5660370000000  0.6073290000000 1.0
C      1  0.5667710000000  0.3346230000000  0.4800780000000 1.0
C      1  0.4334600000000  0.3339860000000  0.5069240000000 1.0
C      1  0.5141300000000  0.6699420000000  0.4101440000000 1.0
C      1  0.4229350000000  0.6562530000000  0.5083650000000 1.0
C      1  0.5758530000000  0.3233650000000  0.5032720000000 1.0
C      1  0.4203070000000  0.3295500000000  0.4833740000000 1.0
C      1  0.4271290000000  0.6687700000000  0.5323000000000 1.0
C      1  0.4890790000000  0.6607940000000  0.4161480000000 1.0
C      1  0.4419630000000  0.3673690000000  0.4644910000000 1.0
C      1  0.5535440000000  0.3571780000000  0.5280810000000 1.0
C      1  0.4628140000000  0.6387550000000  0.5414380000000 1.0
C      1  0.5067280000000  0.6306290000000  0.4507640000000 1.0
C      1  0.4562570000000  0.3735250000000  0.4885280000000 1.0
C      1  0.5436140000000  0.3704100000000  0.5046980000000 1.0
C      1  0.5322340000000  0.6414920000000  0.4435940000000 1.0
C      1  0.4594630000000  0.6243720000000  0.5169100000000 1.0
C      1  0.5661340000000  0.5328040000000  0.6045060000000 1.0
C      1  0.4354920000000  0.5324860000000  0.4055130000000 1.0
C      1  0.5790260000000  0.4703250000000  0.4136690000000 1.0
C      1  0.4165590000000  0.4628230000000  0.5864380000000 1.0
C      1  0.5897200000000  0.5280150000000  0.5891930000000 1.0
C      1  0.4126410000000  0.5342570000000  0.4225400000000 1.0
C      1  0.4032400000000  0.4655210000000  0.5612880000000 1.0
C      1  0.5967860000000  0.4665150000000  0.4355690000000 1.0
C      1  0.4918960000000  0.5263480000000  0.5314230000000 1.0
C      1  0.5093890000000  0.5341850000000  0.4812910000000 1.0
C      1  0.5003300000000  0.4708470000000  0.4814540000000 1.0
C      1  0.5067560000000  0.4657400000000  0.5330910000000 1.0
C      1  0.5351790000000  0.5365730000000  0.4967850000000 1.0
C      1  0.4810270000000  0.5295100000000  0.5033890000000 1.0
C      1  0.4728580000000  0.4704740000000  0.4919470000000 1.0
C      1  0.5223680000000  0.4698560000000  0.5088560000000 1.0
END
