TITL C-3623285-6872-146 -1.519288177177e-06 125000 -1070.95850589745 0 0 176 (C1) n - 1
REM
REM in /home/nfs/bkarasulu/CARBON/AIRSS/Generating-Clusters/LCBOP/Higher-Symm/SD-CG/FIRE-CG
REM
REM
REM
REM
REM
REM ./C.cell (b20cbc046b6831c77cfcea5457e17084)
REM AIRSS Version 0.9.1 bugfix July 2018 build 013d7b7c2542+ Fri, 06 Jul 2018 19:26:36 +0100
REM compiler GCC version 9.2.1 20190827 (Red Hat 9.2.1-1)
REM options -cpp -mtune=generic -march=x86-64 -g -O0 -fpre-include=/usr/include/finclude/math-vector-fortran.h
REM seed 431445401 -1992847658 1723763121 1002710020 -423403716 -1337854228 1568934395 -120857385 -928025197 -468797134 855604808 85910448 1130524551 -419045128 -251693867 53318100 -1704994587 -992595295 1993289742 474046367 -818407298 -1307371591 1570378213 -449211743 1030706226 5848414 704473893 502183876 2013409020 -1101719323 -1046950244 752739844 1065080095
REM
CELL 1.54180   50.00000   50.00000   50.00000   90.00000   90.00000   90.00000
LATT -1
SFAC C  
C      1  0.4956360000000  0.5457820000000  0.5693840000000 1.0
C      1  0.5554410000000  0.4733440000000  0.5562240000000 1.0
C      1  0.5544880000000  0.5735530000000  0.4954010000000 1.0
C      1  0.4688580000000  0.4474980000000  0.4199250000000 1.0
C      1  0.5059030000000  0.4496710000000  0.5717940000000 1.0
C      1  0.5309390000000  0.5596990000000  0.4330100000000 1.0
C      1  0.5624830000000  0.5235420000000  0.4344970000000 1.0
C      1  0.4349600000000  0.5093210000000  0.5488810000000 1.0
C      1  0.4198740000000  0.4887920000000  0.4615590000000 1.0
C      1  0.5364850000000  0.4483700000000  0.5142870000000 1.0
C      1  0.4494410000000  0.4382380000000  0.4918720000000 1.0
C      1  0.4558020000000  0.5643120000000  0.5044930000000 1.0
C      1  0.5205420000000  0.5591120000000  0.5654640000000 1.0
C      1  0.4509160000000  0.4864230000000  0.5531920000000 1.0
C      1  0.4450330000000  0.5560920000000  0.4796040000000 1.0
C      1  0.4984560000000  0.4529340000000  0.4226680000000 1.0
C      1  0.4784110000000  0.4449760000000  0.5653320000000 1.0
C      1  0.5024340000000  0.5492880000000  0.4281120000000 1.0
C      1  0.4286700000000  0.4910940000000  0.4365420000000 1.0
C      1  0.5622110000000  0.5015170000000  0.5499260000000 1.0
C      1  0.5665750000000  0.4984080000000  0.4474280000000 1.0
C      1  0.4547520000000  0.4372010000000  0.5202900000000 1.0
C      1  0.5447410000000  0.4555110000000  0.4869910000000 1.0
C      1  0.5680730000000  0.5740250000000  0.5200180000000 1.0
C      1  0.5605520000000  0.6223990000000  0.4685640000000 1.0
C      1  0.4636840000000  0.5531820000000  0.6113390000000 1.0
C      1  0.6030520000000  0.4539490000000  0.5549400000000 1.0
C      1  0.5535680000000  0.3983950000000  0.5364480000000 1.0
C      1  0.4368690000000  0.3879010000000  0.4645610000000 1.0
C      1  0.4474930000000  0.6060720000000  0.5400850000000 1.0
C      1  0.4780350000000  0.4420900000000  0.3665220000000 1.0
C      1  0.5340880000000  0.4391050000000  0.6211050000000 1.0
C      1  0.5217620000000  0.5527350000000  0.3772830000000 1.0
C      1  0.6061370000000  0.5374810000000  0.4487650000000 1.0
C      1  0.3963230000000  0.5477010000000  0.5578110000000 1.0
C      1  0.3832420000000  0.4541740000000  0.4536100000000 1.0
C      1  0.4497590000000  0.6020690000000  0.4629480000000 1.0
C      1  0.5412820000000  0.5515970000000  0.6071310000000 1.0
C      1  0.3996860000000  0.4716620000000  0.5670940000000 1.0
C      1  0.4399180000000  0.3874080000000  0.5433860000000 1.0
C      1  0.5505750000000  0.4136410000000  0.4648910000000 1.0
C      1  0.5558000000000  0.6226200000000  0.5437170000000 1.0
C      1  0.5490860000000  0.4427970000000  0.3914910000000 1.0
C      1  0.4608740000000  0.4328840000000  0.6049460000000 1.0
C      1  0.4480180000000  0.5419610000000  0.3886850000000 1.0
C      1  0.3850560000000  0.5283440000000  0.4428870000000 1.0
C      1  0.5981840000000  0.5271070000000  0.5647190000000 1.0
C      1  0.6064200000000  0.4605820000000  0.4431900000000 1.0
C      1  0.6139010000000  0.5034360000000  0.5699290000000 1.0
C      1  0.5674700000000  0.6305470000000  0.5203790000000 1.0
C      1  0.5167230000000  0.5590370000000  0.6171450000000 1.0
C      1  0.6162240000000  0.4858830000000  0.4380200000000 1.0
C      1  0.3906210000000  0.4968920000000  0.5726340000000 1.0
C      1  0.3765670000000  0.5034210000000  0.4355510000000 1.0
C      1  0.5574410000000  0.3946220000000  0.4846840000000 1.0
C      1  0.4324110000000  0.3818720000000  0.5177470000000 1.0
C      1  0.4418100000000  0.6119710000000  0.4872640000000 1.0
C      1  0.5282520000000  0.4310400000000  0.3784070000000 1.0
C      1  0.4826330000000  0.4265550000000  0.6227970000000 1.0
C      1  0.4686130000000  0.5567190000000  0.3777770000000 1.0
C      1  0.3884290000000  0.5239590000000  0.5694260000000 1.0
C      1  0.4408000000000  0.6140790000000  0.5145090000000 1.0
C      1  0.4894040000000  0.5599210000000  0.6187440000000 1.0
C      1  0.3756660000000  0.4765340000000  0.4400000000000 1.0
C      1  0.6132010000000  0.4761580000000  0.5676260000000 1.0
C      1  0.6156940000000  0.5131290000000  0.4404910000000 1.0
C      1  0.4315800000000  0.3816910000000  0.4906070000000 1.0
C      1  0.5603090000000  0.3919610000000  0.5112520000000 1.0
C      1  0.5685900000000  0.6302970000000  0.4932550000000 1.0
C      1  0.5026340000000  0.4303100000000  0.3691190000000 1.0
C      1  0.5096380000000  0.4282500000000  0.6260590000000 1.0
C      1  0.4954760000000  0.5588780000000  0.3735560000000 1.0
C      1  0.4840720000000  0.4033670000000  0.5403820000000 1.0
C      1  0.5582870000000  0.4895960000000  0.3849770000000 1.0
C      1  0.3884990000000  0.5329400000000  0.4910460000000 1.0
C      1  0.4960250000000  0.5957950000000  0.4625750000000 1.0
C      1  0.5119400000000  0.6084790000000  0.5320920000000 1.0
C      1  0.5036380000000  0.3987280000000  0.4619220000000 1.0
C      1  0.5391720000000  0.5062630000000  0.6018300000000 1.0
C      1  0.4794690000000  0.5111700000000  0.3941470000000 1.0
C      1  0.4690870000000  0.4849400000000  0.6109670000000 1.0
C      1  0.3971740000000  0.4618510000000  0.5212030000000 1.0
C      1  0.5897060000000  0.4715190000000  0.4834500000000 1.0
C      1  0.6113590000000  0.5414240000000  0.5167080000000 1.0
C      1  0.5080130000000  0.3903890000000  0.5458310000000 1.0
C      1  0.4837130000000  0.4893420000000  0.3748690000000 1.0
C      1  0.5939710000000  0.5373610000000  0.4943100000000 1.0
C      1  0.5157690000000  0.6124060000000  0.4512790000000 1.0
C      1  0.4890460000000  0.5917060000000  0.5301330000000 1.0
C      1  0.4781600000000  0.4099080000000  0.4648370000000 1.0
C      1  0.4712620000000  0.5105770000000  0.5975480000000 1.0
C      1  0.5401040000000  0.5097010000000  0.3923430000000 1.0
C      1  0.5485390000000  0.4863070000000  0.6196300000000 1.0
C      1  0.5984610000000  0.4665960000000  0.5096220000000 1.0
C      1  0.3846700000000  0.4451680000000  0.5020730000000 1.0
C      1  0.4040610000000  0.5326840000000  0.5151830000000 1.0
C      1  0.5253470000000  0.4133140000000  0.4512650000000 1.0
C      1  0.4516160000000  0.5156130000000  0.3996310000000 1.0
C      1  0.4087630000000  0.4544710000000  0.5458770000000 1.0
C      1  0.5328300000000  0.6073930000000  0.5518190000000 1.0
C      1  0.4717250000000  0.5889530000000  0.4498420000000 1.0
C      1  0.4610400000000  0.4001140000000  0.5577870000000 1.0
C      1  0.4538840000000  0.4626970000000  0.5993060000000 1.0
C      1  0.5605140000000  0.4668300000000  0.4021530000000 1.0
C      1  0.5535110000000  0.5290940000000  0.5934610000000 1.0
C      1  0.3970690000000  0.5427400000000  0.4648570000000 1.0
C      1  0.6023510000000  0.5467810000000  0.5436800000000 1.0
C      1  0.5877630000000  0.4511630000000  0.4633660000000 1.0
C      1  0.4553560000000  0.4031600000000  0.4490760000000 1.0
C      1  0.5419530000000  0.5379960000000  0.3912770000000 1.0
C      1  0.5870100000000  0.4501070000000  0.5306590000000 1.0
C      1  0.4689090000000  0.5889250000000  0.5500480000000 1.0
C      1  0.5434270000000  0.6063480000000  0.4520670000000 1.0
C      1  0.5312790000000  0.4050310000000  0.5522790000000 1.0
C      1  0.5503670000000  0.4596510000000  0.6095860000000 1.0
C      1  0.4653040000000  0.4663910000000  0.3759470000000 1.0
C      1  0.4519480000000  0.5315010000000  0.5956760000000 1.0
C      1  0.5905000000000  0.5506310000000  0.4692410000000 1.0
C      1  0.4102920000000  0.5537400000000  0.5331570000000 1.0
C      1  0.3963920000000  0.4421780000000  0.4761260000000 1.0
C      1  0.4415370000000  0.4911030000000  0.4117600000000 1.0
C      1  0.4334350000000  0.4409840000000  0.5394150000000 1.0
C      1  0.5164030000000  0.4340030000000  0.4340690000000 1.0
C      1  0.4592110000000  0.4661480000000  0.5700040000000 1.0
C      1  0.5634970000000  0.4754800000000  0.4295190000000 1.0
C      1  0.5697430000000  0.5223070000000  0.5704110000000 1.0
C      1  0.4231290000000  0.5531450000000  0.4644260000000 1.0
C      1  0.5835000000000  0.5680530000000  0.5412560000000 1.0
C      1  0.5617540000000  0.4393380000000  0.4694240000000 1.0
C      1  0.5330750000000  0.5829700000000  0.5657010000000 1.0
C      1  0.4790640000000  0.5659210000000  0.4337230000000 1.0
C      1  0.4644930000000  0.4212700000000  0.5776650000000 1.0
C      1  0.5498790000000  0.5435810000000  0.4185410000000 1.0
C      1  0.5575050000000  0.4543040000000  0.5339180000000 1.0
C      1  0.4554970000000  0.4229680000000  0.4279260000000 1.0
C      1  0.5579510000000  0.4609230000000  0.5820460000000 1.0
C      1  0.4540680000000  0.4660760000000  0.4027140000000 1.0
C      1  0.4370760000000  0.5281950000000  0.5712250000000 1.0
C      1  0.5660790000000  0.5669550000000  0.4693370000000 1.0
C      1  0.4358430000000  0.5641280000000  0.5256820000000 1.0
C      1  0.4246140000000  0.4381610000000  0.4782070000000 1.0
C      1  0.4735260000000  0.5645920000000  0.5646740000000 1.0
C      1  0.5483600000000  0.5779110000000  0.4488420000000 1.0
C      1  0.5250410000000  0.4291810000000  0.5661000000000 1.0
C      1  0.4740310000000  0.4346510000000  0.4778340000000 1.0
C      1  0.5082650000000  0.4760260000000  0.3800670000000 1.0
C      1  0.4027560000000  0.4897530000000  0.4835720000000 1.0
C      1  0.4826140000000  0.5762360000000  0.5061240000000 1.0
C      1  0.5287820000000  0.5854110000000  0.4946230000000 1.0
C      1  0.5069670000000  0.4420240000000  0.5137610000000 1.0
C      1  0.4951650000000  0.5185370000000  0.5818930000000 1.0
C      1  0.5202180000000  0.5021070000000  0.4130270000000 1.0
C      1  0.5092680000000  0.4722970000000  0.5888270000000 1.0
C      1  0.4171080000000  0.5083540000000  0.5252770000000 1.0
C      1  0.5754110000000  0.5156470000000  0.4974870000000 1.0
C      1  0.6017220000000  0.4912990000000  0.5234120000000 1.0
C      1  0.4959160000000  0.4486540000000  0.4878460000000 1.0
C      1  0.5114920000000  0.4749580000000  0.4089530000000 1.0
C      1  0.5760300000000  0.4962790000000  0.4757140000000 1.0
C      1  0.5248150000000  0.6107910000000  0.5071650000000 1.0
C      1  0.5023240000000  0.5796420000000  0.4853250000000 1.0
C      1  0.4831570000000  0.4283150000000  0.5262160000000 1.0
C      1  0.5167700000000  0.4998190000000  0.5853320000000 1.0
C      1  0.4989070000000  0.5221000000000  0.4142490000000 1.0
C      1  0.4950030000000  0.4734440000000  0.6141470000000 1.0
C      1  0.5763440000000  0.5053560000000  0.5246020000000 1.0
C      1  0.3795590000000  0.5064420000000  0.4849450000000 1.0
C      1  0.4095830000000  0.4850190000000  0.5106160000000 1.0
C      1  0.4672290000000  0.5038020000000  0.4708710000000 1.0
C      1  0.5275940000000  0.5285570000000  0.5187040000000 1.0
C      1  0.4828120000000  0.5111400000000  0.5145940000000 1.0
C      1  0.5144860000000  0.4998880000000  0.4805150000000 1.0
C      1  0.5327560000000  0.4791780000000  0.4777450000000 1.0
C      1  0.5097590000000  0.5127080000000  0.5058510000000 1.0
C      1  0.4622730000000  0.5070700000000  0.4973430000000 1.0
C      1  0.4927990000000  0.5015880000000  0.4623180000000 1.0
END
