TITL C-3623289-7120-1451 -3.73563658953095e-07 125000 -772.818071879131 0 0 130 (C1) n - 1
REM
REM in /home/nfs/bkarasulu/CARBON/AIRSS/Generating-Clusters/LCBOP/Higher-Symm/SD-CG/FIRE-CG
REM
REM
REM
REM
REM
REM ./C.cell (b20cbc046b6831c77cfcea5457e17084)
REM AIRSS Version 0.9.1 bugfix July 2018 build 013d7b7c2542+ Fri, 06 Jul 2018 19:26:36 +0100
REM compiler GCC version 9.2.1 20190827 (Red Hat 9.2.1-1)
REM options -cpp -mtune=generic -march=x86-64 -g -O0 -fpre-include=/usr/include/finclude/math-vector-fortran.h
REM seed -233403706 1086004666 -211161429 90096534 -892332981 1671600797 1275923748 1253627843 -2133606056 1247943293 20549716 -570428684 148362863 1480925010 -421791173 1786068389 193710979 -947001766 -772841496 1277097420 -180218512 2039836899 -611353918 -1429622682 -1872716817 -1804033465 807812779 1329506511 1794666084 626093544 -1220473205 1914014521 -145010459
REM
CELL 1.54180   50.00000   50.00000   50.00000   90.00000   90.00000   90.00000
LATT -1
SFAC C  
C      1  0.4345010000000  0.5584040000000  0.4153130000000 1.0
C      1  0.5565280000000  0.5428380000000  0.4052450000000 1.0
C      1  0.6051470000000  0.5600940000000  0.5224060000000 1.0
C      1  0.5035280000000  0.5426180000000  0.6125650000000 1.0
C      1  0.4006380000000  0.5556200000000  0.5446960000000 1.0
C      1  0.4278010000000  0.4507160000000  0.4178980000000 1.0
C      1  0.5553110000000  0.4395080000000  0.4067920000000 1.0
C      1  0.6093830000000  0.4578580000000  0.5298950000000 1.0
C      1  0.5134240000000  0.4404220000000  0.6061240000000 1.0
C      1  0.3972850000000  0.4523560000000  0.5357440000000 1.0
C      1  0.4525080000000  0.4266840000000  0.5084520000000 1.0
C      1  0.4708730000000  0.4284990000000  0.4618020000000 1.0
C      1  0.5457260000000  0.4211750000000  0.4755710000000 1.0
C      1  0.5496130000000  0.4286550000000  0.5216550000000 1.0
C      1  0.4793390000000  0.4216270000000  0.5479500000000 1.0
C      1  0.4479470000000  0.5804170000000  0.4954910000000 1.0
C      1  0.4769370000000  0.5747300000000  0.4574020000000 1.0
C      1  0.5269620000000  0.5700790000000  0.4605730000000 1.0
C      1  0.5371500000000  0.5782460000000  0.5360890000000 1.0
C      1  0.4941830000000  0.5718350000000  0.5539090000000 1.0
C      1  0.4910260000000  0.4151070000000  0.4788310000000 1.0
C      1  0.5193680000000  0.4154100000000  0.4854940000000 1.0
C      1  0.5229860000000  0.4170590000000  0.5157960000000 1.0
C      1  0.4967340000000  0.4129040000000  0.5270790000000 1.0
C      1  0.4778120000000  0.4109640000000  0.5044300000000 1.0
C      1  0.4892640000000  0.5897800000000  0.4803140000000 1.0
C      1  0.5175380000000  0.5840370000000  0.4848830000000 1.0
C      1  0.5198130000000  0.5837750000000  0.5138990000000 1.0
C      1  0.4920830000000  0.5832320000000  0.5266860000000 1.0
C      1  0.4735050000000  0.5883510000000  0.5052970000000 1.0
C      1  0.5517770000000  0.4803980000000  0.5123420000000 1.0
C      1  0.5062040000000  0.4675470000000  0.5502960000000 1.0
C      1  0.4531920000000  0.4788950000000  0.5193630000000 1.0
C      1  0.4680400000000  0.4775540000000  0.4588430000000 1.0
C      1  0.5269660000000  0.4653070000000  0.4553070000000 1.0
C      1  0.5506890000000  0.5330560000000  0.5111810000000 1.0
C      1  0.5047130000000  0.5200580000000  0.5525780000000 1.0
C      1  0.4534690000000  0.5315470000000  0.5212050000000 1.0
C      1  0.4674360000000  0.5273420000000  0.4604550000000 1.0
C      1  0.5277790000000  0.5179040000000  0.4561440000000 1.0
C      1  0.6033820000000  0.4935180000000  0.5601150000000 1.0
C      1  0.4727480000000  0.4657670000000  0.6085240000000 1.0
C      1  0.3850810000000  0.4885580000000  0.5088430000000 1.0
C      1  0.4487940000000  0.4833470000000  0.3906960000000 1.0
C      1  0.5881460000000  0.4692630000000  0.4254400000000 1.0
C      1  0.5964150000000  0.5331850000000  0.5612050000000 1.0
C      1  0.4751020000000  0.5053460000000  0.6157030000000 1.0
C      1  0.3877880000000  0.5286750000000  0.5070340000000 1.0
C      1  0.4528510000000  0.5231660000000  0.3908920000000 1.0
C      1  0.5869220000000  0.5088860000000  0.4185120000000 1.0
C      1  0.5653310000000  0.4759870000000  0.5873430000000 1.0
C      1  0.4308210000000  0.4657860000000  0.5781900000000 1.0
C      1  0.4053510000000  0.4749430000000  0.4640880000000 1.0
C      1  0.4961830000000  0.4688130000000  0.3944970000000 1.0
C      1  0.6021070000000  0.4702460000000  0.4751720000000 1.0
C      1  0.5546900000000  0.5330550000000  0.5916950000000 1.0
C      1  0.4371920000000  0.5227160000000  0.5880650000000 1.0
C      1  0.4053560000000  0.5335360000000  0.4583040000000 1.0
C      1  0.5024840000000  0.5271160000000  0.3975350000000 1.0
C      1  0.5981850000000  0.5272490000000  0.4635820000000 1.0
C      1  0.5480970000000  0.4865380000000  0.6074160000000 1.0
C      1  0.4096820000000  0.4848890000000  0.5746910000000 1.0
C      1  0.4025170000000  0.4884770000000  0.4386780000000 1.0
C      1  0.5213280000000  0.4815280000000  0.3907390000000 1.0
C      1  0.6147710000000  0.4905980000000  0.4909450000000 1.0
C      1  0.5444410000000  0.5135350000000  0.6100400000000 1.0
C      1  0.4128220000000  0.5118920000000  0.5779940000000 1.0
C      1  0.4026220000000  0.5157880000000  0.4358970000000 1.0
C      1  0.5237060000000  0.5087590000000  0.3913570000000 1.0
C      1  0.6120580000000  0.5174680000000  0.4864590000000 1.0
C      1  0.5929210000000  0.5389230000000  0.5344870000000 1.0
C      1  0.4956920000000  0.5184710000000  0.6024370000000 1.0
C      1  0.4052030000000  0.5349560000000  0.5275210000000 1.0
C      1  0.4456290000000  0.5334420000000  0.4154790000000 1.0
C      1  0.5611420000000  0.5192660000000  0.4182930000000 1.0
C      1  0.5967800000000  0.4813070000000  0.5360370000000 1.0
C      1  0.4976120000000  0.4609560000000  0.5976650000000 1.0
C      1  0.4036430000000  0.4769680000000  0.5257640000000 1.0
C      1  0.4416690000000  0.4742130000000  0.4159080000000 1.0
C      1  0.5619990000000  0.4614130000000  0.4215760000000 1.0
C      1  0.4758270000000  0.4859360000000  0.3842390000000 1.0
C      1  0.6010260000000  0.4788060000000  0.4480840000000 1.0
C      1  0.5852290000000  0.4952740000000  0.5809430000000 1.0
C      1  0.4482640000000  0.4742930000000  0.5988510000000 1.0
C      1  0.3913810000000  0.4922030000000  0.4822130000000 1.0
C      1  0.4790270000000  0.5155900000000  0.3855460000000 1.0
C      1  0.6007270000000  0.5080580000000  0.4426100000000 1.0
C      1  0.5796740000000  0.5244090000000  0.5814280000000 1.0
C      1  0.4498440000000  0.5033350000000  0.6045950000000 1.0
C      1  0.3927820000000  0.5217920000000  0.4807130000000 1.0
C      1  0.4717320000000  0.5609570000000  0.5679610000000 1.0
C      1  0.4479450000000  0.5698730000000  0.4678590000000 1.0
C      1  0.5021650000000  0.5639860000000  0.4426460000000 1.0
C      1  0.5543560000000  0.5611320000000  0.4594340000000 1.0
C      1  0.5236810000000  0.5681470000000  0.5601280000000 1.0
C      1  0.4531640000000  0.4319550000000  0.5388590000000 1.0
C      1  0.4463510000000  0.4364310000000  0.4797750000000 1.0
C      1  0.4788390000000  0.4356130000000  0.4350650000000 1.0
C      1  0.5642690000000  0.4327430000000  0.4952540000000 1.0
C      1  0.5566180000000  0.4388270000000  0.5474500000000 1.0
C      1  0.5256770000000  0.4734590000000  0.5049940000000 1.0
C      1  0.5032710000000  0.4716970000000  0.5232750000000 1.0
C      1  0.4784630000000  0.4745210000000  0.5087490000000 1.0
C      1  0.4850600000000  0.4740630000000  0.4805890000000 1.0
C      1  0.5136740000000  0.4706480000000  0.4787910000000 1.0
C      1  0.5242560000000  0.5278430000000  0.5057970000000 1.0
C      1  0.5030120000000  0.5265580000000  0.5254480000000 1.0
C      1  0.4785980000000  0.5293120000000  0.5100640000000 1.0
C      1  0.4848520000000  0.5273670000000  0.4819770000000 1.0
C      1  0.5135290000000  0.5245090000000  0.4791910000000 1.0
C      1  0.5024630000000  0.5477930000000  0.4181920000000 1.0
C      1  0.5779280000000  0.5477040000000  0.4627370000000 1.0
C      1  0.5390110000000  0.5534710000000  0.5791310000000 1.0
C      1  0.4520320000000  0.5451300000000  0.5780650000000 1.0
C      1  0.4245490000000  0.5547030000000  0.4609210000000 1.0
C      1  0.4897930000000  0.4482940000000  0.4135510000000 1.0
C      1  0.5859790000000  0.4489340000000  0.4859050000000 1.0
C      1  0.5603220000000  0.4540140000000  0.5696800000000 1.0
C      1  0.4384690000000  0.4461970000000  0.5587610000000 1.0
C      1  0.4237270000000  0.4535470000000  0.4719470000000 1.0
C      1  0.5043530000000  0.4779840000000  0.5759240000000 1.0
C      1  0.4287590000000  0.4908340000000  0.5261850000000 1.0
C      1  0.4534680000000  0.4888560000000  0.4375950000000 1.0
C      1  0.5430820000000  0.4769350000000  0.4360050000000 1.0
C      1  0.5747780000000  0.4935360000000  0.5222300000000 1.0
C      1  0.5030940000000  0.5066260000000  0.5773630000000 1.0
C      1  0.4291130000000  0.5195460000000  0.5273630000000 1.0
C      1  0.4541720000000  0.5175410000000  0.4378340000000 1.0
C      1  0.5430870000000  0.5056350000000  0.4359710000000 1.0
C      1  0.5740850000000  0.5222310000000  0.5212980000000 1.0
END
