TITL C-3623289-7120-1952 316.841913765634 125000 -1231.93477575037 0 0 200 (Ci) n - 1
REM
REM in /home/nfs/bkarasulu/CARBON/AIRSS/Generating-Clusters/LCBOP/Higher-Symm/SD-CG/FIRE-CG
REM
REM
REM
REM
REM
REM ./C.cell (b20cbc046b6831c77cfcea5457e17084)
REM AIRSS Version 0.9.1 bugfix July 2018 build 013d7b7c2542+ Fri, 06 Jul 2018 19:26:36 +0100
REM compiler GCC version 9.2.1 20190827 (Red Hat 9.2.1-1)
REM options -cpp -mtune=generic -march=x86-64 -g -O0 -fpre-include=/usr/include/finclude/math-vector-fortran.h
REM seed 1710036831 1295108366 1673302620 -1963715017 -1622769993 -344314703 1577847779 -512367483 -1937020253 1738899255 950710864 -622122073 -630397130 172412555 1960005010 1822995795 -1714590823 -1351208698 483184930 236542218 878677833 185255456 110234090 405352947 1799314893 -1239378418 -1834942955 -1946783477 -1749523639 1597550636 -1089432598 1721000063 -1463196945
REM
CELL 1.54180   50.00000   50.00000   50.00000   90.00000   90.00000   90.00000
LATT -1
SFAC C  
C      1  0.5021880000000  0.4675020000000  0.4240210000000 1.0
C      1  0.5372620000000  0.4865790000000  0.5778580000000 1.0
C      1  0.5234690000000  0.5251340000000  0.4294540000000 1.0
C      1  0.4977870000000  0.5321430000000  0.5759790000000 1.0
C      1  0.4627130000000  0.5130670000000  0.4221420000000 1.0
C      1  0.4765050000000  0.4745110000000  0.5705460000000 1.0
C      1  0.3924850000000  0.4680980000000  0.5620950000000 1.0
C      1  0.4795810000000  0.3913690000000  0.4390000000000 1.0
C      1  0.5832780000000  0.4243140000000  0.5602330000000 1.0
C      1  0.6074900000000  0.5315470000000  0.4379050000000 1.0
C      1  0.5203940000000  0.6082770000000  0.5610000000000 1.0
C      1  0.4166970000000  0.5753320000000  0.4397670000000 1.0
C      1  0.4488940000000  0.4498930000000  0.5388140000000 1.0
C      1  0.5081240000000  0.4429940000000  0.4615350000000 1.0
C      1  0.5658410000000  0.4807150000000  0.5388350000000 1.0
C      1  0.5510810000000  0.5497520000000  0.4611860000000 1.0
C      1  0.4918500000000  0.5566520000000  0.5384650000000 1.0
C      1  0.4341330000000  0.5189300000000  0.4611650000000 1.0
C      1  0.5703120000000  0.5695250000000  0.4215700000000 1.0
C      1  0.4701290000000  0.5949990000000  0.5721440000000 1.0
C      1  0.4031230000000  0.5233100000000  0.4251800000000 1.0
C      1  0.4296620000000  0.4301200000000  0.5784300000000 1.0
C      1  0.5298450000000  0.4046470000000  0.4278560000000 1.0
C      1  0.5968510000000  0.4763350000000  0.5748200000000 1.0
C      1  0.5897300000000  0.5557950000000  0.4392620000000 1.0
C      1  0.4908070000000  0.6063200000000  0.5561090000000 1.0
C      1  0.4055120000000  0.5474390000000  0.4424630000000 1.0
C      1  0.4102450000000  0.4438510000000  0.5607380000000 1.0
C      1  0.5091680000000  0.3933260000000  0.4438910000000 1.0
C      1  0.5944620000000  0.4522060000000  0.5575370000000 1.0
C      1  0.4221500000000  0.4470600000000  0.5342200000000 1.0
C      1  0.5103590000000  0.3975570000000  0.4726990000000 1.0
C      1  0.5827090000000  0.4603210000000  0.5318910000000 1.0
C      1  0.5778250000000  0.5525860000000  0.4657800000000 1.0
C      1  0.4896150000000  0.6020890000000  0.5273010000000 1.0
C      1  0.4172660000000  0.5393250000000  0.4681090000000 1.0
C      1  0.4582410000000  0.4554240000000  0.3736700000000 1.0
C      1  0.5176640000000  0.4377120000000  0.6244980000000 1.0
C      1  0.5588380000000  0.4839670000000  0.3749450000000 1.0
C      1  0.5417330000000  0.5442220000000  0.6263300000000 1.0
C      1  0.4823110000000  0.5619340000000  0.3755020000000 1.0
C      1  0.4411360000000  0.5156780000000  0.6250550000000 1.0
C      1  0.5247930000000  0.3984280000000  0.5223410000000 1.0
C      1  0.5985460000000  0.4705580000000  0.4797450000000 1.0
C      1  0.5743860000000  0.5736020000000  0.5215200000000 1.0
C      1  0.4751810000000  0.6012170000000  0.4776590000000 1.0
C      1  0.4014290000000  0.5290870000000  0.5202550000000 1.0
C      1  0.4255890000000  0.4260440000000  0.4784800000000 1.0
C      1  0.5421680000000  0.4466050000000  0.5043740000000 1.0
C      1  0.5713560000000  0.5132170000000  0.4978480000000 1.0
C      1  0.5247340000000  0.5692630000000  0.5004730000000 1.0
C      1  0.4578060000000  0.5530410000000  0.4956260000000 1.0
C      1  0.4286190000000  0.4864290000000  0.5021520000000 1.0
C      1  0.4752400000000  0.4303820000000  0.4995270000000 1.0
C      1  0.5107570000000  0.5272160000000  0.4034890000000 1.0
C      1  0.4872260000000  0.5206170000000  0.5993710000000 1.0
C      1  0.4704750000000  0.5012380000000  0.3975730000000 1.0
C      1  0.4892180000000  0.4724300000000  0.5965110000000 1.0
C      1  0.5127490000000  0.4790290000000  0.4006290000000 1.0
C      1  0.5294990000000  0.4984070000000  0.6024270000000 1.0
C      1  0.5240910000000  0.4952360000000  0.5536270000000 1.0
C      1  0.5142140000000  0.5217520000000  0.4571740000000 1.0
C      1  0.5097470000000  0.5183840000000  0.5528350000000 1.0
C      1  0.4758830000000  0.5044100000000  0.4463730000000 1.0
C      1  0.4857600000000  0.4778940000000  0.5428260000000 1.0
C      1  0.4902280000000  0.4812610000000  0.4471650000000 1.0
C      1  0.4325740000000  0.4717500000000  0.4583160000000 1.0
C      1  0.4874470000000  0.4239920000000  0.5435940000000 1.0
C      1  0.5544380000000  0.4544480000000  0.4603830000000 1.0
C      1  0.5674000000000  0.5278950000000  0.5416850000000 1.0
C      1  0.5125270000000  0.5756540000000  0.4564060000000 1.0
C      1  0.4455370000000  0.5451980000000  0.5396170000000 1.0
C      1  0.4259220000000  0.5276340000000  0.5766590000000 1.0
C      1  0.4375160000000  0.4467990000000  0.4214180000000 1.0
C      1  0.5127970000000  0.4172130000000  0.5795700000000 1.0
C      1  0.5740520000000  0.4720120000000  0.4233410000000 1.0
C      1  0.5624590000000  0.5528470000000  0.5785820000000 1.0
C      1  0.4871780000000  0.5824330000000  0.4204300000000 1.0
C      1  0.4962270000000  0.4402460000000  0.4327940000000 1.0
C      1  0.5491080000000  0.4632030000000  0.5686130000000 1.0
C      1  0.5510690000000  0.5244160000000  0.4339530000000 1.0
C      1  0.5037470000000  0.5594000000000  0.5672060000000 1.0
C      1  0.4508670000000  0.5364430000000  0.4313870000000 1.0
C      1  0.4489050000000  0.4752300000000  0.5660470000000 1.0
C      1  0.3958000000000  0.4277350000000  0.4421530000000 1.0
C      1  0.5092950000000  0.3717830000000  0.5576220000000 1.0
C      1  0.6119590000000  0.4451800000000  0.4424580000000 1.0
C      1  0.6041740000000  0.5719110000000  0.5578470000000 1.0
C      1  0.4906790000000  0.6278630000000  0.4423780000000 1.0
C      1  0.3880150000000  0.5544660000000  0.5575420000000 1.0
C      1  0.5711810000000  0.4012490000000  0.4918720000000 1.0
C      1  0.6209600000000  0.5135570000000  0.5085820000000 1.0
C      1  0.5481300000000  0.6146090000000  0.4937130000000 1.0
C      1  0.4287940000000  0.5983960000000  0.5081280000000 1.0
C      1  0.3790140000000  0.4860890000000  0.4914180000000 1.0
C      1  0.4518450000000  0.3850370000000  0.5062870000000 1.0
C      1  0.6150730000000  0.4959650000000  0.4836230000000 1.0
C      1  0.5588080000000  0.5995840000000  0.5183360000000 1.0
C      1  0.4455030000000  0.6014070000000  0.4827940000000 1.0
C      1  0.3849010000000  0.5036810000000  0.5163770000000 1.0
C      1  0.4411670000000  0.4000620000000  0.4816640000000 1.0
C      1  0.5544710000000  0.3982380000000  0.5172060000000 1.0
C      1  0.5383140000000  0.5708280000000  0.6240130000000 1.0
C      1  0.4578370000000  0.5731760000000  0.3768110000000 1.0
C      1  0.4179800000000  0.5021220000000  0.6237160000000 1.0
C      1  0.4616610000000  0.4288180000000  0.3759870000000 1.0
C      1  0.5421370000000  0.4264700000000  0.6231890000000 1.0
C      1  0.5819940000000  0.4975230000000  0.3762840000000 1.0
C      1  0.4817940000000  0.6106370000000  0.4229600000000 1.0
C      1  0.3988840000000  0.5372130000000  0.5758710000000 1.0
C      1  0.4155140000000  0.4283350000000  0.4230840000000 1.0
C      1  0.5181810000000  0.3890090000000  0.5770400000000 1.0
C      1  0.6010900000000  0.4624320000000  0.4241290000000 1.0
C      1  0.5844610000000  0.5713100000000  0.5769160000000 1.0
C      1  0.5300520000000  0.6075090000000  0.5875780000000 1.0
C      1  0.4225140000000  0.5846760000000  0.4136560000000 1.0
C      1  0.3880270000000  0.4791910000000  0.5876760000000 1.0
C      1  0.4699220000000  0.3921360000000  0.4124220000000 1.0
C      1  0.5774600000000  0.4149690000000  0.5863440000000 1.0
C      1  0.6119470000000  0.5204540000000  0.4123240000000 1.0
C      1  0.4650830000000  0.3983250000000  0.4639360000000 1.0
C      1  0.5690910000000  0.4166920000000  0.5349620000000 1.0
C      1  0.6077470000000  0.5173910000000  0.4643410000000 1.0
C      1  0.5348920000000  0.6013210000000  0.5360640000000 1.0
C      1  0.4308830000000  0.5829540000000  0.4650380000000 1.0
C      1  0.3922270000000  0.4822550000000  0.5356590000000 1.0
C      1  0.5679470000000  0.4409790000000  0.5177450000000 1.0
C      1  0.5875380000000  0.5312260000000  0.4811840000000 1.0
C      1  0.5139670000000  0.5911450000000  0.5164070000000 1.0
C      1  0.4320270000000  0.5586670000000  0.4822550000000 1.0
C      1  0.4124370000000  0.4684190000000  0.5188160000000 1.0
C      1  0.4860070000000  0.4085000000000  0.4835930000000 1.0
C      1  0.4653410000000  0.4059320000000  0.3897190000000 1.0
C      1  0.5634450000000  0.4176930000000  0.6092080000000 1.0
C      1  0.6014570000000  0.5101860000000  0.3898040000000 1.0
C      1  0.5346330000000  0.5937140000000  0.6102810000000 1.0
C      1  0.4365290000000  0.5819530000000  0.3907920000000 1.0
C      1  0.3985170000000  0.4894600000000  0.6101960000000 1.0
C      1  0.5302090000000  0.5058050000000  0.4741710000000 1.0
C      1  0.5103520000000  0.5354640000000  0.5296010000000 1.0
C      1  0.4868520000000  0.5257180000000  0.4627390000000 1.0
C      1  0.4697650000000  0.4938410000000  0.5258290000000 1.0
C      1  0.4896220000000  0.4641820000000  0.4703990000000 1.0
C      1  0.5131230000000  0.4739270000000  0.5372610000000 1.0
C      1  0.3955740000000  0.5569260000000  0.5297800000000 1.0
C      1  0.3980750000000  0.4354950000000  0.4700060000000 1.0
C      1  0.5038210000000  0.3780010000000  0.5298480000000 1.0
C      1  0.6044000000000  0.4427190000000  0.4702200000000 1.0
C      1  0.6018990000000  0.5641510000000  0.5299940000000 1.0
C      1  0.4961530000000  0.6216450000000  0.4701520000000 1.0
C      1  0.5902090000000  0.4185010000000  0.4802530000000 1.0
C      1  0.6155790000000  0.5392130000000  0.5197860000000 1.0
C      1  0.5239320000000  0.6223790000000  0.4812510000000 1.0
C      1  0.4097650000000  0.5811440000000  0.5197470000000 1.0
C      1  0.3843950000000  0.4604330000000  0.4802140000000 1.0
C      1  0.4760430000000  0.3772660000000  0.5187490000000 1.0
C      1  0.4662080000000  0.5611280000000  0.4261450000000 1.0
C      1  0.4345330000000  0.4995740000000  0.5724800000000 1.0
C      1  0.4660310000000  0.4387490000000  0.4267170000000 1.0
C      1  0.5337660000000  0.4385180000000  0.5738550000000 1.0
C      1  0.5654410000000  0.5000720000000  0.4275200000000 1.0
C      1  0.5339430000000  0.5608960000000  0.5732830000000 1.0
C      1  0.4679580000000  0.4335280000000  0.5267750000000 1.0
C      1  0.5336610000000  0.4441720000000  0.4761770000000 1.0
C      1  0.5693940000000  0.5056170000000  0.5256220000000 1.0
C      1  0.5320160000000  0.5661180000000  0.4732250000000 1.0
C      1  0.4663140000000  0.5554740000000  0.5238230000000 1.0
C      1  0.4305810000000  0.4940280000000  0.4743790000000 1.0
C      1  0.5554590000000  0.4967400000000  0.4817630000000 1.0
C      1  0.5319920000000  0.5474860000000  0.5166690000000 1.0
C      1  0.4780200000000  0.5495480000000  0.4762020000000 1.0
C      1  0.4445160000000  0.5029060000000  0.5182370000000 1.0
C      1  0.4679820000000  0.4521590000000  0.4833310000000 1.0
C      1  0.5219540000000  0.4500980000000  0.5237980000000 1.0
C      1  0.5155400000000  0.5775730000000  0.4281660000000 1.0
C      1  0.4436150000000  0.5489380000000  0.5675160000000 1.0
C      1  0.4279020000000  0.4734340000000  0.4302270000000 1.0
C      1  0.4844340000000  0.4220720000000  0.5718340000000 1.0
C      1  0.5563590000000  0.4507080000000  0.4324840000000 1.0
C      1  0.5720720000000  0.5262120000000  0.5697730000000 1.0
C      1  0.5433220000000  0.5764140000000  0.4185760000000 1.0
C      1  0.4540360000000  0.5736080000000  0.5772070000000 1.0
C      1  0.4124550000000  0.4970590000000  0.4216200000000 1.0
C      1  0.4566520000000  0.4232320000000  0.5814240000000 1.0
C      1  0.5459390000000  0.4260370000000  0.4227930000000 1.0
C      1  0.5875200000000  0.5025870000000  0.5783800000000 1.0
C      1  0.5575790000000  0.5503200000000  0.5276600000000 1.0
C      1  0.4870540000000  0.5756030000000  0.4686700000000 1.0
C      1  0.4300800000000  0.5254220000000  0.5266090000000 1.0
C      1  0.4423950000000  0.4493260000000  0.4723400000000 1.0
C      1  0.5129210000000  0.4240430000000  0.5313300000000 1.0
C      1  0.5698950000000  0.4742240000000  0.4733910000000 1.0
C      1  0.5358740000000  0.4745490000000  0.3852650000000 1.0
C      1  0.5418030000000  0.5186620000000  0.6178120000000 1.0
C      1  0.5030500000000  0.5490130000000  0.3870340000000 1.0
C      1  0.4641000000000  0.5250970000000  0.6147350000000 1.0
C      1  0.4581710000000  0.4809840000000  0.3821880000000 1.0
C      1  0.4969240000000  0.4506330000000  0.6129660000000 1.0
C      1  0.5010880000000  0.4967290000000  0.6053670000000 1.0
C      1  0.4988860000000  0.5029160000000  0.3946330000000 1.0
END
