TITL C-3623284-6838-97 -125051.937013265 125000 -1082.73065076026 0 0 183 (C1) n - 1
REM
REM in /home/nfs/bkarasulu/CARBON/AIRSS/Generating-Clusters/LCBOP/Higher-Symm/SD-CG/FIRE-CG
REM
REM
REM
REM
REM
REM ./C.cell (b20cbc046b6831c77cfcea5457e17084)
REM AIRSS Version 0.9.1 bugfix July 2018 build 013d7b7c2542+ Fri, 06 Jul 2018 19:26:36 +0100
REM compiler GCC version 9.2.1 20190827 (Red Hat 9.2.1-1)
REM options -cpp -mtune=generic -march=x86-64 -g -O0 -fpre-include=/usr/include/finclude/math-vector-fortran.h
REM seed -864529785 -372329565 -2098308067 511859950 -1448288781 1991700184 -1860059227 -1094847530 1444351984 215751322 -1095588935 -29076829 -781856318 -1378849749 -374252427 -648752180 -450053921 -1011879120 2072322153 1578326259 823265093 -951847909 48122922 1279058185 765180566 922790084 -1746968483 1960854823 552205718 -1422862808 -1019477619 1096412693 743398564
REM
CELL 1.54180   50.00000   50.00000   50.00000   90.00000   90.00000   90.00000
LATT -1
SFAC C  
C      1  0.4464780000000  0.6007690000000  0.5056070000000 1.0
C      1  0.5794060000000  0.5865070000000  0.5095160000000 1.0
C      1  0.6090660000000  0.4547980000000  0.5126420000000 1.0
C      1  0.4890430000000  0.3835950000000  0.5099000000000 1.0
C      1  0.3808570000000  0.4828270000000  0.5120610000000 1.0
C      1  0.4007810000000  0.4865540000000  0.5572790000000 1.0
C      1  0.4593960000000  0.5944270000000  0.5530560000000 1.0
C      1  0.5758010000000  0.5714790000000  0.5568320000000 1.0
C      1  0.5923030000000  0.4552330000000  0.5610380000000 1.0
C      1  0.4840300000000  0.3983910000000  0.5586930000000 1.0
C      1  0.5279200000000  0.5687180000000  0.5476750000000 1.0
C      1  0.5740810000000  0.4980100000000  0.5496710000000 1.0
C      1  0.5189010000000  0.4288720000000  0.5484000000000 1.0
C      1  0.4386770000000  0.4609630000000  0.5456770000000 1.0
C      1  0.4468930000000  0.5476610000000  0.5462520000000 1.0
C      1  0.4709110000000  0.5157460000000  0.3943220000000 1.0
C      1  0.4977770000000  0.5202580000000  0.4069380000000 1.0
C      1  0.5117270000000  0.4926870000000  0.4014180000000 1.0
C      1  0.4904950000000  0.4739710000000  0.3962210000000 1.0
C      1  0.4666700000000  0.4881340000000  0.3921320000000 1.0
C      1  0.4786100000000  0.4930350000000  0.4438070000000 1.0
C      1  0.4899220000000  0.5202750000000  0.4367110000000 1.0
C      1  0.5163140000000  0.5182840000000  0.4492520000000 1.0
C      1  0.5227990000000  0.4919390000000  0.4528780000000 1.0
C      1  0.5004560000000  0.4763020000000  0.4495100000000 1.0
C      1  0.5044310000000  0.4486760000000  0.4859820000000 1.0
C      1  0.4541060000000  0.4822520000000  0.4828670000000 1.0
C      1  0.4713800000000  0.5389420000000  0.4790460000000 1.0
C      1  0.5285050000000  0.5433510000000  0.4851750000000 1.0
C      1  0.5512350000000  0.4870590000000  0.4878150000000 1.0
C      1  0.5681400000000  0.4711900000000  0.5030380000000 1.0
C      1  0.4935200000000  0.4278270000000  0.5010300000000 1.0
C      1  0.4303460000000  0.4844100000000  0.4988700000000 1.0
C      1  0.4680100000000  0.5614550000000  0.4964870000000 1.0
C      1  0.5483920000000  0.5546330000000  0.5011290000000 1.0
C      1  0.4664880000000  0.4867400000000  0.3411060000000 1.0
C      1  0.4733510000000  0.5157620000000  0.3417730000000 1.0
C      1  0.5024700000000  0.5181080000000  0.3460900000000 1.0
C      1  0.5141760000000  0.4912140000000  0.3458640000000 1.0
C      1  0.4921700000000  0.4715720000000  0.3432590000000 1.0
C      1  0.5146500000000  0.4654160000000  0.5049170000000 1.0
C      1  0.4726260000000  0.4753110000000  0.5019890000000 1.0
C      1  0.4703750000000  0.5183060000000  0.4983760000000 1.0
C      1  0.5100350000000  0.5347940000000  0.5032300000000 1.0
C      1  0.5378700000000  0.5018810000000  0.5061400000000 1.0
C      1  0.5658180000000  0.4236340000000  0.5165210000000 1.0
C      1  0.4470350000000  0.4155580000000  0.5137470000000 1.0
C      1  0.4066060000000  0.5265660000000  0.5109340000000 1.0
C      1  0.4983710000000  0.5959610000000  0.5082980000000 1.0
C      1  0.5903440000000  0.5345450000000  0.5114250000000 1.0
C      1  0.5329340000000  0.5544350000000  0.4081620000000 1.0
C      1  0.5578810000000  0.4813170000000  0.4092720000000 1.0
C      1  0.4983470000000  0.4295750000000  0.4082560000000 1.0
C      1  0.4265090000000  0.4750920000000  0.4073660000000 1.0
C      1  0.4529780000000  0.5575910000000  0.4026790000000 1.0
C      1  0.5256400000000  0.4008550000000  0.5374850000000 1.0
C      1  0.4128730000000  0.4475890000000  0.5342290000000 1.0
C      1  0.4250110000000  0.5673260000000  0.5343950000000 1.0
C      1  0.5392930000000  0.5961510000000  0.5375960000000 1.0
C      1  0.6037080000000  0.4960750000000  0.5400130000000 1.0
C      1  0.4635640000000  0.3949700000000  0.4951270000000 1.0
C      1  0.3912930000000  0.5043440000000  0.4936310000000 1.0
C      1  0.4740600000000  0.6055440000000  0.4920790000000 1.0
C      1  0.5924900000000  0.5608890000000  0.4959390000000 1.0
C      1  0.5904170000000  0.4331510000000  0.4980970000000 1.0
C      1  0.5081540000000  0.5494010000000  0.5290770000000 1.0
C      1  0.5496250000000  0.5104560000000  0.5324600000000 1.0
C      1  0.5256470000000  0.4561250000000  0.5320520000000 1.0
C      1  0.4665700000000  0.4627710000000  0.5292980000000 1.0
C      1  0.4561660000000  0.5220410000000  0.5271290000000 1.0
C      1  0.5281350000000  0.5984390000000  0.5103930000000 1.0
C      1  0.6020270000000  0.5068840000000  0.5127170000000 1.0
C      1  0.5358890000000  0.4052680000000  0.5113910000000 1.0
C      1  0.4229990000000  0.4368840000000  0.5088220000000 1.0
C      1  0.4200320000000  0.5559060000000  0.5074470000000 1.0
C      1  0.5289420000000  0.5226790000000  0.6064450000000 1.0
C      1  0.5422800000000  0.4797020000000  0.5940470000000 1.0
C      1  0.4946450000000  0.4679640000000  0.5977980000000 1.0
C      1  0.4541780000000  0.4944740000000  0.5914700000000 1.0
C      1  0.4831260000000  0.5321150000000  0.5966720000000 1.0
C      1  0.5829010000000  0.4422810000000  0.4694760000000 1.0
C      1  0.4707360000000  0.4045230000000  0.4666260000000 1.0
C      1  0.4023510000000  0.4982610000000  0.4664460000000 1.0
C      1  0.4729220000000  0.5944390000000  0.4630710000000 1.0
C      1  0.5819320000000  0.5583240000000  0.4668280000000 1.0
C      1  0.3953660000000  0.5237010000000  0.4250670000000 1.0
C      1  0.4952590000000  0.6058780000000  0.4216910000000 1.0
C      1  0.5978670000000  0.5405220000000  0.4247520000000 1.0
C      1  0.5733110000000  0.4194250000000  0.4278860000000 1.0
C      1  0.4455970000000  0.4032270000000  0.4253090000000 1.0
C      1  0.5612950000000  0.5378050000000  0.5242490000000 1.0
C      1  0.5561580000000  0.4537590000000  0.5263180000000 1.0
C      1  0.4729260000000  0.4330730000000  0.5239730000000 1.0
C      1  0.4300710000000  0.5065870000000  0.5217390000000 1.0
C      1  0.4862360000000  0.5692810000000  0.5208460000000 1.0
C      1  0.4237830000000  0.5498270000000  0.4545120000000 1.0
C      1  0.5272780000000  0.5915930000000  0.4550280000000 1.0
C      1  0.5953920000000  0.5052810000000  0.4577740000000 1.0
C      1  0.5360060000000  0.4130060000000  0.4580790000000 1.0
C      1  0.4289130000000  0.4390960000000  0.4530170000000 1.0
C      1  0.5969840000000  0.4799240000000  0.4981860000000 1.0
C      1  0.5099900000000  0.4026020000000  0.4962340000000 1.0
C      1  0.4176320000000  0.4589790000000  0.4920250000000 1.0
C      1  0.4400200000000  0.5729380000000  0.4923610000000 1.0
C      1  0.5513690000000  0.5843890000000  0.4955130000000 1.0
C      1  0.5399910000000  0.5538160000000  0.4341820000000 1.0
C      1  0.5625410000000  0.4788490000000  0.4357990000000 1.0
C      1  0.4993820000000  0.4326040000000  0.4351190000000 1.0
C      1  0.4347190000000  0.4810110000000  0.4327550000000 1.0
C      1  0.4612830000000  0.5570370000000  0.4285870000000 1.0
C      1  0.5302020000000  0.5404220000000  0.4572200000000 1.0
C      1  0.5481960000000  0.4844970000000  0.4597750000000 1.0
C      1  0.5008950000000  0.4500980000000  0.4576010000000 1.0
C      1  0.4536970000000  0.4858240000000  0.4538820000000 1.0
C      1  0.4732290000000  0.5410500000000  0.4492890000000 1.0
C      1  0.4944540000000  0.4476280000000  0.3870510000000 1.0
C      1  0.4417640000000  0.4778620000000  0.3836110000000 1.0
C      1  0.4572220000000  0.5377000000000  0.3830910000000 1.0
C      1  0.5144760000000  0.5404120000000  0.3922320000000 1.0
C      1  0.5375450000000  0.4873580000000  0.3907700000000 1.0
C      1  0.5267210000000  0.5071660000000  0.5549150000000 1.0
C      1  0.5143780000000  0.4766780000000  0.5539750000000 1.0
C      1  0.4827590000000  0.4795860000000  0.5514220000000 1.0
C      1  0.4786170000000  0.5096260000000  0.5451000000000 1.0
C      1  0.5025890000000  0.5273860000000  0.5514150000000 1.0
C      1  0.5077540000000  0.4022960000000  0.4666830000000 1.0
C      1  0.4121080000000  0.4619300000000  0.4645130000000 1.0
C      1  0.4411980000000  0.5749440000000  0.4628960000000 1.0
C      1  0.5544410000000  0.5826560000000  0.4660090000000 1.0
C      1  0.5966360000000  0.4766120000000  0.4685720000000 1.0
C      1  0.4085580000000  0.5237790000000  0.4497760000000 1.0
C      1  0.4985550000000  0.5963660000000  0.4477230000000 1.0
C      1  0.5910030000000  0.5343460000000  0.4511430000000 1.0
C      1  0.5633180000000  0.4256120000000  0.4533850000000 1.0
C      1  0.4489220000000  0.4167060000000  0.4496530000000 1.0
C      1  0.4974350000000  0.5452930000000  0.5758650000000 1.0
C      1  0.5437160000000  0.5084410000000  0.5849300000000 1.0
C      1  0.5209160000000  0.4624250000000  0.5828260000000 1.0
C      1  0.4698260000000  0.4709900000000  0.5801760000000 1.0
C      1  0.4564620000000  0.5227840000000  0.5904110000000 1.0
C      1  0.5162040000000  0.6115190000000  0.5998910000000 1.0
C      1  0.6116230000000  0.5231360000000  0.6025500000000 1.0
C      1  0.5674880000000  0.4020970000000  0.5638310000000 1.0
C      1  0.4267590000000  0.4068940000000  0.5611100000000 1.0
C      1  0.3899540000000  0.5437290000000  0.5576880000000 1.0
C      1  0.5707220000000  0.5932060000000  0.5375400000000 1.0
C      1  0.6115050000000  0.4656560000000  0.5409560000000 1.0
C      1  0.4995460000000  0.3838680000000  0.5383120000000 1.0
C      1  0.3901600000000  0.4684380000000  0.5361660000000 1.0
C      1  0.4373590000000  0.5959750000000  0.5336290000000 1.0
C      1  0.5923240000000  0.5590390000000  0.5755500000000 1.0
C      1  0.5831210000000  0.4403430000000  0.5833970000000 1.0
C      1  0.4675980000000  0.4023660000000  0.5814300000000 1.0
C      1  0.3978840000000  0.5039020000000  0.5792700000000 1.0
C      1  0.4761100000000  0.6062920000000  0.5720440000000 1.0
C      1  0.5008540000000  0.5962520000000  0.5823550000000 1.0
C      1  0.5916670000000  0.5321950000000  0.5852840000000 1.0
C      1  0.5592050000000  0.4240730000000  0.5802360000000 1.0
C      1  0.4454660000000  0.4206840000000  0.5778340000000 1.0
C      1  0.4078370000000  0.5308520000000  0.5758170000000 1.0
C      1  0.4277680000000  0.4894600000000  0.5468350000000 1.0
C      1  0.4693890000000  0.5683270000000  0.5457440000000 1.0
C      1  0.5544490000000  0.5538490000000  0.5488850000000 1.0
C      1  0.5681880000000  0.4678940000000  0.5504680000000 1.0
C      1  0.4886530000000  0.4255990000000  0.5487860000000 1.0
C      1  0.3858250000000  0.5345350000000  0.5324700000000 1.0
C      1  0.5325860000000  0.6275100000000  0.6123490000000 1.0
C      1  0.6324360000000  0.5130580000000  0.6145740000000 1.0
C      1  0.5769040000000  0.4060010000000  0.5386380000000 1.0
C      1  0.4333810000000  0.3991300000000  0.5359190000000 1.0
C      1  0.5323440000000  0.4348830000000  0.5755910000000 1.0
C      1  0.4493370000000  0.4490330000000  0.5725220000000 1.0
C      1  0.4368220000000  0.5363520000000  0.5736680000000 1.0
C      1  0.5104110000000  0.5709550000000  0.5727950000000 1.0
C      1  0.5717670000000  0.5140220000000  0.5757950000000 1.0
C      1  0.4940960000000  0.4473170000000  0.3585650000000 1.0
C      1  0.4429680000000  0.4772810000000  0.3550480000000 1.0
C      1  0.4568980000000  0.5353160000000  0.3547870000000 1.0
C      1  0.5130570000000  0.5376810000000  0.3638880000000 1.0
C      1  0.5369910000000  0.4863650000000  0.3623150000000 1.0
C      1  0.4963050000000  0.4888610000000  0.6177620000000 1.0
C      1  0.5010920000000  0.4994020000000  0.5026920000000 1.0
C      1  0.5015280000000  0.5165290000000  0.6127090000000 1.0
END
