TITL C-3623283-6828-1054 -6038.54519964606 125000 -1180.91061987919 0 0 195 (C1) n - 1
REM
REM in /home/nfs/bkarasulu/CARBON/AIRSS/Generating-Clusters/LCBOP/Higher-Symm/SD-CG/FIRE-CG
REM
REM
REM
REM
REM
REM ./C.cell (b20cbc046b6831c77cfcea5457e17084)
REM AIRSS Version 0.9.1 bugfix July 2018 build 013d7b7c2542+ Fri, 06 Jul 2018 19:26:36 +0100
REM compiler GCC version 9.2.1 20190827 (Red Hat 9.2.1-1)
REM options -cpp -mtune=generic -march=x86-64 -g -O0 -fpre-include=/usr/include/finclude/math-vector-fortran.h
REM seed -2132359901 -1470583841 1927097406 660303006 -264668121 -1596483957 -1669009275 -2074215612 1579100244 -1469078716 -1950618219 455082889 983660018 817678523 -1669852143 -897066399 -471659078 74716096 1613418858 1524526642 -2041186184 1885730657 116114031 -1078904526 -1406708923 -113468578 -1860965021 -916015960 -1531402635 1993638022 2057033004 -716421737 1806845712
REM
CELL 1.54180   50.00000   50.00000   50.00000   90.00000   90.00000   90.00000
LATT -1
SFAC C  
C      1  0.4553250000000  0.4829790000000  0.5162970000000 1.0
C      1  0.4886300000000  0.5737080000000  0.5863370000000 1.0
C      1  0.5945990000000  0.4495140000000  0.4600610000000 1.0
C      1  0.4403880000000  0.4936560000000  0.4634370000000 1.0
C      1  0.5855620000000  0.5274320000000  0.4747960000000 1.0
C      1  0.5120530000000  0.6106900000000  0.5546740000000 1.0
C      1  0.4635760000000  0.4671730000000  0.6284470000000 1.0
C      1  0.5060980000000  0.4317030000000  0.3970150000000 1.0
C      1  0.5772500000000  0.5763050000000  0.5634220000000 1.0
C      1  0.4838450000000  0.4430550000000  0.5296750000000 1.0
C      1  0.5972540000000  0.5558700000000  0.5570980000000 1.0
C      1  0.4303010000000  0.5294740000000  0.6134720000000 1.0
C      1  0.4658090000000  0.6010200000000  0.5576320000000 1.0
C      1  0.5772260000000  0.5513020000000  0.4911740000000 1.0
C      1  0.5061920000000  0.4025650000000  0.5229820000000 1.0
C      1  0.5671530000000  0.5347380000000  0.4129990000000 1.0
C      1  0.5327320000000  0.4207930000000  0.4891840000000 1.0
C      1  0.5532970000000  0.4506870000000  0.5884540000000 1.0
C      1  0.4836660000000  0.4281650000000  0.4117780000000 1.0
C      1  0.4940680000000  0.5548360000000  0.5648650000000 1.0
C      1  0.4464910000000  0.5008200000000  0.5586540000000 1.0
C      1  0.4653800000000  0.4840620000000  0.4038400000000 1.0
C      1  0.4818100000000  0.3884510000000  0.5291550000000 1.0
C      1  0.5289970000000  0.4385580000000  0.5773580000000 1.0
C      1  0.4975960000000  0.5107130000000  0.4635520000000 1.0
C      1  0.3793080000000  0.4764110000000  0.4956090000000 1.0
C      1  0.4758740000000  0.4718480000000  0.6043530000000 1.0
C      1  0.5957410000000  0.4723370000000  0.4409050000000 1.0
C      1  0.4109060000000  0.4270040000000  0.4757220000000 1.0
C      1  0.5402330000000  0.6100120000000  0.5561300000000 1.0
C      1  0.5661570000000  0.3853370000000  0.4310820000000 1.0
C      1  0.5685490000000  0.5074590000000  0.5219810000000 1.0
C      1  0.5276160000000  0.4821430000000  0.5151780000000 1.0
C      1  0.5613670000000  0.5949620000000  0.4707780000000 1.0
C      1  0.6827740000000  0.4131380000000  0.4749060000000 1.0
C      1  0.5738280000000  0.5636550000000  0.4216750000000 1.0
C      1  0.5019960000000  0.4549340000000  0.4738430000000 1.0
C      1  0.5447970000000  0.5150710000000  0.4067040000000 1.0
C      1  0.4748960000000  0.6019160000000  0.4605530000000 1.0
C      1  0.4917240000000  0.6000090000000  0.5734790000000 1.0
C      1  0.5229730000000  0.5522290000000  0.5582570000000 1.0
C      1  0.3853450000000  0.4686430000000  0.4687180000000 1.0
C      1  0.4007850000000  0.4754460000000  0.4446310000000 1.0
C      1  0.4458150000000  0.4571450000000  0.5030650000000 1.0
C      1  0.3946200000000  0.5029070000000  0.4365210000000 1.0
C      1  0.3925380000000  0.4997000000000  0.5047910000000 1.0
C      1  0.4787280000000  0.5170690000000  0.4858450000000 1.0
C      1  0.6136290000000  0.4246880000000  0.5271480000000 1.0
C      1  0.6656970000000  0.4515730000000  0.4517380000000 1.0
C      1  0.5373690000000  0.5520790000000  0.5318290000000 1.0
C      1  0.5603790000000  0.5886490000000  0.5182630000000 1.0
C      1  0.4032310000000  0.5951610000000  0.5139050000000 1.0
C      1  0.4119830000000  0.5050610000000  0.5224430000000 1.0
C      1  0.4195740000000  0.4614610000000  0.5415340000000 1.0
C      1  0.5241270000000  0.4521180000000  0.4037180000000 1.0
C      1  0.4083440000000  0.4247160000000  0.5039820000000 1.0
C      1  0.5629540000000  0.5958800000000  0.5458780000000 1.0
C      1  0.4704100000000  0.4413030000000  0.5050950000000 1.0
C      1  0.5564770000000  0.6039000000000  0.4442680000000 1.0
C      1  0.4374950000000  0.5832570000000  0.4088000000000 1.0
C      1  0.4194480000000  0.5748070000000  0.4308090000000 1.0
C      1  0.6412310000000  0.4327520000000  0.4887610000000 1.0
C      1  0.4939270000000  0.5058020000000  0.5413730000000 1.0
C      1  0.5138500000000  0.3992500000000  0.4936850000000 1.0
C      1  0.5585990000000  0.4940290000000  0.5666930000000 1.0
C      1  0.4250820000000  0.4568630000000  0.4363410000000 1.0
C      1  0.5180850000000  0.5481640000000  0.5089650000000 1.0
C      1  0.4272300000000  0.6085660000000  0.5078380000000 1.0
C      1  0.3971570000000  0.4587100000000  0.5587870000000 1.0
C      1  0.4881240000000  0.3896030000000  0.4813600000000 1.0
C      1  0.5485210000000  0.3827640000000  0.5480250000000 1.0
C      1  0.4928450000000  0.5501320000000  0.4409250000000 1.0
C      1  0.5782270000000  0.4693840000000  0.4171180000000 1.0
C      1  0.6663390000000  0.4700370000000  0.4333560000000 1.0
C      1  0.5087790000000  0.5186650000000  0.4066480000000 1.0
C      1  0.4948580000000  0.4922150000000  0.6031090000000 1.0
C      1  0.4200280000000  0.5551270000000  0.5351260000000 1.0
C      1  0.5945750000000  0.4868930000000  0.5936110000000 1.0
C      1  0.4165550000000  0.4337850000000  0.5962660000000 1.0
C      1  0.4405200000000  0.4217410000000  0.5989560000000 1.0
C      1  0.4621790000000  0.5716940000000  0.5135060000000 1.0
C      1  0.4956100000000  0.5849940000000  0.4735030000000 1.0
C      1  0.5026280000000  0.4768200000000  0.4966640000000 1.0
C      1  0.4552050000000  0.5435090000000  0.6127830000000 1.0
C      1  0.5310460000000  0.4962910000000  0.5679520000000 1.0
C      1  0.4780770000000  0.4932920000000  0.5018430000000 1.0
C      1  0.4339280000000  0.5707590000000  0.4550640000000 1.0
C      1  0.4443950000000  0.5880790000000  0.5979370000000 1.0
C      1  0.5824750000000  0.4909320000000  0.5034400000000 1.0
C      1  0.5623650000000  0.3940710000000  0.4056370000000 1.0
C      1  0.3860300000000  0.5411610000000  0.4682930000000 1.0
C      1  0.4501740000000  0.4133760000000  0.4525730000000 1.0
C      1  0.5494890000000  0.4593620000000  0.5132560000000 1.0
C      1  0.4279370000000  0.4396360000000  0.5219920000000 1.0
C      1  0.4493860000000  0.5546260000000  0.5350840000000 1.0
C      1  0.5391770000000  0.5542080000000  0.5815620000000 1.0
C      1  0.4758670000000  0.5938220000000  0.5309070000000 1.0
C      1  0.4668300000000  0.4266820000000  0.5900900000000 1.0
C      1  0.4431020000000  0.6012660000000  0.5741560000000 1.0
C      1  0.5428220000000  0.4612730000000  0.4534850000000 1.0
C      1  0.4976860000000  0.6135230000000  0.5286560000000 1.0
C      1  0.4569020000000  0.6032270000000  0.4137780000000 1.0
C      1  0.4747590000000  0.4559110000000  0.5541700000000 1.0
C      1  0.5678850000000  0.4196170000000  0.3981860000000 1.0
C      1  0.5571510000000  0.4866730000000  0.4029760000000 1.0
C      1  0.5321510000000  0.5280540000000  0.4913760000000 1.0
C      1  0.5441440000000  0.5945220000000  0.4939930000000 1.0
C      1  0.5702240000000  0.4742820000000  0.5844200000000 1.0
C      1  0.5949760000000  0.4478160000000  0.4887660000000 1.0
C      1  0.5311600000000  0.5677690000000  0.4294150000000 1.0
C      1  0.5771160000000  0.5007260000000  0.4771520000000 1.0
C      1  0.4902030000000  0.4968210000000  0.4144330000000 1.0
C      1  0.4036850000000  0.5504960000000  0.4233260000000 1.0
C      1  0.5781000000000  0.4008850000000  0.4517950000000 1.0
C      1  0.4627940000000  0.6450870000000  0.5123590000000 1.0
C      1  0.3916420000000  0.5315730000000  0.4418870000000 1.0
C      1  0.6634760000000  0.4322720000000  0.4718550000000 1.0
C      1  0.5421590000000  0.5080190000000  0.5095170000000 1.0
C      1  0.5928490000000  0.5275550000000  0.5631220000000 1.0
C      1  0.5614770000000  0.5685740000000  0.5857490000000 1.0
C      1  0.5734370000000  0.5112620000000  0.5492650000000 1.0
C      1  0.3902200000000  0.4073650000000  0.5150000000000 1.0
C      1  0.5122380000000  0.4323300000000  0.5314960000000 1.0
C      1  0.3674720000000  0.4619020000000  0.5172540000000 1.0
C      1  0.5309090000000  0.3907160000000  0.5668790000000 1.0
C      1  0.5371870000000  0.4345430000000  0.5142810000000 1.0
C      1  0.4379710000000  0.6343370000000  0.5115080000000 1.0
C      1  0.4248450000000  0.5018630000000  0.6109770000000 1.0
C      1  0.4045210000000  0.4576230000000  0.5865620000000 1.0
C      1  0.4720250000000  0.4539140000000  0.5825830000000 1.0
C      1  0.4270910000000  0.4308720000000  0.4524260000000 1.0
C      1  0.4649640000000  0.5425270000000  0.4030170000000 1.0
C      1  0.4106360000000  0.4813510000000  0.6009410000000 1.0
C      1  0.6117860000000  0.3764860000000  0.4756060000000 1.0
C      1  0.4830710000000  0.4091150000000  0.5739060000000 1.0
C      1  0.5977070000000  0.5346180000000  0.4497330000000 1.0
C      1  0.4413560000000  0.5177470000000  0.4482290000000 1.0
C      1  0.4439950000000  0.4172800000000  0.5393830000000 1.0
C      1  0.5164330000000  0.5018530000000  0.5910620000000 1.0
C      1  0.4491080000000  0.5903810000000  0.4689370000000 1.0
C      1  0.3978470000000  0.5522000000000  0.5840770000000 1.0
C      1  0.4842150000000  0.5591570000000  0.4665860000000 1.0
C      1  0.4035100000000  0.5664020000000  0.5138740000000 1.0
C      1  0.4818150000000  0.4349910000000  0.4808480000000 1.0
C      1  0.5395900000000  0.4693060000000  0.3880130000000 1.0
C      1  0.4884840000000  0.6375480000000  0.5168430000000 1.0
C      1  0.4325270000000  0.4886440000000  0.5359730000000 1.0
C      1  0.5717310000000  0.3855680000000  0.4999090000000 1.0
C      1  0.5534080000000  0.5834460000000  0.4246530000000 1.0
C      1  0.4057210000000  0.5505630000000  0.5587780000000 1.0
C      1  0.5805680000000  0.5734200000000  0.4710720000000 1.0
C      1  0.4693510000000  0.5430810000000  0.5538680000000 1.0
C      1  0.5240140000000  0.4597820000000  0.4312120000000 1.0
C      1  0.4428240000000  0.5587260000000  0.3939920000000 1.0
C      1  0.5580360000000  0.4844560000000  0.4618860000000 1.0
C      1  0.5627700000000  0.5593380000000  0.5162670000000 1.0
C      1  0.4575130000000  0.4867380000000  0.3777060000000 1.0
C      1  0.5837250000000  0.4280560000000  0.4438070000000 1.0
C      1  0.6165940000000  0.4346650000000  0.5018340000000 1.0
C      1  0.4648480000000  0.5684630000000  0.6027180000000 1.0
C      1  0.3915670000000  0.5522910000000  0.4922960000000 1.0
C      1  0.4516480000000  0.4642220000000  0.4222780000000 1.0
C      1  0.4965020000000  0.4630920000000  0.4453280000000 1.0
C      1  0.6036390000000  0.5116560000000  0.5849330000000 1.0
C      1  0.4927160000000  0.4923140000000  0.4427950000000 1.0
C      1  0.5900130000000  0.5211600000000  0.4258190000000 1.0
C      1  0.3729260000000  0.4579600000000  0.5437880000000 1.0
C      1  0.4076420000000  0.5455730000000  0.6080620000000 1.0
C      1  0.4671230000000  0.4016120000000  0.5494210000000 1.0
C      1  0.4386130000000  0.4700090000000  0.4769810000000 1.0
C      1  0.4455180000000  0.5898310000000  0.4965510000000 1.0
C      1  0.5140170000000  0.4119270000000  0.5768610000000 1.0
C      1  0.5868230000000  0.3881330000000  0.4759950000000 1.0
C      1  0.4430870000000  0.5195970000000  0.4201420000000 1.0
C      1  0.4739400000000  0.4108070000000  0.4680620000000 1.0
C      1  0.4747720000000  0.4479350000000  0.4302360000000 1.0
C      1  0.5768060000000  0.4633530000000  0.5049120000000 1.0
C      1  0.6210020000000  0.5634920000000  0.5455310000000 1.0
C      1  0.4211800000000  0.5388570000000  0.4035430000000 1.0
C      1  0.5162680000000  0.4835070000000  0.5450420000000 1.0
C      1  0.5298580000000  0.4425540000000  0.4714060000000 1.0
C      1  0.5909730000000  0.5628750000000  0.4459800000000 1.0
C      1  0.4741240000000  0.3768980000000  0.5037900000000 1.0
C      1  0.5206110000000  0.4522800000000  0.5534180000000 1.0
C      1  0.5223620000000  0.5261250000000  0.4649450000000 1.0
C      1  0.4735160000000  0.5455230000000  0.4887680000000 1.0
C      1  0.4704650000000  0.5145580000000  0.5555490000000 1.0
C      1  0.4906490000000  0.5418430000000  0.4133750000000 1.0
C      1  0.5761380000000  0.4391610000000  0.4168480000000 1.0
C      1  0.5217780000000  0.5472580000000  0.4457460000000 1.0
C      1  0.5180080000000  0.5807680000000  0.4919450000000 1.0
C      1  0.5620640000000  0.3819840000000  0.5247680000000 1.0
C      1  0.4737680000000  0.6108170000000  0.4336800000000 1.0
C      1  0.4375560000000  0.5429780000000  0.4609680000000 1.0
C      1  0.4994860000000  0.5283820000000  0.5231850000000 1.0
END
