TITL C-3623287-7182-870 -1.49756023700267e-07 125000 -687.271235957782 0 0 110 (C3i) n - 1
REM
REM in /home/nfs/bkarasulu/CARBON/AIRSS/Generating-Clusters/LCBOP/Higher-Symm/SD-CG/FIRE-CG
REM
REM
REM
REM
REM
REM ./C.cell (b20cbc046b6831c77cfcea5457e17084)
REM AIRSS Version 0.9.1 bugfix July 2018 build 013d7b7c2542+ Fri, 06 Jul 2018 19:26:36 +0100
REM compiler GCC version 9.2.1 20190827 (Red Hat 9.2.1-1)
REM options -cpp -mtune=generic -march=x86-64 -g -O0 -fpre-include=/usr/include/finclude/math-vector-fortran.h
REM seed -1806322068 460155231 -815939015 971808052 769071424 1703111478 2117337013 -1493338249 838419138 -205495601 1655000249 93438298 341423367 -1089363439 318497372 -633648284 -705984366 217181379 2024428664 -611389559 -1246623982 1750633228 307832429 -1783626399 -17918837 -78547833 -1665273678 2006327264 281826048 234035026 2034654644 -2030953042 -1777242486
REM
CELL 1.54180   50.00000   50.00000   50.00000   90.00000   90.00000   90.00000
LATT -1
SFAC C  
C      1  0.5095040000000  0.5319650000000  0.4495910000000 1.0
C      1  0.4904970000000  0.4725740000000  0.4470450000000 1.0
C      1  0.5095040000000  0.4406740000000  0.4972060000000 1.0
C      1  0.4904960000000  0.4681650000000  0.5499130000000 1.0
C      1  0.5095030000000  0.5275560000000  0.5524590000000 1.0
C      1  0.4904960000000  0.5594560000000  0.5022980000000 1.0
C      1  0.4963200000000  0.5167480000000  0.4752410000000 1.0
C      1  0.5036800000000  0.4871800000000  0.4730490000000 1.0
C      1  0.4963200000000  0.4704960000000  0.4975600000000 1.0
C      1  0.5036800000000  0.4833820000000  0.5242630000000 1.0
C      1  0.4963200000000  0.5129510000000  0.5264560000000 1.0
C      1  0.5036800000000  0.5296340000000  0.5019450000000 1.0
C      1  0.4855950000000  0.5080400000000  0.4039050000000 1.0
C      1  0.5144060000000  0.4210470000000  0.4449220000000 1.0
C      1  0.4855950000000  0.4130720000000  0.5407690000000 1.0
C      1  0.5144050000000  0.4920900000000  0.5955990000000 1.0
C      1  0.4855940000000  0.5790830000000  0.5545820000000 1.0
C      1  0.5144050000000  0.5870580000000  0.4587350000000 1.0
C      1  0.4157350000000  0.5101940000000  0.4273370000000 1.0
C      1  0.5842650000000  0.4424160000000  0.4547730000000 1.0
C      1  0.4157350000000  0.4322870000000  0.5271880000000 1.0
C      1  0.5842650000000  0.4899370000000  0.5721670000000 1.0
C      1  0.4157350000000  0.5577140000000  0.5447310000000 1.0
C      1  0.5842650000000  0.5678430000000  0.4723170000000 1.0
C      1  0.4653200000000  0.5319710000000  0.4416650000000 1.0
C      1  0.5346800000000  0.4657130000000  0.4430770000000 1.0
C      1  0.4653200000000  0.4338070000000  0.5011640000000 1.0
C      1  0.5346800000000  0.4681590000000  0.5578400000000 1.0
C      1  0.4653200000000  0.5344170000000  0.5564270000000 1.0
C      1  0.5346800000000  0.5663230000000  0.4983400000000 1.0
C      1  0.5593560000000  0.5554790000000  0.4324500000000 1.0
C      1  0.4406440000000  0.4694860000000  0.4181110000000 1.0
C      1  0.5593560000000  0.4140720000000  0.4854140000000 1.0
C      1  0.4406440000000  0.4446510000000  0.5670550000000 1.0
C      1  0.5593560000000  0.5306440000000  0.5813940000000 1.0
C      1  0.4406440000000  0.5860580000000  0.5140910000000 1.0
C      1  0.5847970000000  0.4693980000000  0.4623650000000 1.0
C      1  0.4152040000000  0.4523530000000  0.5076170000000 1.0
C      1  0.5847960000000  0.4830210000000  0.5450050000000 1.0
C      1  0.4152030000000  0.5307330000000  0.5371390000000 1.0
C      1  0.5847960000000  0.5477770000000  0.4918870000000 1.0
C      1  0.4152040000000  0.5171090000000  0.4544990000000 1.0
C      1  0.4887660000000  0.4995110000000  0.5857370000000 1.0
C      1  0.5112330000000  0.5742530000000  0.5432250000000 1.0
C      1  0.4887670000000  0.5748080000000  0.4572400000000 1.0
C      1  0.5112340000000  0.5006200000000  0.4137670000000 1.0
C      1  0.4887670000000  0.4258770000000  0.4562790000000 1.0
C      1  0.5112330000000  0.4253220000000  0.5422650000000 1.0
C      1  0.5524020000000  0.4192100000000  0.5125130000000 1.0
C      1  0.4475980000000  0.4706890000000  0.5761550000000 1.0
C      1  0.5524020000000  0.5515440000000  0.5633950000000 1.0
C      1  0.4475980000000  0.5809200000000  0.4869910000000 1.0
C      1  0.5524020000000  0.5294410000000  0.4233490000000 1.0
C      1  0.4475980000000  0.4485860000000  0.4361100000000 1.0
C      1  0.5610720000000  0.5023440000000  0.5825990000000 1.0
C      1  0.4389270000000  0.5729520000000  0.5392020000000 1.0
C      1  0.5610730000000  0.5706730000000  0.4563560000000 1.0
C      1  0.4389280000000  0.4977860000000  0.4169060000000 1.0
C      1  0.5610730000000  0.4271790000000  0.4603030000000 1.0
C      1  0.4389270000000  0.4294570000000  0.5431490000000 1.0
C      1  0.4276900000000  0.4373210000000  0.4540250000000 1.0
C      1  0.5723100000000  0.4290920000000  0.5312270000000 1.0
C      1  0.4276900000000  0.4918360000000  0.5769540000000 1.0
C      1  0.5723100000000  0.5628100000000  0.5454800000000 1.0
C      1  0.4276900000000  0.5710380000000  0.4682770000000 1.0
C      1  0.5723100000000  0.5082940000000  0.4225500000000 1.0
C      1  0.5781010000000  0.5208980000000  0.4821510000000 1.0
C      1  0.4218990000000  0.4952380000000  0.4729090000000 1.0
C      1  0.5781010000000  0.4744050000000  0.4905110000000 1.0
C      1  0.4218990000000  0.4792320000000  0.5173540000000 1.0
C      1  0.5781010000000  0.5048920000000  0.5265950000000 1.0
C      1  0.4218990000000  0.5257250000000  0.5089930000000 1.0
C      1  0.4748810000000  0.5732230000000  0.4824290000000 1.0
C      1  0.5251190000000  0.5216420000000  0.4277340000000 1.0
C      1  0.4748820000000  0.4484840000000  0.4450570000000 1.0
C      1  0.5251190000000  0.4269070000000  0.5170750000000 1.0
C      1  0.4748810000000  0.4784880000000  0.5717700000000 1.0
C      1  0.5251180000000  0.5516460000000  0.5544470000000 1.0
C      1  0.4652050000000  0.4636640000000  0.4941830000000 1.0
C      1  0.5347950000000  0.4770420000000  0.5284920000000 1.0
C      1  0.4652050000000  0.5134430000000  0.5340610000000 1.0
C      1  0.5347950000000  0.5364660000000  0.5053210000000 1.0
C      1  0.4652050000000  0.5230880000000  0.4710130000000 1.0
C      1  0.5347950000000  0.4866880000000  0.4654440000000 1.0
C      1  0.5580180000000  0.5267770000000  0.5217220000000 1.0
C      1  0.4419810000000  0.5324470000000  0.4876040000000 1.0
C      1  0.5580190000000  0.5057360000000  0.4656340000000 1.0
C      1  0.4419820000000  0.4733530000000  0.4777820000000 1.0
C      1  0.5580190000000  0.4676830000000  0.5119000000000 1.0
C      1  0.4419810000000  0.4943940000000  0.5338700000000 1.0
C      1  0.4233430000000  0.5427890000000  0.4658160000000 1.0
C      1  0.5766580000000  0.4920370000000  0.4457840000000 1.0
C      1  0.4233430000000  0.4493130000000  0.4797200000000 1.0
C      1  0.5766570000000  0.4573410000000  0.5336890000000 1.0
C      1  0.4233420000000  0.5080930000000  0.5537200000000 1.0
C      1  0.5766570000000  0.5508170000000  0.5197840000000 1.0
C      1  0.5377070000000  0.4859890000000  0.5805310000000 1.0
C      1  0.4622920000000  0.5629830000000  0.5523310000000 1.0
C      1  0.5377070000000  0.5770590000000  0.4715530000000 1.0
C      1  0.4622930000000  0.5141410000000  0.4189740000000 1.0
C      1  0.5377080000000  0.4371470000000  0.4471730000000 1.0
C      1  0.4622930000000  0.4230710000000  0.5279510000000 1.0
C      1  0.5122020000000  0.5753160000000  0.5148170000000 1.0
C      1  0.4877980000000  0.5507370000000  0.4421150000000 1.0
C      1  0.5122020000000  0.4754860000000  0.4270510000000 1.0
C      1  0.4877980000000  0.4248140000000  0.4846880000000 1.0
C      1  0.5122020000000  0.4493940000000  0.5573890000000 1.0
C      1  0.4877980000000  0.5246440000000  0.5724530000000 1.0
C      1  0.4125560000000  0.5000650000000  0.4997520000000 1.0
C      1  0.5874440000000  0.5000650000000  0.4997520000000 1.0
END
