TITL C-3623289-7120-1982 -0.0303799137979652 125000 -716.829220344522 0 0 120 (C1) n - 1
REM
REM in /home/nfs/bkarasulu/CARBON/AIRSS/Generating-Clusters/LCBOP/Higher-Symm/SD-CG/FIRE-CG
REM
REM
REM
REM
REM
REM ./C.cell (b20cbc046b6831c77cfcea5457e17084)
REM AIRSS Version 0.9.1 bugfix July 2018 build 013d7b7c2542+ Fri, 06 Jul 2018 19:26:36 +0100
REM compiler GCC version 9.2.1 20190827 (Red Hat 9.2.1-1)
REM options -cpp -mtune=generic -march=x86-64 -g -O0 -fpre-include=/usr/include/finclude/math-vector-fortran.h
REM seed 1284218904 -457097189 1046185935 -1109842015 1479776724 234563763 -1595230163 1487687339 -266326692 843034470 1846984279 1224635764 -2113684784 -851142093 98290443 -16386834 2008489889 208124581 -1195725169 1051374437 12168066 -1570127995 1000743763 -1342297199 407157834 753578503 1775097716 -1056090702 -638024244 1887730819 -1612900932 531128726 -194759180
REM
CELL 1.54180   50.00000   50.00000   50.00000   90.00000   90.00000   90.00000
LATT -1
SFAC C  
C      1  0.4790360000000  0.4065010000000  0.5185340000000 1.0
C      1  0.4359960000000  0.5635850000000  0.5261270000000 1.0
C      1  0.5861370000000  0.5248330000000  0.5252980000000 1.0
C      1  0.5121360000000  0.5946030000000  0.5286860000000 1.0
C      1  0.5703910000000  0.4425060000000  0.5300850000000 1.0
C      1  0.4221610000000  0.4601810000000  0.5337270000000 1.0
C      1  0.5143860000000  0.5798350000000  0.4032410000000 1.0
C      1  0.5859810000000  0.4445050000000  0.4045670000000 1.0
C      1  0.4135530000000  0.4690300000000  0.4094070000000 1.0
C      1  0.4627550000000  0.5045250000000  0.5532790000000 1.0
C      1  0.5234840000000  0.5344120000000  0.5506410000000 1.0
C      1  0.5051000000000  0.4543610000000  0.5547580000000 1.0
C      1  0.5218720000000  0.4963670000000  0.4792820000000 1.0
C      1  0.4967910000000  0.4829570000000  0.4745140000000 1.0
C      1  0.4858540000000  0.5248600000000  0.4735990000000 1.0
C      1  0.5788080000000  0.5577260000000  0.5105650000000 1.0
C      1  0.5107970000000  0.4004240000000  0.5043980000000 1.0
C      1  0.4114350000000  0.5394900000000  0.5136620000000 1.0
C      1  0.4360780000000  0.4383590000000  0.4943400000000 1.0
C      1  0.4834820000000  0.5858160000000  0.4921040000000 1.0
C      1  0.5812530000000  0.4711850000000  0.4932690000000 1.0
C      1  0.4659140000000  0.5808820000000  0.5181510000000 1.0
C      1  0.5844840000000  0.4896370000000  0.5203080000000 1.0
C      1  0.4526320000000  0.4238400000000  0.5174830000000 1.0
C      1  0.3913100000000  0.4945420000000  0.4715070000000 1.0
C      1  0.5535870000000  0.5949390000000  0.4645220000000 1.0
C      1  0.5561480000000  0.4104560000000  0.4630200000000 1.0
C      1  0.5808410000000  0.5295220000000  0.4407540000000 1.0
C      1  0.4873820000000  0.4237750000000  0.4354490000000 1.0
C      1  0.4325410000000  0.5514680000000  0.4422410000000 1.0
C      1  0.5830430000000  0.5557090000000  0.4549370000000 1.0
C      1  0.5092660000000  0.4064070000000  0.4479810000000 1.0
C      1  0.4091270000000  0.5403040000000  0.4580410000000 1.0
C      1  0.5441630000000  0.4773220000000  0.5830940000000 1.0
C      1  0.4519290000000  0.4650630000000  0.5891640000000 1.0
C      1  0.4925180000000  0.5603880000000  0.5794950000000 1.0
C      1  0.4433410000000  0.5489540000000  0.4855110000000 1.0
C      1  0.5706230000000  0.5236180000000  0.4839540000000 1.0
C      1  0.4893760000000  0.4302190000000  0.4799360000000 1.0
C      1  0.5055520000000  0.5638280000000  0.4541360000000 1.0
C      1  0.5596510000000  0.4641800000000  0.4475060000000 1.0
C      1  0.4378260000000  0.4712290000000  0.4575590000000 1.0
C      1  0.5424810000000  0.5015990000000  0.5199510000000 1.0
C      1  0.4805170000000  0.4628580000000  0.5143910000000 1.0
C      1  0.4779800000000  0.5342500000000  0.5194700000000 1.0
C      1  0.5232960000000  0.4567310000000  0.5098080000000 1.0
C      1  0.4532060000000  0.5004800000000  0.5002450000000 1.0
C      1  0.5256600000000  0.5418690000000  0.4990670000000 1.0
C      1  0.4546810000000  0.5305880000000  0.5028950000000 1.0
C      1  0.5487020000000  0.5224650000000  0.5011810000000 1.0
C      1  0.4987970000000  0.4466100000000  0.4998070000000 1.0
C      1  0.4738440000000  0.5063130000000  0.4290230000000 1.0
C      1  0.5220590000000  0.5088870000000  0.4294250000000 1.0
C      1  0.4980740000000  0.4885100000000  0.4250640000000 1.0
C      1  0.5745470000000  0.4425840000000  0.5005980000000 1.0
C      1  0.4147950000000  0.4571160000000  0.5046960000000 1.0
C      1  0.5116230000000  0.5963000000000  0.4985690000000 1.0
C      1  0.4857320000000  0.5883030000000  0.5395570000000 1.0
C      1  0.5756470000000  0.4690380000000  0.5419850000000 1.0
C      1  0.4489680000000  0.4440990000000  0.5434920000000 1.0
C      1  0.5446970000000  0.4946910000000  0.6052780000000 1.0
C      1  0.4504450000000  0.4640130000000  0.6170560000000 1.0
C      1  0.4975170000000  0.5594060000000  0.6069000000000 1.0
C      1  0.5698680000000  0.4725570000000  0.5700110000000 1.0
C      1  0.4453070000000  0.4416020000000  0.5736380000000 1.0
C      1  0.4813720000000  0.5838080000000  0.5672460000000 1.0
C      1  0.5424010000000  0.5163850000000  0.4114740000000 1.0
C      1  0.4935700000000  0.4664710000000  0.4050510000000 1.0
C      1  0.4588880000000  0.5219030000000  0.4109280000000 1.0
C      1  0.4144050000000  0.5460810000000  0.4861110000000 1.0
C      1  0.5831210000000  0.5499040000000  0.4834330000000 1.0
C      1  0.5038890000000  0.4055910000000  0.4768370000000 1.0
C      1  0.5734870000000  0.4533940000000  0.4256370000000 1.0
C      1  0.4241550000000  0.4711030000000  0.4331250000000 1.0
C      1  0.5108370000000  0.5725680000000  0.4280120000000 1.0
C      1  0.5249250000000  0.4452480000000  0.5364060000000 1.0
C      1  0.4473460000000  0.4960660000000  0.5311770000000 1.0
C      1  0.5277390000000  0.5520940000000  0.5290870000000 1.0
C      1  0.5184410000000  0.4667640000000  0.5763470000000 1.0
C      1  0.4601560000000  0.4892150000000  0.5767240000000 1.0
C      1  0.4983670000000  0.5381810000000  0.5628870000000 1.0
C      1  0.5460370000000  0.4263600000000  0.5344940000000 1.0
C      1  0.4206820000000  0.4892220000000  0.5368530000000 1.0
C      1  0.5363320000000  0.5786380000000  0.5329730000000 1.0
C      1  0.5706260000000  0.5804210000000  0.4492190000000 1.0
C      1  0.5373380000000  0.4053300000000  0.4439820000000 1.0
C      1  0.3944810000000  0.5161360000000  0.4552090000000 1.0
C      1  0.5672960000000  0.5256800000000  0.4163430000000 1.0
C      1  0.4894370000000  0.4401380000000  0.4120660000000 1.0
C      1  0.4408750000000  0.5411110000000  0.4172840000000 1.0
C      1  0.4780750000000  0.5270320000000  0.5470620000000 1.0
C      1  0.5354040000000  0.5094930000000  0.5458430000000 1.0
C      1  0.4784860000000  0.4565230000000  0.5421310000000 1.0
C      1  0.4536350000000  0.5607940000000  0.4615310000000 1.0
C      1  0.5775920000000  0.5081550000000  0.4611540000000 1.0
C      1  0.4708470000000  0.4339670000000  0.4585110000000 1.0
C      1  0.5038480000000  0.4705240000000  0.4494630000000 1.0
C      1  0.4672450000000  0.5111590000000  0.4564020000000 1.0
C      1  0.5264320000000  0.5169810000000  0.4577180000000 1.0
C      1  0.5748640000000  0.4802690000000  0.4661310000000 1.0
C      1  0.4466440000000  0.4458010000000  0.4679760000000 1.0
C      1  0.4801360000000  0.5722220000000  0.4664200000000 1.0
C      1  0.5577590000000  0.5805920000000  0.5127580000000 1.0
C      1  0.5392050000000  0.4088740000000  0.5110950000000 1.0
C      1  0.4047270000000  0.5051440000000  0.5181820000000 1.0
C      1  0.5464540000000  0.5105090000000  0.6259110000000 1.0
C      1  0.4494950000000  0.4630960000000  0.6430840000000 1.0
C      1  0.5005040000000  0.5596500000000  0.6327880000000 1.0
C      1  0.4786020000000  0.4849530000000  0.4977360000000 1.0
C      1  0.4978940000000  0.5314120000000  0.4999090000000 1.0
C      1  0.5318740000000  0.4823620000000  0.5028150000000 1.0
C      1  0.5917230000000  0.4705150000000  0.5868710000000 1.0
C      1  0.4363440000000  0.4182000000000  0.5845480000000 1.0
C      1  0.4664680000000  0.6015110000000  0.5818670000000 1.0
C      1  0.5412980000000  0.5932650000000  0.4899930000000 1.0
C      1  0.5588050000000  0.4194560000000  0.4898200000000 1.0
C      1  0.4004450000000  0.4841110000000  0.4964010000000 1.0
C      1  0.4454910000000  0.4962690000000  0.4700360000000 1.0
C      1  0.5250380000000  0.5457990000000  0.4673350000000 1.0
C      1  0.5312790000000  0.4603390000000  0.4486670000000 1.0
END
