TITL C-3623287-7182-885 -2.87048141623157e-07 125000 -583.79664355038 0 0 94 (C1) n - 1
REM
REM in /home/nfs/bkarasulu/CARBON/AIRSS/Generating-Clusters/LCBOP/Higher-Symm/SD-CG/FIRE-CG
REM
REM
REM
REM
REM
REM ./C.cell (b20cbc046b6831c77cfcea5457e17084)
REM AIRSS Version 0.9.1 bugfix July 2018 build 013d7b7c2542+ Fri, 06 Jul 2018 19:26:36 +0100
REM compiler GCC version 9.2.1 20190827 (Red Hat 9.2.1-1)
REM options -cpp -mtune=generic -march=x86-64 -g -O0 -fpre-include=/usr/include/finclude/math-vector-fortran.h
REM seed 402743471 1316962806 -1907163242 -1627468699 -251984769 -1748261744 -1747675931 1314036042 655179639 -756659592 -35906776 -437684444 1459267587 -792612697 -1027191357 1618675314 -910177011 1832543305 606452308 -1486419043 -470831735 -822095687 -1172773897 368525495 817123026 669463791 679176559 -866172045 -575537771 938518190 -904295410 -1046857857 -653257015
REM
CELL 1.54180   50.00000   50.00000   50.00000   90.00000   90.00000   90.00000
LATT -1
SFAC C  
C      1  0.4267840000000  0.5331430000000  0.5452870000000 1.0
C      1  0.5580960000000  0.5144430000000  0.5387980000000 1.0
C      1  0.5415100000000  0.5093200000000  0.4143780000000 1.0
C      1  0.5128490000000  0.5480890000000  0.5912690000000 1.0
C      1  0.5744570000000  0.5597670000000  0.4528430000000 1.0
C      1  0.4194480000000  0.5376970000000  0.4663970000000 1.0
C      1  0.3883430000000  0.5024750000000  0.4843700000000 1.0
C      1  0.5425780000000  0.5097790000000  0.6077340000000 1.0
C      1  0.5872730000000  0.5191690000000  0.4242000000000 1.0
C      1  0.5165610000000  0.5221140000000  0.4776730000000 1.0
C      1  0.4751760000000  0.5326860000000  0.4966010000000 1.0
C      1  0.5063520000000  0.5175860000000  0.5280780000000 1.0
C      1  0.5075920000000  0.5378450000000  0.4548120000000 1.0
C      1  0.4638320000000  0.5508410000000  0.5147230000000 1.0
C      1  0.5527970000000  0.5718230000000  0.5330200000000 1.0
C      1  0.5887960000000  0.5416130000000  0.4389910000000 1.0
C      1  0.4096330000000  0.5095350000000  0.4668230000000 1.0
C      1  0.5243430000000  0.5293440000000  0.6066390000000 1.0
C      1  0.5154030000000  0.4452370000000  0.4383150000000 1.0
C      1  0.4512700000000  0.4510430000000  0.5228610000000 1.0
C      1  0.5439390000000  0.4619150000000  0.5140700000000 1.0
C      1  0.4173860000000  0.5094810000000  0.5334930000000 1.0
C      1  0.5305230000000  0.5044150000000  0.5330300000000 1.0
C      1  0.5215760000000  0.4917000000000  0.4235770000000 1.0
C      1  0.4967290000000  0.4736280000000  0.5328100000000 1.0
C      1  0.5323300000000  0.4773070000000  0.4694190000000 1.0
C      1  0.4516940000000  0.4934490000000  0.4968480000000 1.0
C      1  0.4776840000000  0.4613380000000  0.5171360000000 1.0
C      1  0.5348520000000  0.4552460000000  0.4879430000000 1.0
C      1  0.4726740000000  0.4750490000000  0.4936130000000 1.0
C      1  0.4869080000000  0.5803540000000  0.4775110000000 1.0
C      1  0.5046170000000  0.5793720000000  0.5228670000000 1.0
C      1  0.5104360000000  0.5784520000000  0.4945620000000 1.0
C      1  0.3900650000000  0.4633480000000  0.5171890000000 1.0
C      1  0.5561040000000  0.4755410000000  0.5710150000000 1.0
C      1  0.5744660000000  0.4714730000000  0.4161410000000 1.0
C      1  0.4599180000000  0.5149010000000  0.4811120000000 1.0
C      1  0.4878770000000  0.4999520000000  0.5419630000000 1.0
C      1  0.5387870000000  0.5039590000000  0.4771650000000 1.0
C      1  0.4497860000000  0.4370350000000  0.4768940000000 1.0
C      1  0.4796770000000  0.4191280000000  0.5437710000000 1.0
C      1  0.5187500000000  0.4316510000000  0.4842260000000 1.0
C      1  0.4385350000000  0.5581020000000  0.4762830000000 1.0
C      1  0.5169810000000  0.5597870000000  0.5659940000000 1.0
C      1  0.5471720000000  0.5635680000000  0.4595190000000 1.0
C      1  0.4481430000000  0.4282210000000  0.5058410000000 1.0
C      1  0.5050450000000  0.4124510000000  0.5313410000000 1.0
C      1  0.5024420000000  0.4316760000000  0.4602060000000 1.0
C      1  0.5334080000000  0.4572390000000  0.5717330000000 1.0
C      1  0.5969590000000  0.4644750000000  0.4316540000000 1.0
C      1  0.3913150000000  0.4437500000000  0.4966560000000 1.0
C      1  0.5560010000000  0.4506520000000  0.4100320000000 1.0
C      1  0.4077230000000  0.4609280000000  0.5398560000000 1.0
C      1  0.5698830000000  0.4863240000000  0.5465360000000 1.0
C      1  0.4564420000000  0.4710290000000  0.5628540000000 1.0
C      1  0.5809920000000  0.4866960000000  0.4976510000000 1.0
C      1  0.4297510000000  0.4882230000000  0.4576030000000 1.0
C      1  0.4964860000000  0.5646890000000  0.5465480000000 1.0
C      1  0.5376600000000  0.5683860000000  0.4866940000000 1.0
C      1  0.4665670000000  0.5640640000000  0.4638910000000 1.0
C      1  0.4302990000000  0.4963550000000  0.5139800000000 1.0
C      1  0.5246890000000  0.4759390000000  0.5289820000000 1.0
C      1  0.5197880000000  0.4729320000000  0.4442890000000 1.0
C      1  0.4538160000000  0.5053920000000  0.4540260000000 1.0
C      1  0.4643720000000  0.5007040000000  0.5584990000000 1.0
C      1  0.5638950000000  0.5092540000000  0.4906580000000 1.0
C      1  0.5290710000000  0.5503890000000  0.4414000000000 1.0
C      1  0.4384380000000  0.5609680000000  0.5058500000000 1.0
C      1  0.5443690000000  0.5590890000000  0.5568170000000 1.0
C      1  0.5630910000000  0.5293170000000  0.5114910000000 1.0
C      1  0.4654080000000  0.5227830000000  0.4354120000000 1.0
C      1  0.4540680000000  0.5294050000000  0.5559460000000 1.0
C      1  0.6064410000000  0.4673970000000  0.4564310000000 1.0
C      1  0.4036300000000  0.4469100000000  0.4727310000000 1.0
C      1  0.5071050000000  0.4498090000000  0.5733430000000 1.0
C      1  0.4358360000000  0.4603610000000  0.5448750000000 1.0
C      1  0.5703230000000  0.4720840000000  0.5202280000000 1.0
C      1  0.5341890000000  0.4368780000000  0.4187380000000 1.0
C      1  0.4590290000000  0.4083090000000  0.5243670000000 1.0
C      1  0.5153850000000  0.4148820000000  0.5065770000000 1.0
C      1  0.4740840000000  0.4305520000000  0.4629340000000 1.0
C      1  0.4803180000000  0.5439920000000  0.4470940000000 1.0
C      1  0.4719700000000  0.5496770000000  0.5427400000000 1.0
C      1  0.5539020000000  0.5572280000000  0.5084560000000 1.0
C      1  0.4296910000000  0.4578210000000  0.4661150000000 1.0
C      1  0.4804140000000  0.4436960000000  0.5630960000000 1.0
C      1  0.6006780000000  0.4767890000000  0.4806830000000 1.0
C      1  0.5572800000000  0.4917500000000  0.5943940000000 1.0
C      1  0.5685530000000  0.4997570000000  0.4151480000000 1.0
C      1  0.3812010000000  0.4882640000000  0.5063280000000 1.0
C      1  0.5367550000000  0.5371540000000  0.4176130000000 1.0
C      1  0.4212470000000  0.5563090000000  0.5284710000000 1.0
C      1  0.5584930000000  0.5346280000000  0.5605380000000 1.0
C      1  0.5015290000000  0.5253680000000  0.5014160000000 1.0
END
