TITL C-3623284-6838-1546 -2.61547890087502e-05 125000 -199.546169873346 0 0 34 (C1) n - 1
REM
REM in /home/nfs/bkarasulu/CARBON/AIRSS/Generating-Clusters/LCBOP/Higher-Symm/SD-CG/FIRE-CG
REM
REM
REM
REM
REM
REM ./C.cell (b20cbc046b6831c77cfcea5457e17084)
REM AIRSS Version 0.9.1 bugfix July 2018 build 013d7b7c2542+ Fri, 06 Jul 2018 19:26:36 +0100
REM compiler GCC version 9.2.1 20190827 (Red Hat 9.2.1-1)
REM options -cpp -mtune=generic -march=x86-64 -g -O0 -fpre-include=/usr/include/finclude/math-vector-fortran.h
REM seed -1575699109 647086198 1403596189 2009203007 2064033244 2058847003 -417857351 1629616234 1303093516 1759191665 586441031 -1337809585 1498300642 -863235583 1009742902 -1228316867 803928243 1128723155 -2062026928 825982031 -1470042413 1476240022 -1117956413 504021146 1380628756 622810797 1854598673 1515428110 -184157115 1625193277 -1963615302 -879878598 1928342211
REM
CELL 1.54180   50.00000   50.00000   50.00000   90.00000   90.00000   90.00000
LATT -1
SFAC C  
C      1  0.5284100000000  0.5423240000000  0.5303960000000 1.0
C      1  0.5238290000000  0.4989220000000  0.4511310000000 1.0
C      1  0.4930530000000  0.5470310000000  0.4751800000000 1.0
C      1  0.5018240000000  0.5413280000000  0.5320900000000 1.0
C      1  0.4529650000000  0.5355680000000  0.5314210000000 1.0
C      1  0.3961060000000  0.5172830000000  0.4869090000000 1.0
C      1  0.4992300000000  0.4626420000000  0.5087960000000 1.0
C      1  0.4774000000000  0.4762190000000  0.4972630000000 1.0
C      1  0.5267560000000  0.4581540000000  0.5109960000000 1.0
C      1  0.5846510000000  0.4612120000000  0.4638090000000 1.0
C      1  0.4782290000000  0.5337110000000  0.5187960000000 1.0
C      1  0.5447410000000  0.5132170000000  0.4640320000000 1.0
C      1  0.4982000000000  0.4951860000000  0.4583070000000 1.0
C      1  0.4520810000000  0.4645230000000  0.4967470000000 1.0
C      1  0.5629910000000  0.4867440000000  0.5317020000000 1.0
C      1  0.4285240000000  0.4518280000000  0.4883890000000 1.0
C      1  0.5848190000000  0.4856210000000  0.5488670000000 1.0
C      1  0.5503930000000  0.5314090000000  0.5199340000000 1.0
C      1  0.4266790000000  0.4245810000000  0.4878160000000 1.0
C      1  0.5416760000000  0.4681680000000  0.5328210000000 1.0
C      1  0.4097030000000  0.5356490000000  0.5005170000000 1.0
C      1  0.3950830000000  0.4916960000000  0.4796800000000 1.0
C      1  0.6054580000000  0.4848250000000  0.5647580000000 1.0
C      1  0.4302970000000  0.5416550000000  0.5161720000000 1.0
C      1  0.4815650000000  0.5266620000000  0.4913290000000 1.0
C      1  0.4831100000000  0.4995920000000  0.4818870000000 1.0
C      1  0.4505360000000  0.5309460000000  0.5582950000000 1.0
C      1  0.4069630000000  0.4679360000000  0.4806420000000 1.0
C      1  0.5175810000000  0.5543580000000  0.4668750000000 1.0
C      1  0.5409560000000  0.5411780000000  0.4638720000000 1.0
C      1  0.5595470000000  0.4985970000000  0.4836060000000 1.0
C      1  0.5632170000000  0.4706250000000  0.4777600000000 1.0
C      1  0.5427780000000  0.4538270000000  0.4879990000000 1.0
C      1  0.5606480000000  0.5067810000000  0.5112060000000 1.0
END
