TITL C-3623286-7563-870 584.097952878904 125000 -897.769928229736 0 0 149 (C1) n - 1
REM
REM in /home/nfs/bkarasulu/CARBON/AIRSS/Generating-Clusters/LCBOP/Higher-Symm/SD-CG/FIRE-CG
REM
REM
REM
REM
REM
REM ./C.cell (b20cbc046b6831c77cfcea5457e17084)
REM AIRSS Version 0.9.1 bugfix July 2018 build 013d7b7c2542+ Fri, 06 Jul 2018 19:26:36 +0100
REM compiler GCC version 9.2.1 20190827 (Red Hat 9.2.1-1)
REM options -cpp -mtune=generic -march=x86-64 -g -O0 -fpre-include=/usr/include/finclude/math-vector-fortran.h
REM seed 1269834064 -1405312459 520654906 -867211841 1260904755 239528424 -1556970484 -273592853 -1554274595 949598109 1625151767 236394280 -478250827 -1586169400 -313782260 756054002 -256914752 2120299339 -1702709041 851364713 1658950645 -300658268 -1945520613 1173279045 -255961234 -1010247009 -2035855373 -1555993137 1983880175 -1763182621 503947128 -1222932968 -1407846066
REM
CELL 1.54180   50.00000   50.00000   50.00000   90.00000   90.00000   90.00000
LATT -1
SFAC C  
C      1  0.5745910000000  0.4779260000000  0.5663970000000 1.0
C      1  0.4032590000000  0.4686390000000  0.5379510000000 1.0
C      1  0.5148170000000  0.4869770000000  0.4012040000000 1.0
C      1  0.4128200000000  0.5079140000000  0.5640110000000 1.0
C      1  0.5818980000000  0.5096510000000  0.5309140000000 1.0
C      1  0.4795810000000  0.5197810000000  0.3974390000000 1.0
C      1  0.4654010000000  0.4668820000000  0.4080770000000 1.0
C      1  0.6032750000000  0.4702000000000  0.5126050000000 1.0
C      1  0.4189850000000  0.4665420000000  0.5864180000000 1.0
C      1  0.5414730000000  0.5279710000000  0.3954080000000 1.0
C      1  0.3910160000000  0.5245650000000  0.5202140000000 1.0
C      1  0.5524830000000  0.5288440000000  0.5713560000000 1.0
C      1  0.3878690000000  0.3964790000000  0.4624110000000 1.0
C      1  0.5246500000000  0.4253430000000  0.4077370000000 1.0
C      1  0.5409080000000  0.4090050000000  0.6338380000000 1.0
C      1  0.5913260000000  0.5691790000000  0.5248690000000 1.0
C      1  0.4169370000000  0.6045700000000  0.4032680000000 1.0
C      1  0.4888400000000  0.5998350000000  0.6141910000000 1.0
C      1  0.5509880000000  0.4009470000000  0.4857590000000 1.0
C      1  0.4829490000000  0.3665250000000  0.5563420000000 1.0
C      1  0.4772140000000  0.3994930000000  0.4811240000000 1.0
C      1  0.4299020000000  0.6203460000000  0.4765730000000 1.0
C      1  0.5070920000000  0.6027170000000  0.5423280000000 1.0
C      1  0.5520800000000  0.6152830000000  0.4665680000000 1.0
C      1  0.5653630000000  0.4410200000000  0.4378270000000 1.0
C      1  0.5183430000000  0.4363130000000  0.5929950000000 1.0
C      1  0.4203820000000  0.4374020000000  0.4540240000000 1.0
C      1  0.4580970000000  0.5764340000000  0.4210870000000 1.0
C      1  0.4940170000000  0.5511500000000  0.5941080000000 1.0
C      1  0.5892390000000  0.5611580000000  0.4719230000000 1.0
C      1  0.5691800000000  0.5126890000000  0.5562820000000 1.0
C      1  0.3970920000000  0.5231640000000  0.5462910000000 1.0
C      1  0.5149010000000  0.5166220000000  0.3956610000000 1.0
C      1  0.4086160000000  0.4794700000000  0.5634740000000 1.0
C      1  0.5919560000000  0.4819340000000  0.5356860000000 1.0
C      1  0.4864620000000  0.4830290000000  0.3986780000000 1.0
C      1  0.4616150000000  0.5801270000000  0.5399320000000 1.0
C      1  0.5183220000000  0.5968920000000  0.4232500000000 1.0
C      1  0.5446510000000  0.5857260000000  0.5094330000000 1.0
C      1  0.5583760000000  0.4087560000000  0.5376470000000 1.0
C      1  0.5125370000000  0.4203980000000  0.4559640000000 1.0
C      1  0.4484370000000  0.4174190000000  0.5179870000000 1.0
C      1  0.5488220000000  0.4290850000000  0.4197220000000 1.0
C      1  0.5294540000000  0.4226170000000  0.6142110000000 1.0
C      1  0.4035870000000  0.4171840000000  0.4572480000000 1.0
C      1  0.4377570000000  0.5902210000000  0.4112100000000 1.0
C      1  0.4914170000000  0.5749970000000  0.6053130000000 1.0
C      1  0.5948050000000  0.5686580000000  0.4977140000000 1.0
C      1  0.3963960000000  0.6188620000000  0.3959580000000 1.0
C      1  0.5782160000000  0.5651640000000  0.5486080000000 1.0
C      1  0.4863020000000  0.6246300000000  0.6218290000000 1.0
C      1  0.4976320000000  0.4281460000000  0.4058070000000 1.0
C      1  0.3726890000000  0.3760030000000  0.4678790000000 1.0
C      1  0.5522790000000  0.3955600000000  0.6530620000000 1.0
C      1  0.4534110000000  0.4745930000000  0.4848780000000 1.0
C      1  0.5251060000000  0.4990190000000  0.4608320000000 1.0
C      1  0.5137190000000  0.4584030000000  0.5503070000000 1.0
C      1  0.5419580000000  0.5162320000000  0.4744900000000 1.0
C      1  0.4732910000000  0.5456570000000  0.4565110000000 1.0
C      1  0.4916120000000  0.5205610000000  0.5540620000000 1.0
C      1  0.5505490000000  0.5509740000000  0.4401900000000 1.0
C      1  0.5307170000000  0.5608640000000  0.5457170000000 1.0
C      1  0.4356510000000  0.5463420000000  0.4931040000000 1.0
C      1  0.4686890000000  0.4386870000000  0.4464100000000 1.0
C      1  0.4737280000000  0.4394960000000  0.5760610000000 1.0
C      1  0.5639580000000  0.4604920000000  0.4841950000000 1.0
C      1  0.4650220000000  0.5017130000000  0.4883410000000 1.0
C      1  0.4983080000000  0.5060880000000  0.4573900000000 1.0
C      1  0.5039910000000  0.4785430000000  0.5324150000000 1.0
C      1  0.5255000000000  0.4853170000000  0.5138000000000 1.0
C      1  0.4780780000000  0.5210710000000  0.4698430000000 1.0
C      1  0.4844810000000  0.5013060000000  0.5344290000000 1.0
C      1  0.4373520000000  0.5178950000000  0.5758080000000 1.0
C      1  0.4557090000000  0.5220700000000  0.4116130000000 1.0
C      1  0.5797630000000  0.5196670000000  0.5040210000000 1.0
C      1  0.5539600000000  0.4751430000000  0.5849410000000 1.0
C      1  0.5356650000000  0.4786770000000  0.4189930000000 1.0
C      1  0.4134590000000  0.4706490000000  0.5116620000000 1.0
C      1  0.5010250000000  0.5988780000000  0.4828360000000 1.0
C      1  0.4735740000000  0.6004300000000  0.4807480000000 1.0
C      1  0.5199010000000  0.5832230000000  0.4670020000000 1.0
C      1  0.5101070000000  0.4039900000000  0.5414290000000 1.0
C      1  0.5306590000000  0.4350580000000  0.5092550000000 1.0
C      1  0.5083430000000  0.4157500000000  0.5154080000000 1.0
C      1  0.5450080000000  0.6109680000000  0.4945590000000 1.0
C      1  0.4807080000000  0.5984050000000  0.5431900000000 1.0
C      1  0.5163390000000  0.6115040000000  0.4005290000000 1.0
C      1  0.4550580000000  0.4010870000000  0.4978550000000 1.0
C      1  0.5817830000000  0.3991000000000  0.5475170000000 1.0
C      1  0.5250940000000  0.4012590000000  0.4738150000000 1.0
C      1  0.4941220000000  0.4522150000000  0.5931610000000 1.0
C      1  0.4395560000000  0.4591330000000  0.4538740000000 1.0
C      1  0.5707890000000  0.4633950000000  0.4557230000000 1.0
C      1  0.4994270000000  0.5247790000000  0.5825560000000 1.0
C      1  0.5763070000000  0.5425590000000  0.4530800000000 1.0
C      1  0.4190660000000  0.5283800000000  0.4779850000000 1.0
C      1  0.5243320000000  0.5602180000000  0.4501910000000 1.0
C      1  0.5280150000000  0.5419090000000  0.5239760000000 1.0
C      1  0.4508570000000  0.5373670000000  0.5165840000000 1.0
C      1  0.4884590000000  0.4587280000000  0.4547880000000 1.0
C      1  0.4606030000000  0.4499160000000  0.5528960000000 1.0
C      1  0.5387580000000  0.4620300000000  0.5006430000000 1.0
C      1  0.4033310000000  0.4864150000000  0.4901780000000 1.0
C      1  0.5622670000000  0.4901230000000  0.4162790000000 1.0
C      1  0.5295500000000  0.4886050000000  0.5920900000000 1.0
C      1  0.5972210000000  0.5087980000000  0.4832860000000 1.0
C      1  0.4396670000000  0.5060940000000  0.4291800000000 1.0
C      1  0.4537970000000  0.5006650000000  0.5927600000000 1.0
C      1  0.4759690000000  0.4109770000000  0.5746670000000 1.0
C      1  0.4733420000000  0.4399420000000  0.4158660000000 1.0
C      1  0.5864710000000  0.4518710000000  0.4996940000000 1.0
C      1  0.5537630000000  0.5554240000000  0.5612730000000 1.0
C      1  0.5492250000000  0.5494910000000  0.4116680000000 1.0
C      1  0.4348850000000  0.5735460000000  0.4868470000000 1.0
C      1  0.4521390000000  0.5538170000000  0.5400100000000 1.0
C      1  0.5061680000000  0.5691600000000  0.4281280000000 1.0
C      1  0.5442650000000  0.5558000000000  0.5032680000000 1.0
C      1  0.5348190000000  0.4135350000000  0.5533830000000 1.0
C      1  0.5155580000000  0.4495870000000  0.4544610000000 1.0
C      1  0.4510660000000  0.4441000000000  0.5266740000000 1.0
C      1  0.5765690000000  0.4894200000000  0.4417710000000 1.0
C      1  0.5012280000000  0.4796460000000  0.5972970000000 1.0
C      1  0.4153710000000  0.4845800000000  0.4642820000000 1.0
C      1  0.4243120000000  0.5107750000000  0.4538360000000 1.0
C      1  0.4825530000000  0.5019940000000  0.5954470000000 1.0
C      1  0.5860900000000  0.5134910000000  0.4561910000000 1.0
C      1  0.5538280000000  0.4157910000000  0.5102780000000 1.0
C      1  0.4894550000000  0.3929950000000  0.5574210000000 1.0
C      1  0.4822630000000  0.4142360000000  0.4569330000000 1.0
C      1  0.4457330000000  0.5986260000000  0.4812820000000 1.0
C      1  0.5292970000000  0.5874610000000  0.5351190000000 1.0
C      1  0.5324940000000  0.6041550000000  0.4483880000000 1.0
C      1  0.5627270000000  0.5085310000000  0.3949650000000 1.0
C      1  0.5294150000000  0.5170260000000  0.5845040000000 1.0
C      1  0.3996070000000  0.5147140000000  0.4955180000000 1.0
C      1  0.4447660000000  0.4777640000000  0.4252900000000 1.0
C      1  0.4396010000000  0.4771770000000  0.6007330000000 1.0
C      1  0.6145660000000  0.4888520000000  0.4936890000000 1.0
C      1  0.5276380000000  0.4379680000000  0.5660110000000 1.0
C      1  0.4410760000000  0.4631690000000  0.5080300000000 1.0
C      1  0.5295940000000  0.4738080000000  0.4465490000000 1.0
C      1  0.4460680000000  0.5420280000000  0.5647510000000 1.0
C      1  0.5571010000000  0.5327960000000  0.4919440000000 1.0
C      1  0.4787680000000  0.5632220000000  0.4343510000000 1.0
C      1  0.4653410000000  0.5119470000000  0.5150430000000 1.0
C      1  0.5282890000000  0.5137170000000  0.5191700000000 1.0
C      1  0.4844220000000  0.4845870000000  0.4467110000000 1.0
C      1  0.5031970000000  0.3981060000000  0.4935720000000 1.0
C      1  0.5165940000000  0.6190440000000  0.4961560000000 1.0
END
