TITL C-3623289-7120-1313 0.169992748201951 125000 -699.928597644288 0 0 114 (C1) n - 1
REM
REM in /home/nfs/bkarasulu/CARBON/AIRSS/Generating-Clusters/LCBOP/Higher-Symm/SD-CG/FIRE-CG
REM
REM
REM
REM
REM
REM ./C.cell (b20cbc046b6831c77cfcea5457e17084)
REM AIRSS Version 0.9.1 bugfix July 2018 build 013d7b7c2542+ Fri, 06 Jul 2018 19:26:36 +0100
REM compiler GCC version 9.2.1 20190827 (Red Hat 9.2.1-1)
REM options -cpp -mtune=generic -march=x86-64 -g -O0 -fpre-include=/usr/include/finclude/math-vector-fortran.h
REM seed -470302054 1378188961 1720585810 -1964387355 -448778150 -962703665 -1598094483 1943278747 -1949829494 -438911113 334052716 79845490 622905947 -585681606 -1378537022 617052828 2035488506 -1773862070 -296258962 -1846440335 179894101 714394040 724982373 239540182 -2058876231 2021480406 -800280699 1281885183 120426743 1982332189 1494030083 -755501998 -180424475
REM
CELL 1.54180   50.00000   50.00000   50.00000   90.00000   90.00000   90.00000
LATT -1
SFAC C  
C      1  0.4384130000000  0.5776420000000  0.5206520000000 1.0
C      1  0.5015290000000  0.3997640000000  0.4719320000000 1.0
C      1  0.4764200000000  0.5116900000000  0.4676140000000 1.0
C      1  0.4399370000000  0.5578380000000  0.4492400000000 1.0
C      1  0.5369300000000  0.5676910000000  0.4540390000000 1.0
C      1  0.4698900000000  0.4243300000000  0.5316150000000 1.0
C      1  0.5394510000000  0.4384720000000  0.5238340000000 1.0
C      1  0.4150660000000  0.4816150000000  0.5557020000000 1.0
C      1  0.6585050000000  0.6045720000000  0.5113750000000 1.0
C      1  0.4829990000000  0.5730230000000  0.5367920000000 1.0
C      1  0.5584330000000  0.5797660000000  0.4680360000000 1.0
C      1  0.4059540000000  0.4632990000000  0.5385460000000 1.0
C      1  0.5157920000000  0.6165200000000  0.5223850000000 1.0
C      1  0.6145890000000  0.6276800000000  0.4528200000000 1.0
C      1  0.4897300000000  0.5210310000000  0.5328240000000 1.0
C      1  0.3921010000000  0.5474620000000  0.4583810000000 1.0
C      1  0.4767120000000  0.5329170000000  0.5105620000000 1.0
C      1  0.5010380000000  0.5642090000000  0.5575850000000 1.0
C      1  0.5140220000000  0.4470230000000  0.4651290000000 1.0
C      1  0.4802690000000  0.4428840000000  0.3990250000000 1.0
C      1  0.5557860000000  0.5574340000000  0.5852540000000 1.0
C      1  0.4516870000000  0.3704910000000  0.4289220000000 1.0
C      1  0.5038410000000  0.6014190000000  0.5011880000000 1.0
C      1  0.4130050000000  0.4346010000000  0.4951980000000 1.0
C      1  0.5402240000000  0.5171480000000  0.4338570000000 1.0
C      1  0.4783990000000  0.5519250000000  0.4194110000000 1.0
C      1  0.4527140000000  0.5433990000000  0.4283590000000 1.0
C      1  0.5656050000000  0.5698030000000  0.4938520000000 1.0
C      1  0.5233790000000  0.3707860000000  0.5020460000000 1.0
C      1  0.5007550000000  0.5356570000000  0.5548890000000 1.0
C      1  0.4920920000000  0.5363540000000  0.4003610000000 1.0
C      1  0.4616440000000  0.3844300000000  0.4485580000000 1.0
C      1  0.4335540000000  0.4956490000000  0.5717720000000 1.0
C      1  0.5039950000000  0.4300860000000  0.3994990000000 1.0
C      1  0.4120270000000  0.5626720000000  0.4482670000000 1.0
C      1  0.5665360000000  0.5467780000000  0.6086910000000 1.0
C      1  0.5220520000000  0.6071560000000  0.5473470000000 1.0
C      1  0.4762880000000  0.4168120000000  0.5814360000000 1.0
C      1  0.4490960000000  0.4800450000000  0.5901140000000 1.0
C      1  0.4925970000000  0.5718050000000  0.4339170000000 1.0
C      1  0.4574550000000  0.4184300000000  0.4835790000000 1.0
C      1  0.5914550000000  0.5770640000000  0.5023920000000 1.0
C      1  0.4433090000000  0.4511910000000  0.4293510000000 1.0
C      1  0.5202780000000  0.5841870000000  0.5646720000000 1.0
C      1  0.5243180000000  0.5010340000000  0.4171780000000 1.0
C      1  0.4989580000000  0.4760820000000  0.5977800000000 1.0
C      1  0.5316350000000  0.4187920000000  0.5044970000000 1.0
C      1  0.4932860000000  0.4645640000000  0.4755110000000 1.0
C      1  0.4936050000000  0.4935990000000  0.5285220000000 1.0
C      1  0.4403190000000  0.5727160000000  0.4945310000000 1.0
C      1  0.5806980000000  0.6341570000000  0.4209090000000 1.0
C      1  0.5659510000000  0.6149220000000  0.4332780000000 1.0
C      1  0.4462170000000  0.4899900000000  0.5094940000000 1.0
C      1  0.5248060000000  0.3981920000000  0.5470660000000 1.0
C      1  0.6348600000000  0.5997920000000  0.5015130000000 1.0
C      1  0.5115750000000  0.5812590000000  0.4526310000000 1.0
C      1  0.4694410000000  0.4324440000000  0.5050460000000 1.0
C      1  0.4822900000000  0.4854700000000  0.4590140000000 1.0
C      1  0.5274950000000  0.3930740000000  0.5188160000000 1.0
C      1  0.5230210000000  0.4517050000000  0.4376120000000 1.0
C      1  0.5024770000000  0.4059760000000  0.5900990000000 1.0
C      1  0.4050760000000  0.4466690000000  0.5176710000000 1.0
C      1  0.4796580000000  0.4581050000000  0.4992870000000 1.0
C      1  0.5103590000000  0.4531170000000  0.5872610000000 1.0
C      1  0.4275150000000  0.5020950000000  0.4425540000000 1.0
C      1  0.4454230000000  0.5476560000000  0.5583470000000 1.0
C      1  0.4719930000000  0.4799090000000  0.5155310000000 1.0
C      1  0.5159080000000  0.3749680000000  0.4750070000000 1.0
C      1  0.4303950000000  0.4391590000000  0.4493560000000 1.0
C      1  0.5220930000000  0.4278970000000  0.5973280000000 1.0
C      1  0.4417060000000  0.5174080000000  0.4253220000000 1.0
C      1  0.5093390000000  0.5158930000000  0.3981800000000 1.0
C      1  0.6052710000000  0.6405740000000  0.4307420000000 1.0
C      1  0.4319880000000  0.4286220000000  0.4753170000000 1.0
C      1  0.5130500000000  0.3595490000000  0.5757270000000 1.0
C      1  0.5176120000000  0.4226410000000  0.4796380000000 1.0
C      1  0.5384650000000  0.4661910000000  0.5206980000000 1.0
C      1  0.5411210000000  0.5415740000000  0.4445730000000 1.0
C      1  0.5312930000000  0.3674840000000  0.4527510000000 1.0
C      1  0.5416550000000  0.3822220000000  0.4328170000000 1.0
C      1  0.5741980000000  0.6002900000000  0.4562800000000 1.0
C      1  0.4433040000000  0.4528000000000  0.5960540000000 1.0
C      1  0.5458110000000  0.4263450000000  0.5793540000000 1.0
C      1  0.5324450000000  0.4281650000000  0.5512950000000 1.0
C      1  0.5762970000000  0.5367220000000  0.6306650000000 1.0
C      1  0.4686190000000  0.5339350000000  0.4834760000000 1.0
C      1  0.4269300000000  0.4950940000000  0.4915100000000 1.0
C      1  0.4384010000000  0.5233150000000  0.5674350000000 1.0
C      1  0.5578850000000  0.5439910000000  0.5341660000000 1.0
C      1  0.4981590000000  0.5755740000000  0.5122080000000 1.0
C      1  0.4144720000000  0.5037980000000  0.4677700000000 1.0
C      1  0.4550810000000  0.5681470000000  0.5410700000000 1.0
C      1  0.5134820000000  0.3864420000000  0.5710450000000 1.0
C      1  0.5392380000000  0.5976640000000  0.6070560000000 1.0
C      1  0.4546940000000  0.4282850000000  0.5953850000000 1.0
C      1  0.4512600000000  0.5554940000000  0.4752580000000 1.0
C      1  0.5058150000000  0.6007100000000  0.4729170000000 1.0
C      1  0.5131870000000  0.4765650000000  0.4260550000000 1.0
C      1  0.5246640000000  0.4297920000000  0.4189590000000 1.0
C      1  0.6097220000000  0.5949750000000  0.4906840000000 1.0
C      1  0.5062970000000  0.4447040000000  0.5590200000000 1.0
C      1  0.5200750000000  0.4847220000000  0.5260890000000 1.0
C      1  0.4734080000000  0.4007120000000  0.4679560000000 1.0
C      1  0.5384240000000  0.5800940000000  0.5860830000000 1.0
C      1  0.4845180000000  0.4782480000000  0.4314820000000 1.0
C      1  0.4674810000000  0.4596480000000  0.4179490000000 1.0
C      1  0.5614340000000  0.5457170000000  0.5604490000000 1.0
C      1  0.4750140000000  0.4881420000000  0.5977420000000 1.0
C      1  0.6003950000000  0.6075660000000  0.4670280000000 1.0
C      1  0.5478380000000  0.5554320000000  0.5106390000000 1.0
C      1  0.4818180000000  0.4298380000000  0.5559370000000 1.0
C      1  0.5401760000000  0.4067910000000  0.4223490000000 1.0
C      1  0.5199050000000  0.5576000000000  0.5075100000000 1.0
C      1  0.3931250000000  0.5224310000000  0.4685040000000 1.0
END
