TITL C-3623288-6813-1697 -1.94322008028846e-06 125000 -922.694150130706 0 0 151 (Cs) n - 1
REM
REM in /home/nfs/bkarasulu/CARBON/AIRSS/Generating-Clusters/LCBOP/Higher-Symm/SD-CG/FIRE-CG
REM
REM
REM
REM
REM
REM ./C.cell (b20cbc046b6831c77cfcea5457e17084)
REM AIRSS Version 0.9.1 bugfix July 2018 build 013d7b7c2542+ Fri, 06 Jul 2018 19:26:36 +0100
REM compiler GCC version 9.2.1 20190827 (Red Hat 9.2.1-1)
REM options -cpp -mtune=generic -march=x86-64 -g -O0 -fpre-include=/usr/include/finclude/math-vector-fortran.h
REM seed 1234110744 1091406709 487314348 -614945769 1830489809 1328497813 648611126 -296413647 1179183465 -496566121 526384649 1615588726 -1695213425 397791567 -1133407837 -1281783689 -1815892087 474850891 -788207428 1278190610 1867804879 1484467256 219338998 -1376869162 2024625693 368384421 175201471 1968547629 1017862466 -899857234 -619038805 742872691 277159661
REM
CELL 1.54180   50.00000   50.00000   50.00000   90.00000   90.00000   90.00000
LATT -1
SFAC C  
C      1  0.5388670000000  0.5450300000000  0.4754390000000 1.0
C      1  0.4602010000000  0.4515110000000  0.4751240000000 1.0
C      1  0.5388730000000  0.5450370000000  0.5245210000000 1.0
C      1  0.4601900000000  0.4515010000000  0.5248510000000 1.0
C      1  0.5465780000000  0.5947160000000  0.4462120000000 1.0
C      1  0.4550940000000  0.4059800000000  0.4455500000000 1.0
C      1  0.5465850000000  0.5947260000000  0.5537390000000 1.0
C      1  0.4551020000000  0.4059760000000  0.5544090000000 1.0
C      1  0.4983740000000  0.4702040000000  0.5877440000000 1.0
C      1  0.5028970000000  0.5306090000000  0.5842640000000 1.0
C      1  0.4983680000000  0.4702190000000  0.4122100000000 1.0
C      1  0.5028960000000  0.5306060000000  0.4157080000000 1.0
C      1  0.4795120000000  0.4334570000000  0.4856760000000 1.0
C      1  0.5171880000000  0.5600990000000  0.4856830000000 1.0
C      1  0.4795020000000  0.4334410000000  0.5142760000000 1.0
C      1  0.5171890000000  0.5601010000000  0.5142850000000 1.0
C      1  0.5490480000000  0.4689400000000  0.4082480000000 1.0
C      1  0.4531600000000  0.5326950000000  0.4103310000000 1.0
C      1  0.5490530000000  0.4689480000000  0.5916650000000 1.0
C      1  0.4531600000000  0.5326940000000  0.5896650000000 1.0
C      1  0.4524420000000  0.6014300000000  0.5284540000000 1.0
C      1  0.5492730000000  0.4020170000000  0.5283080000000 1.0
C      1  0.4524380000000  0.6014230000000  0.4715280000000 1.0
C      1  0.5492630000000  0.4019830000000  0.4716020000000 1.0
C      1  0.4237740000000  0.5078580000000  0.4681010000000 1.0
C      1  0.5793970000000  0.4911410000000  0.4684020000000 1.0
C      1  0.4237720000000  0.5078470000000  0.5318960000000 1.0
C      1  0.5794200000000  0.4911790000000  0.5315450000000 1.0
C      1  0.5838260000000  0.5669770000000  0.4727150000000 1.0
C      1  0.4151790000000  0.4324770000000  0.4722610000000 1.0
C      1  0.5838300000000  0.5669840000000  0.5272320000000 1.0
C      1  0.4151730000000  0.4324720000000  0.5277050000000 1.0
C      1  0.5580130000000  0.5728220000000  0.5692650000000 1.0
C      1  0.4434720000000  0.4283510000000  0.5691750000000 1.0
C      1  0.5580060000000  0.5728130000000  0.4306840000000 1.0
C      1  0.4434720000000  0.4283640000000  0.4307930000000 1.0
C      1  0.4197460000000  0.5145690000000  0.5576330000000 1.0
C      1  0.5821620000000  0.4865110000000  0.5580940000000 1.0
C      1  0.4197500000000  0.5145730000000  0.4423620000000 1.0
C      1  0.5821380000000  0.4864770000000  0.4418520000000 1.0
C      1  0.5174060000000  0.4805510000000  0.5469530000000 1.0
C      1  0.4837410000000  0.5195420000000  0.5407600000000 1.0
C      1  0.5174690000000  0.4805140000000  0.4529660000000 1.0
C      1  0.4837870000000  0.5195320000000  0.4592450000000 1.0
C      1  0.5593830000000  0.6076310000000  0.4697660000000 1.0
C      1  0.4425390000000  0.3930780000000  0.4695280000000 1.0
C      1  0.5593860000000  0.6076360000000  0.5301790000000 1.0
C      1  0.4425430000000  0.3930760000000  0.5304310000000 1.0
C      1  0.4944940000000  0.5709000000000  0.4736730000000 1.0
C      1  0.5046120000000  0.4278470000000  0.4745850000000 1.0
C      1  0.4944960000000  0.5709040000000  0.5263000000000 1.0
C      1  0.5046070000000  0.4278420000000  0.5253490000000 1.0
C      1  0.4877020000000  0.5397070000000  0.5608160000000 1.0
C      1  0.5136450000000  0.4596500000000  0.5652770000000 1.0
C      1  0.4877130000000  0.5396910000000  0.4391720000000 1.0
C      1  0.5136540000000  0.4596260000000  0.4346430000000 1.0
C      1  0.6022370000000  0.4366990000000  0.5135550000000 1.0
C      1  0.3937610000000  0.5658800000000  0.5134660000000 1.0
C      1  0.6022870000000  0.4366600000000  0.4865770000000 1.0
C      1  0.3937630000000  0.5658780000000  0.4865180000000 1.0
C      1  0.5542630000000  0.4460850000000  0.5256630000000 1.0
C      1  0.4417410000000  0.5588330000000  0.5269420000000 1.0
C      1  0.5543490000000  0.4459620000000  0.4743270000000 1.0
C      1  0.4417440000000  0.5588190000000  0.4730450000000 1.0
C      1  0.5135500000000  0.4726950000000  0.4783340000000 1.0
C      1  0.4778610000000  0.5294320000000  0.4855770000000 1.0
C      1  0.5133260000000  0.4727820000000  0.5215770000000 1.0
C      1  0.4778470000000  0.5294360000000  0.5144200000000 1.0
C      1  0.5809300000000  0.5936050000000  0.5155760000000 1.0
C      1  0.4201870000000  0.4061550000000  0.5158160000000 1.0
C      1  0.5809280000000  0.5936010000000  0.4843670000000 1.0
C      1  0.4201870000000  0.4061580000000  0.4841460000000 1.0
C      1  0.5397600000000  0.5174510000000  0.5288730000000 1.0
C      1  0.4665370000000  0.4805890000000  0.5238590000000 1.0
C      1  0.5397560000000  0.5174450000000  0.4710760000000 1.0
C      1  0.4665430000000  0.4805830000000  0.4761250000000 1.0
C      1  0.4833570000000  0.4018220000000  0.4410670000000 1.0
C      1  0.5184220000000  0.5988610000000  0.4427360000000 1.0
C      1  0.4833700000000  0.4018280000000  0.5588810000000 1.0
C      1  0.5184300000000  0.5988730000000  0.5572240000000 1.0
C      1  0.4937900000000  0.5890680000000  0.5482910000000 1.0
C      1  0.5077080000000  0.4121220000000  0.5489400000000 1.0
C      1  0.4937830000000  0.5890660000000  0.4516850000000 1.0
C      1  0.5076980000000  0.4121200000000  0.4509920000000 1.0
C      1  0.4693750000000  0.5566440000000  0.5216090000000 1.0
C      1  0.5264550000000  0.4463860000000  0.5149410000000 1.0
C      1  0.4693790000000  0.5566340000000  0.4783700000000 1.0
C      1  0.5265130000000  0.4463640000000  0.4849770000000 1.0
C      1  0.5599800000000  0.5024930000000  0.4856250000000 1.0
C      1  0.4418210000000  0.4959720000000  0.4857900000000 1.0
C      1  0.5599840000000  0.5025020000000  0.5143240000000 1.0
C      1  0.4418220000000  0.4959580000000  0.5142080000000 1.0
C      1  0.3778100000000  0.4745050000000  0.4864570000000 1.0
C      1  0.6236530000000  0.5271290000000  0.4864600000000 1.0
C      1  0.3778080000000  0.4745020000000  0.5135190000000 1.0
C      1  0.6236570000000  0.5271340000000  0.5134910000000 1.0
C      1  0.5933660000000  0.5495440000000  0.5483920000000 1.0
C      1  0.4070170000000  0.4511020000000  0.5489620000000 1.0
C      1  0.5933610000000  0.5495350000000  0.4515570000000 1.0
C      1  0.4070250000000  0.4511150000000  0.4510110000000 1.0
C      1  0.5274330000000  0.5060300000000  0.5512380000000 1.0
C      1  0.4768910000000  0.4931340000000  0.5485270000000 1.0
C      1  0.5274480000000  0.5060170000000  0.4487010000000 1.0
C      1  0.4769580000000  0.4931160000000  0.4515140000000 1.0
C      1  0.4647440000000  0.5876640000000  0.5545850000000 1.0
C      1  0.5367870000000  0.4150580000000  0.5543480000000 1.0
C      1  0.4647380000000  0.5876560000000  0.4453970000000 1.0
C      1  0.5367760000000  0.4150390000000  0.4455680000000 1.0
C      1  0.5217460000000  0.4759900000000  0.3942280000000 1.0
C      1  0.4800940000000  0.5263080000000  0.3970630000000 1.0
C      1  0.5217640000000  0.4759690000000  0.6057090000000 1.0
C      1  0.4801040000000  0.5263000000000  0.6029190000000 1.0
C      1  0.4566780000000  0.3748590000000  0.5135970000000 1.0
C      1  0.5458730000000  0.6264310000000  0.5135800000000 1.0
C      1  0.4566770000000  0.3748600000000  0.4863600000000 1.0
C      1  0.5458720000000  0.6264290000000  0.4863630000000 1.0
C      1  0.3866760000000  0.4681900000000  0.4614940000000 1.0
C      1  0.6144140000000  0.5332780000000  0.4616300000000 1.0
C      1  0.3866700000000  0.4681810000000  0.5384820000000 1.0
C      1  0.6144230000000  0.5332900000000  0.5383200000000 1.0
C      1  0.5387450000000  0.4460230000000  0.4272680000000 1.0
C      1  0.4631730000000  0.5547650000000  0.4305180000000 1.0
C      1  0.5387460000000  0.4460480000000  0.5726300000000 1.0
C      1  0.4631660000000  0.5547770000000  0.5694830000000 1.0
C      1  0.5721630000000  0.5465950000000  0.5697440000000 1.0
C      1  0.4294440000000  0.4547020000000  0.5692600000000 1.0
C      1  0.5721620000000  0.5465870000000  0.4302030000000 1.0
C      1  0.4294560000000  0.4547200000000  0.4307210000000 1.0
C      1  0.4736170000000  0.4803540000000  0.5749690000000 1.0
C      1  0.5284490000000  0.5207870000000  0.5763130000000 1.0
C      1  0.4736340000000  0.4803710000000  0.4250530000000 1.0
C      1  0.5284530000000  0.5207820000000  0.4236350000000 1.0
C      1  0.4362460000000  0.5091720000000  0.5803530000000 1.0
C      1  0.5660910000000  0.4922400000000  0.5812950000000 1.0
C      1  0.4362540000000  0.5091780000000  0.4196470000000 1.0
C      1  0.5660870000000  0.4922260000000  0.4186390000000 1.0
C      1  0.5577070000000  0.5218550000000  0.5814950000000 1.0
C      1  0.4445610000000  0.4797730000000  0.5801980000000 1.0
C      1  0.5577110000000  0.5218480000000  0.4184470000000 1.0
C      1  0.4445860000000  0.4797910000000  0.4198090000000 1.0
C      1  0.4345950000000  0.4477500000000  0.4861440000000 1.0
C      1  0.5632910000000  0.5533400000000  0.4861970000000 1.0
C      1  0.4345860000000  0.4477500000000  0.5138230000000 1.0
C      1  0.5632930000000  0.5533450000000  0.5137550000000 1.0
C      1  0.5804500000000  0.4410210000000  0.5287080000000 1.0
C      1  0.4153630000000  0.5627510000000  0.5291000000000 1.0
C      1  0.5805480000000  0.4409280000000  0.4713380000000 1.0
C      1  0.4153660000000  0.5627450000000  0.4708880000000 1.0
C      1  0.5504920000000  0.3985790000000  0.4999580000000 1.0
C      1  0.4513490000000  0.6046230000000  0.4999900000000 1.0
C      1  0.4883770000000  0.4808020000000  0.5001540000000 1.0
END
