TITL C-3623284-6838-1802 47.5443389385599 125000 -606.48617556846 0 0 99 (C1) n - 1
REM
REM in /home/nfs/bkarasulu/CARBON/AIRSS/Generating-Clusters/LCBOP/Higher-Symm/SD-CG/FIRE-CG
REM
REM
REM
REM
REM
REM ./C.cell (b20cbc046b6831c77cfcea5457e17084)
REM AIRSS Version 0.9.1 bugfix July 2018 build 013d7b7c2542+ Fri, 06 Jul 2018 19:26:36 +0100
REM compiler GCC version 9.2.1 20190827 (Red Hat 9.2.1-1)
REM options -cpp -mtune=generic -march=x86-64 -g -O0 -fpre-include=/usr/include/finclude/math-vector-fortran.h
REM seed -686426628 551716539 -181232510 -1609439807 805079024 -1624802385 -1787346449 712118112 927345516 -23201251 -1275989955 812911682 -783213259 -890882830 -414530808 1738861667 540207940 1716301400 1064694541 292603991 -587456846 -1841553540 1471829235 -1448876112 31901158 -1166563906 -267611899 94429076 -1796444058 1959846972 -277753390 -393006506 -685192501
REM
CELL 1.54180   50.00000   50.00000   50.00000   90.00000   90.00000   90.00000
LATT -1
SFAC C  
C      1  0.4933210000000  0.4997540000000  0.4226030000000 1.0
C      1  0.4373500000000  0.4986510000000  0.4623350000000 1.0
C      1  0.4227910000000  0.4940020000000  0.5220920000000 1.0
C      1  0.4706290000000  0.5059240000000  0.5653810000000 1.0
C      1  0.5401400000000  0.4999140000000  0.5687500000000 1.0
C      1  0.5799100000000  0.4983600000000  0.5117190000000 1.0
C      1  0.5582720000000  0.4986960000000  0.4459140000000 1.0
C      1  0.5807920000000  0.5060690000000  0.5406390000000 1.0
C      1  0.5819210000000  0.5055370000000  0.4626160000000 1.0
C      1  0.5208990000000  0.5066720000000  0.4143880000000 1.0
C      1  0.4476740000000  0.5057650000000  0.4360210000000 1.0
C      1  0.4075180000000  0.5003650000000  0.4980330000000 1.0
C      1  0.4394380000000  0.5081270000000  0.5653920000000 1.0
C      1  0.5173910000000  0.5079990000000  0.5860200000000 1.0
C      1  0.4588180000000  0.5015510000000  0.4842100000000 1.0
C      1  0.4499230000000  0.5053980000000  0.5149450000000 1.0
C      1  0.4746400000000  0.5023240000000  0.5346490000000 1.0
C      1  0.5254560000000  0.4991740000000  0.5441760000000 1.0
C      1  0.5512710000000  0.4973360000000  0.5087610000000 1.0
C      1  0.5384890000000  0.4978320000000  0.4668290000000 1.0
C      1  0.4969970000000  0.4998700000000  0.4509140000000 1.0
C      1  0.4670290000000  0.5551770000000  0.5568660000000 1.0
C      1  0.5248580000000  0.5468070000000  0.5540540000000 1.0
C      1  0.5599090000000  0.5459790000000  0.5161540000000 1.0
C      1  0.5501530000000  0.5456990000000  0.4652940000000 1.0
C      1  0.5042290000000  0.5470970000000  0.4414170000000 1.0
C      1  0.4544970000000  0.5470630000000  0.4631780000000 1.0
C      1  0.4197020000000  0.5440990000000  0.5159990000000 1.0
C      1  0.4810950000000  0.5361740000000  0.5712270000000 1.0
C      1  0.5522050000000  0.5397250000000  0.5634020000000 1.0
C      1  0.5833190000000  0.5382980000000  0.4994050000000 1.0
C      1  0.5510000000000  0.5389330000000  0.4362390000000 1.0
C      1  0.4809110000000  0.5401880000000  0.4237060000000 1.0
C      1  0.4260270000000  0.5381370000000  0.4706840000000 1.0
C      1  0.4147400000000  0.5486940000000  0.5432990000000 1.0
C      1  0.4093730000000  0.5299700000000  0.4927470000000 1.0
C      1  0.4352540000000  0.5394000000000  0.5603390000000 1.0
C      1  0.5084210000000  0.5354870000000  0.5773890000000 1.0
C      1  0.5704290000000  0.5340080000000  0.5433170000000 1.0
C      1  0.5779620000000  0.5332170000000  0.4728770000000 1.0
C      1  0.5267670000000  0.5342900000000  0.4237950000000 1.0
C      1  0.4563790000000  0.5341020000000  0.4356340000000 1.0
C      1  0.5059970000000  0.5719230000000  0.4615260000000 1.0
C      1  0.4798720000000  0.5744720000000  0.4760300000000 1.0
C      1  0.4797840000000  0.5705470000000  0.5050840000000 1.0
C      1  0.4876870000000  0.5741180000000  0.5333290000000 1.0
C      1  0.5177710000000  0.5716070000000  0.5362360000000 1.0
C      1  0.5388860000000  0.5715960000000  0.5113160000000 1.0
C      1  0.5337930000000  0.5715100000000  0.4779780000000 1.0
C      1  0.5243550000000  0.4322710000000  0.4725370000000 1.0
C      1  0.4940890000000  0.4314600000000  0.4627510000000 1.0
C      1  0.4677260000000  0.4287010000000  0.4797480000000 1.0
C      1  0.4691220000000  0.4360710000000  0.5114220000000 1.0
C      1  0.4903940000000  0.4298300000000  0.5360640000000 1.0
C      1  0.5215950000000  0.4317330000000  0.5306110000000 1.0
C      1  0.5366400000000  0.4321860000000  0.5024080000000 1.0
C      1  0.4975420000000  0.4602340000000  0.5777710000000 1.0
C      1  0.5626140000000  0.4582550000000  0.5513560000000 1.0
C      1  0.5791950000000  0.4574540000000  0.4829000000000 1.0
C      1  0.5357460000000  0.4582890000000  0.4276810000000 1.0
C      1  0.4659790000000  0.4582740000000  0.4275450000000 1.0
C      1  0.4217820000000  0.4544170000000  0.4803230000000 1.0
C      1  0.4352410000000  0.4565610000000  0.5494930000000 1.0
C      1  0.4803470000000  0.4424240000000  0.5626780000000 1.0
C      1  0.5375320000000  0.4436090000000  0.5545070000000 1.0
C      1  0.5659900000000  0.4428040000000  0.5045290000000 1.0
C      1  0.5443470000000  0.4431170000000  0.4511820000000 1.0
C      1  0.4898390000000  0.4432100000000  0.4346760000000 1.0
C      1  0.4423820000000  0.4396590000000  0.4660470000000 1.0
C      1  0.4368710000000  0.4414680000000  0.5249500000000 1.0
C      1  0.4763680000000  0.4638700000000  0.5078780000000 1.0
C      1  0.4883060000000  0.4774400000000  0.5282480000000 1.0
C      1  0.5158480000000  0.4781970000000  0.5288340000000 1.0
C      1  0.5317240000000  0.4767340000000  0.5058740000000 1.0
C      1  0.5237090000000  0.4768390000000  0.4792830000000 1.0
C      1  0.4980450000000  0.4785950000000  0.4686320000000 1.0
C      1  0.4754930000000  0.4773900000000  0.4842190000000 1.0
C      1  0.4271600000000  0.4851390000000  0.5493000000000 1.0
C      1  0.4930200000000  0.4892180000000  0.5814600000000 1.0
C      1  0.5656830000000  0.4869190000000  0.5593890000000 1.0
C      1  0.5877310000000  0.4859300000000  0.4854990000000 1.0
C      1  0.5424490000000  0.4869050000000  0.4235150000000 1.0
C      1  0.4665030000000  0.4871500000000  0.4216710000000 1.0
C      1  0.4163990000000  0.4829700000000  0.4756600000000 1.0
C      1  0.4474030000000  0.5358450000000  0.5149540000000 1.0
C      1  0.4912790000000  0.5254090000000  0.5239500000000 1.0
C      1  0.5192720000000  0.5252440000000  0.5315520000000 1.0
C      1  0.5382190000000  0.5243370000000  0.5077060000000 1.0
C      1  0.5296770000000  0.5245670000000  0.4777480000000 1.0
C      1  0.5011700000000  0.5257680000000  0.4647560000000 1.0
C      1  0.4745200000000  0.5285440000000  0.4790150000000 1.0
C      1  0.5773990000000  0.4469010000000  0.5302100000000 1.0
C      1  0.5716250000000  0.4464530000000  0.4581110000000 1.0
C      1  0.5119890000000  0.4472020000000  0.4175420000000 1.0
C      1  0.4433590000000  0.4455710000000  0.4383270000000 1.0
C      1  0.4168590000000  0.4431990000000  0.5057230000000 1.0
C      1  0.4528850000000  0.4457380000000  0.5684130000000 1.0
C      1  0.5235660000000  0.4494390000000  0.5785060000000 1.0
C      1  0.4748980000000  0.5417410000000  0.5058680000000 1.0
END
