TITL C-3623287-7182-1835 1.29516975301121e-07 125000 -468.05392918754 0 0 78 (C1) n - 1
REM
REM in /home/nfs/bkarasulu/CARBON/AIRSS/Generating-Clusters/LCBOP/Higher-Symm/SD-CG/FIRE-CG
REM
REM
REM
REM
REM
REM ./C.cell (b20cbc046b6831c77cfcea5457e17084)
REM AIRSS Version 0.9.1 bugfix July 2018 build 013d7b7c2542+ Fri, 06 Jul 2018 19:26:36 +0100
REM compiler GCC version 9.2.1 20190827 (Red Hat 9.2.1-1)
REM options -cpp -mtune=generic -march=x86-64 -g -O0 -fpre-include=/usr/include/finclude/math-vector-fortran.h
REM seed -916378516 1528620205 64866843 28714880 741833987 1962070504 967273698 96696130 2043814597 -1269408524 252894518 -297429361 -1540608698 848375383 870894247 1786282476 -1630687552 -406838058 -1712278303 -478094642 -2129492638 2095495031 1688194255 -683323799 -663158477 -215573703 -958825074 -179346665 535187020 1115871000 671466588 572895439 -460649656
REM
CELL 1.54180   50.00000   50.00000   50.00000   90.00000   90.00000   90.00000
LATT -1
SFAC C  
C      1  0.5353840000000  0.5764790000000  0.5134500000000 1.0
C      1  0.5570140000000  0.4311500000000  0.4688850000000 1.0
C      1  0.5557000000000  0.4239110000000  0.5211830000000 1.0
C      1  0.5458080000000  0.5851350000000  0.4882430000000 1.0
C      1  0.4906860000000  0.5070790000000  0.4717400000000 1.0
C      1  0.4968430000000  0.4776040000000  0.5227280000000 1.0
C      1  0.4928620000000  0.4770510000000  0.4716050000000 1.0
C      1  0.4929130000000  0.5080970000000  0.5227570000000 1.0
C      1  0.5304740000000  0.4348050000000  0.4802460000000 1.0
C      1  0.5108130000000  0.5602050000000  0.5127140000000 1.0
C      1  0.5001150000000  0.5553860000000  0.4865960000000 1.0
C      1  0.5300680000000  0.4322550000000  0.5093800000000 1.0
C      1  0.4039620000000  0.5055940000000  0.5592500000000 1.0
C      1  0.3929160000000  0.4759690000000  0.4418270000000 1.0
C      1  0.3998640000000  0.4782690000000  0.5634480000000 1.0
C      1  0.3977930000000  0.5033820000000  0.4442820000000 1.0
C      1  0.5377450000000  0.5078280000000  0.5598630000000 1.0
C      1  0.5456430000000  0.4905120000000  0.4412270000000 1.0
C      1  0.5302470000000  0.4528530000000  0.5792930000000 1.0
C      1  0.5253020000000  0.5399130000000  0.4179310000000 1.0
C      1  0.5565610000000  0.5661950000000  0.5301100000000 1.0
C      1  0.5787010000000  0.4478140000000  0.4702850000000 1.0
C      1  0.5767690000000  0.4414030000000  0.5250600000000 1.0
C      1  0.5613620000000  0.5693860000000  0.4723640000000 1.0
C      1  0.3930450000000  0.5169960000000  0.4692130000000 1.0
C      1  0.3712440000000  0.5298550000000  0.5327820000000 1.0
C      1  0.3683080000000  0.5293640000000  0.4728590000000 1.0
C      1  0.3964310000000  0.5179680000000  0.5343540000000 1.0
C      1  0.4445090000000  0.5238660000000  0.5269930000000 1.0
C      1  0.4518440000000  0.4486810000000  0.4706470000000 1.0
C      1  0.4557180000000  0.4498370000000  0.5297850000000 1.0
C      1  0.4416870000000  0.5224440000000  0.4713820000000 1.0
C      1  0.4672710000000  0.5165840000000  0.5123430000000 1.0
C      1  0.4717050000000  0.4623280000000  0.4845100000000 1.0
C      1  0.4736920000000  0.4627280000000  0.5129030000000 1.0
C      1  0.4658050000000  0.5159310000000  0.4840600000000 1.0
C      1  0.5454900000000  0.4758860000000  0.5155330000000 1.0
C      1  0.5394810000000  0.5259050000000  0.4817560000000 1.0
C      1  0.5403620000000  0.5238470000000  0.5141880000000 1.0
C      1  0.5373580000000  0.4794640000000  0.4866640000000 1.0
C      1  0.5290460000000  0.4669210000000  0.4417000000000 1.0
C      1  0.5194540000000  0.5300950000000  0.5566050000000 1.0
C      1  0.5122910000000  0.5410510000000  0.4411620000000 1.0
C      1  0.5221930000000  0.4488650000000  0.5542360000000 1.0
C      1  0.5190330000000  0.4610020000000  0.4700360000000 1.0
C      1  0.5127780000000  0.5334730000000  0.5269550000000 1.0
C      1  0.5104550000000  0.5320340000000  0.4696750000000 1.0
C      1  0.5220840000000  0.4579810000000  0.5256370000000 1.0
C      1  0.6024530000000  0.4803690000000  0.3978780000000 1.0
C      1  0.5818320000000  0.5310950000000  0.6120790000000 1.0
C      1  0.5804140000000  0.4910060000000  0.4068370000000 1.0
C      1  0.5655640000000  0.5152180000000  0.5993360000000 1.0
C      1  0.5446960000000  0.5244400000000  0.4078710000000 1.0
C      1  0.5418950000000  0.4730880000000  0.5923210000000 1.0
C      1  0.5574330000000  0.5016760000000  0.4183140000000 1.0
C      1  0.5486400000000  0.4990890000000  0.5842280000000 1.0
C      1  0.4260850000000  0.5185490000000  0.5714250000000 1.0
C      1  0.4060340000000  0.4534510000000  0.4477260000000 1.0
C      1  0.4126230000000  0.4556150000000  0.5573040000000 1.0
C      1  0.4187530000000  0.5153350000000  0.4293410000000 1.0
C      1  0.5767000000000  0.4699430000000  0.5147740000000 1.0
C      1  0.5646120000000  0.5412680000000  0.4729740000000 1.0
C      1  0.5646600000000  0.5393780000000  0.5250980000000 1.0
C      1  0.5864290000000  0.4709920000000  0.4854450000000 1.0
C      1  0.4178520000000  0.5214910000000  0.5149830000000 1.0
C      1  0.3503150000000  0.5385800000000  0.4902780000000 1.0
C      1  0.3516170000000  0.5387560000000  0.5170480000000 1.0
C      1  0.4163790000000  0.5209190000000  0.4861310000000 1.0
C      1  0.4340470000000  0.4460740000000  0.5446770000000 1.0
C      1  0.4399350000000  0.5250790000000  0.4432130000000 1.0
C      1  0.4455660000000  0.5279250000000  0.5550310000000 1.0
C      1  0.4286350000000  0.4443270000000  0.4584780000000 1.0
C      1  0.5898970000000  0.4940980000000  0.5288140000000 1.0
C      1  0.5871510000000  0.5232980000000  0.4711080000000 1.0
C      1  0.5863240000000  0.5212740000000  0.5305460000000 1.0
C      1  0.5936630000000  0.4970440000000  0.4752750000000 1.0
C      1  0.5451480000000  0.4996910000000  0.4686310000000 1.0
C      1  0.5433180000000  0.4995520000000  0.5323870000000 1.0
END
