TITL C-3623287-7182-802 -3.88185585821794e-07 125000 -305.095363330456 0 0 54 (C1) n - 1
REM
REM in /home/nfs/bkarasulu/CARBON/AIRSS/Generating-Clusters/LCBOP/Higher-Symm/SD-CG/FIRE-CG
REM
REM
REM
REM
REM
REM ./C.cell (b20cbc046b6831c77cfcea5457e17084)
REM AIRSS Version 0.9.1 bugfix July 2018 build 013d7b7c2542+ Fri, 06 Jul 2018 19:26:36 +0100
REM compiler GCC version 9.2.1 20190827 (Red Hat 9.2.1-1)
REM options -cpp -mtune=generic -march=x86-64 -g -O0 -fpre-include=/usr/include/finclude/math-vector-fortran.h
REM seed -362043688 -1982400184 -57058694 690886527 -2022112578 448533052 -1044025611 316228820 1656799229 133891368 -2129263542 -1076387591 -1039429979 -1394572793 -264557736 -1134706201 1284297495 -1049788364 1820295192 -901397745 1167192478 387479368 1404953907 1742029122 1701052 -302263593 -102219951 1389061803 365335711 9680213 1335671120 1681382467 220225032
REM
CELL 1.54180   50.00000   50.00000   50.00000   90.00000   90.00000   90.00000
LATT -1
SFAC C  
C      1  0.4437040000000  0.4997310000000  0.4504620000000 1.0
C      1  0.4448500000000  0.4507050000000  0.4876910000000 1.0
C      1  0.4457690000000  0.4713960000000  0.5429840000000 1.0
C      1  0.4406080000000  0.5322770000000  0.5423710000000 1.0
C      1  0.4408720000000  0.5488680000000  0.4838280000000 1.0
C      1  0.5164340000000  0.4312000000000  0.4954160000000 1.0
C      1  0.5145050000000  0.4775580000000  0.5686320000000 1.0
C      1  0.5088130000000  0.5602580000000  0.5504090000000 1.0
C      1  0.5113260000000  0.5647900000000  0.4657760000000 1.0
C      1  0.5144220000000  0.4856330000000  0.4338900000000 1.0
C      1  0.5354340000000  0.4336810000000  0.5435000000000 1.0
C      1  0.5313100000000  0.5228840000000  0.5846590000000 1.0
C      1  0.5288570000000  0.5882820000000  0.5128110000000 1.0
C      1  0.5343920000000  0.5365930000000  0.4295710000000 1.0
C      1  0.5311760000000  0.4377150000000  0.4448330000000 1.0
C      1  0.4654240000000  0.5355190000000  0.5555510000000 1.0
C      1  0.4654180000000  0.5627210000000  0.4863900000000 1.0
C      1  0.4694080000000  0.5068750000000  0.4412170000000 1.0
C      1  0.4698120000000  0.4424230000000  0.4771620000000 1.0
C      1  0.4719090000000  0.4617250000000  0.5474390000000 1.0
C      1  0.5374450000000  0.4350610000000  0.4727570000000 1.0
C      1  0.5326920000000  0.4559270000000  0.5584450000000 1.0
C      1  0.5263330000000  0.5444570000000  0.5691850000000 1.0
C      1  0.5265520000000  0.5791680000000  0.4874590000000 1.0
C      1  0.5318900000000  0.5096620000000  0.4295770000000 1.0
C      1  0.4806180000000  0.5539440000000  0.5085690000000 1.0
C      1  0.4841950000000  0.5223010000000  0.4597710000000 1.0
C      1  0.4826910000000  0.4631360000000  0.4630700000000 1.0
C      1  0.4881080000000  0.4608230000000  0.5240940000000 1.0
C      1  0.4826670000000  0.5133690000000  0.5518670000000 1.0
C      1  0.4322230000000  0.5155850000000  0.5211250000000 1.0
C      1  0.4318840000000  0.5235840000000  0.4928760000000 1.0
C      1  0.4330630000000  0.4991420000000  0.4766130000000 1.0
C      1  0.4341880000000  0.4760220000000  0.4946460000000 1.0
C      1  0.4340360000000  0.4863040000000  0.5221140000000 1.0
C      1  0.5044970000000  0.5352490000000  0.4715990000000 1.0
C      1  0.5057760000000  0.4801100000000  0.4629940000000 1.0
C      1  0.5088940000000  0.4604160000000  0.5054240000000 1.0
C      1  0.5048900000000  0.4986980000000  0.5484470000000 1.0
C      1  0.5016490000000  0.5467270000000  0.5236100000000 1.0
C      1  0.4886880000000  0.4224470000000  0.4860950000000 1.0
C      1  0.4874490000000  0.4631050000000  0.5718030000000 1.0
C      1  0.4803660000000  0.5594320000000  0.5624340000000 1.0
C      1  0.4823220000000  0.5754560000000  0.4665430000000 1.0
C      1  0.4866410000000  0.4930410000000  0.4226730000000 1.0
C      1  0.5285720000000  0.4205000000000  0.5207980000000 1.0
C      1  0.5271880000000  0.4961360000000  0.5883870000000 1.0
C      1  0.5222250000000  0.5846280000000  0.5390910000000 1.0
C      1  0.5268410000000  0.5604980000000  0.4404030000000 1.0
C      1  0.5261250000000  0.4584630000000  0.4275640000000 1.0
C      1  0.5852840000000  0.4452410000000  0.4831600000000 1.0
C      1  0.5592400000000  0.4526610000000  0.4810530000000 1.0
C      1  0.5486860000000  0.4785720000000  0.4866600000000 1.0
C      1  0.5202320000000  0.4799650000000  0.4875130000000 1.0
END
