TITL C-3623283-6828-1226 -0.000322261992239413 125000 -101.517939505347 0 0 18 (D3h) n - 1
REM
REM in /home/nfs/bkarasulu/CARBON/AIRSS/Generating-Clusters/LCBOP/Higher-Symm/SD-CG/FIRE-CG
REM
REM
REM
REM
REM
REM ./C.cell (b20cbc046b6831c77cfcea5457e17084)
REM AIRSS Version 0.9.1 bugfix July 2018 build 013d7b7c2542+ Fri, 06 Jul 2018 19:26:36 +0100
REM compiler GCC version 9.2.1 20190827 (Red Hat 9.2.1-1)
REM options -cpp -mtune=generic -march=x86-64 -g -O0 -fpre-include=/usr/include/finclude/math-vector-fortran.h
REM seed -68659745 -2096801686 919379496 -247612680 -1699743572 -1767645451 1689360851 -1853701566 2108201060 -465133167 2083854317 175856598 -1422550105 -1613293486 -331692715 -1044894402 145893124 1418774009 546479533 1244262174 1429608061 365472269 -753498481 -945902692 -1357686923 698305319 291846968 1331998381 -2143937111 1544997077 1293245789 2018587075 1432230356
REM
CELL 1.54180   50.00000   50.00000   50.00000   90.00000   90.00000   90.00000
LATT -1
SFAC C  
C      1  0.5210610000000  0.5000000000000  0.4616380000000 1.0
C      1  0.5226910000000  0.5000010000000  0.5374200000000 1.0
C      1  0.4562470000000  0.4999990000000  0.5009410000000 1.0
C      1  0.5344640000000  0.4999990000000  0.4372270000000 1.0
C      1  0.5371310000000  0.5000020000000  0.5612330000000 1.0
C      1  0.4284050000000  0.4999990000000  0.5015400000000 1.0
C      1  0.4713490000000  0.5000000000000  0.5245630000000 1.0
C      1  0.4930530000000  0.4999990000000  0.4629060000000 1.0
C      1  0.5355970000000  0.5000010000000  0.5125310000000 1.0
C      1  0.5643870000000  0.5000030000000  0.6061800000000 1.0
C      1  0.3758520000000  0.4999980000000  0.5026710000000 1.0
C      1  0.5597610000000  0.4999990000000  0.3911500000000 1.0
C      1  0.5472150000000  0.4999990000000  0.4140020000000 1.0
C      1  0.5508690000000  0.5000020000000  0.5838880000000 1.0
C      1  0.4019160000000  0.4999990000000  0.5021100000000 1.0
C      1  0.4946550000000  0.5000010000000  0.5373580000000 1.0
C      1  0.4703190000000  0.4999990000000  0.4766920000000 1.0
C      1  0.5350260000000  0.5000000000000  0.4859500000000 1.0
END
