TITL C-3623289-7120-1870 -1.95899612040808e-07 125000 -751.053975044381 0 0 127 (C1) n - 1
REM
REM in /home/nfs/bkarasulu/CARBON/AIRSS/Generating-Clusters/LCBOP/Higher-Symm/SD-CG/FIRE-CG
REM
REM
REM
REM
REM
REM ./C.cell (b20cbc046b6831c77cfcea5457e17084)
REM AIRSS Version 0.9.1 bugfix July 2018 build 013d7b7c2542+ Fri, 06 Jul 2018 19:26:36 +0100
REM compiler GCC version 9.2.1 20190827 (Red Hat 9.2.1-1)
REM options -cpp -mtune=generic -march=x86-64 -g -O0 -fpre-include=/usr/include/finclude/math-vector-fortran.h
REM seed 1462555866 -1822312825 -748143102 592810681 733879030 -253489380 829266459 -410781805 711612898 -1810914501 -1864379930 503229908 456399264 541920512 -1707403498 -590130854 -694532220 1604662664 1508303720 -603891196 -1254677237 -2051584910 -1540650013 -934803721 -168763125 2096595548 -403477514 1111567307 1208982059 1429918531 752783746 -164129917 -1584526715
REM
CELL 1.54180   50.00000   50.00000   50.00000   90.00000   90.00000   90.00000
LATT -1
SFAC C  
C      1  0.5879050000000  0.4462680000000  0.5081110000000 1.0
C      1  0.5344920000000  0.5529250000000  0.5767650000000 1.0
C      1  0.4488360000000  0.4484670000000  0.5742580000000 1.0
C      1  0.4090220000000  0.5523490000000  0.4902500000000 1.0
C      1  0.4617200000000  0.4495380000000  0.4209820000000 1.0
C      1  0.5513330000000  0.5545330000000  0.4303160000000 1.0
C      1  0.4135880000000  0.5751820000000  0.5095420000000 1.0
C      1  0.4463820000000  0.4277060000000  0.4348780000000 1.0
C      1  0.5319320000000  0.5770110000000  0.4240950000000 1.0
C      1  0.5842120000000  0.4241570000000  0.4876630000000 1.0
C      1  0.5500770000000  0.5753320000000  0.5640590000000 1.0
C      1  0.4680820000000  0.4258910000000  0.5810810000000 1.0
C      1  0.4928720000000  0.4627640000000  0.5721430000000 1.0
C      1  0.4315410000000  0.5380480000000  0.5286250000000 1.0
C      1  0.4449260000000  0.4647510000000  0.4621770000000 1.0
C      1  0.5073190000000  0.5396000000000  0.4313540000000 1.0
C      1  0.5663080000000  0.4619460000000  0.4699920000000 1.0
C      1  0.5594840000000  0.5374800000000  0.5407300000000 1.0
C      1  0.5842640000000  0.5244490000000  0.5488160000000 1.0
C      1  0.4988930000000  0.4763160000000  0.5971240000000 1.0
C      1  0.4142390000000  0.5255570000000  0.5485070000000 1.0
C      1  0.4157970000000  0.4740340000000  0.4504100000000 1.0
C      1  0.5008640000000  0.5270990000000  0.4056220000000 1.0
C      1  0.5849550000000  0.4756350000000  0.4521550000000 1.0
C      1  0.3965840000000  0.4968390000000  0.4498050000000 1.0
C      1  0.4914780000000  0.5038250000000  0.3897070000000 1.0
C      1  0.5935110000000  0.4996680000000  0.4372530000000 1.0
C      1  0.6015480000000  0.5005610000000  0.5488110000000 1.0
C      1  0.5081220000000  0.5003610000000  0.6110150000000 1.0
C      1  0.4074760000000  0.5020840000000  0.5650640000000 1.0
C      1  0.5581650000000  0.4901910000000  0.5134580000000 1.0
C      1  0.5178030000000  0.5079210000000  0.5548140000000 1.0
C      1  0.4601040000000  0.4912570000000  0.5417700000000 1.0
C      1  0.4349630000000  0.5077210000000  0.4853180000000 1.0
C      1  0.4837910000000  0.4937190000000  0.4455390000000 1.0
C      1  0.5412760000000  0.5100790000000  0.4583480000000 1.0
C      1  0.4837170000000  0.5321610000000  0.4872800000000 1.0
C      1  0.5180190000000  0.4665020000000  0.4719260000000 1.0
C      1  0.5322660000000  0.5335500000000  0.5014200000000 1.0
C      1  0.5123960000000  0.4632200000000  0.5208740000000 1.0
C      1  0.4872000000000  0.5310040000000  0.5161510000000 1.0
C      1  0.4869090000000  0.4580750000000  0.5081840000000 1.0
C      1  0.5659650000000  0.4321640000000  0.4652680000000 1.0
C      1  0.5623890000000  0.5674230000000  0.5382580000000 1.0
C      1  0.4966050000000  0.4330270000000  0.5747670000000 1.0
C      1  0.4327120000000  0.5679910000000  0.5314530000000 1.0
C      1  0.4396080000000  0.4342200000000  0.4631990000000 1.0
C      1  0.5035600000000  0.5694570000000  0.4297760000000 1.0
C      1  0.4754820000000  0.5740550000000  0.4353320000000 1.0
C      1  0.5476140000000  0.4265230000000  0.4434120000000 1.0
C      1  0.5720980000000  0.5739360000000  0.5118600000000 1.0
C      1  0.5245020000000  0.4270800000000  0.5691760000000 1.0
C      1  0.4537150000000  0.5736150000000  0.5506440000000 1.0
C      1  0.4292720000000  0.4290330000000  0.4899210000000 1.0
C      1  0.4595540000000  0.5110980000000  0.4374140000000 1.0
C      1  0.5370210000000  0.4935820000000  0.4337640000000 1.0
C      1  0.5769130000000  0.5080510000000  0.4982490000000 1.0
C      1  0.5404390000000  0.4909480000000  0.5643460000000 1.0
C      1  0.4644640000000  0.5100150000000  0.5646510000000 1.0
C      1  0.4161820000000  0.4951980000000  0.5052750000000 1.0
C      1  0.3865380000000  0.4591290000000  0.4957920000000 1.0
C      1  0.4490230000000  0.5440080000000  0.4036130000000 1.0
C      1  0.5595280000000  0.4610080000000  0.4064650000000 1.0
C      1  0.6114310000000  0.5405860000000  0.5045190000000 1.0
C      1  0.5514030000000  0.4598130000000  0.5989440000000 1.0
C      1  0.4430710000000  0.5437770000000  0.5912530000000 1.0
C      1  0.5615200000000  0.4619930000000  0.5020560000000 1.0
C      1  0.5287110000000  0.5362290000000  0.5508060000000 1.0
C      1  0.4667290000000  0.4628250000000  0.5531040000000 1.0
C      1  0.4351860000000  0.5362130000000  0.4967720000000 1.0
C      1  0.4732110000000  0.4634990000000  0.4461950000000 1.0
C      1  0.5331040000000  0.5389270000000  0.4507110000000 1.0
C      1  0.5984810000000  0.5643310000000  0.5063050000000 1.0
C      1  0.5426500000000  0.4360130000000  0.5894190000000 1.0
C      1  0.4470900000000  0.5668040000000  0.5775990000000 1.0
C      1  0.4021910000000  0.4370670000000  0.4942950000000 1.0
C      1  0.4578000000000  0.5674350000000  0.4139220000000 1.0
C      1  0.5560790000000  0.4368000000000  0.4180600000000 1.0
C      1  0.5350340000000  0.4469460000000  0.5206340000000 1.0
C      1  0.4990640000000  0.5492720000000  0.5343260000000 1.0
C      1  0.4672050000000  0.4460620000000  0.5255140000000 1.0
C      1  0.4608580000000  0.5484990000000  0.4813190000000 1.0
C      1  0.5025240000000  0.4487310000000  0.4567230000000 1.0
C      1  0.5367620000000  0.5525550000000  0.4802840000000 1.0
C      1  0.5535690000000  0.5737480000000  0.4895800000000 1.0
C      1  0.5349530000000  0.4281860000000  0.5420920000000 1.0
C      1  0.4814600000000  0.5695720000000  0.5435180000000 1.0
C      1  0.4471940000000  0.4306190000000  0.5124140000000 1.0
C      1  0.4649040000000  0.5685360000000  0.4615750000000 1.0
C      1  0.5187680000000  0.4271720000000  0.4474660000000 1.0
C      1  0.5690870000000  0.5162040000000  0.4725570000000 1.0
C      1  0.5591450000000  0.4832010000000  0.5448850000000 1.0
C      1  0.4912100000000  0.5157960000000  0.5708320000000 1.0
C      1  0.4280880000000  0.4848190000000  0.5282230000000 1.0
C      1  0.4376080000000  0.5165850000000  0.4544320000000 1.0
C      1  0.5105220000000  0.4874100000000  0.4277040000000 1.0
C      1  0.5565770000000  0.4882070000000  0.4137670000000 1.0
C      1  0.6040480000000  0.5132120000000  0.5054470000000 1.0
C      1  0.5471910000000  0.4868830000000  0.5917330000000 1.0
C      1  0.4455170000000  0.5162400000000  0.5851460000000 1.0
C      1  0.3906940000000  0.4871660000000  0.4954230000000 1.0
C      1  0.4533940000000  0.5167790000000  0.4098270000000 1.0
C      1  0.4634920000000  0.4964040000000  0.3926220000000 1.0
C      1  0.5769770000000  0.5082830000000  0.4145940000000 1.0
C      1  0.6134390000000  0.4927510000000  0.5231840000000 1.0
C      1  0.5362290000000  0.5078220000000  0.6079130000000 1.0
C      1  0.4254200000000  0.4959730000000  0.5871980000000 1.0
C      1  0.3837230000000  0.5055090000000  0.4744790000000 1.0
C      1  0.4331690000000  0.4677900000000  0.5893300000000 1.0
C      1  0.3876110000000  0.5344110000000  0.4812450000000 1.0
C      1  0.4579600000000  0.4683330000000  0.3991560000000 1.0
C      1  0.5684710000000  0.5365030000000  0.4150360000000 1.0
C      1  0.6094800000000  0.4645110000000  0.5156190000000 1.0
C      1  0.5402050000000  0.5357580000000  0.5996640000000 1.0
C      1  0.4522820000000  0.4834200000000  0.4834630000000 1.0
C      1  0.4924190000000  0.5046860000000  0.4745530000000 1.0
C      1  0.5217520000000  0.4956450000000  0.4780530000000 1.0
C      1  0.5308680000000  0.5037070000000  0.5060550000000 1.0
C      1  0.5116870000000  0.4934420000000  0.5280880000000 1.0
C      1  0.4818340000000  0.5016580000000  0.5218090000000 1.0
C      1  0.5847570000000  0.4789890000000  0.5561900000000 1.0
C      1  0.4940690000000  0.5215630000000  0.5984850000000 1.0
C      1  0.4085630000000  0.4796210000000  0.5477540000000 1.0
C      1  0.4127870000000  0.5184000000000  0.4406690000000 1.0
C      1  0.5067860000000  0.4824160000000  0.4001170000000 1.0
C      1  0.5915050000000  0.5209300000000  0.4559080000000 1.0
C      1  0.4779940000000  0.4847600000000  0.4960680000000 1.0
END
