TITL C-3623284-6838-1766 -1.08500100259398 125000 -546.369000727593 0 0 90 (C1) n - 1
REM
REM in /home/nfs/bkarasulu/CARBON/AIRSS/Generating-Clusters/LCBOP/Higher-Symm/SD-CG/FIRE-CG
REM
REM
REM
REM
REM
REM ./C.cell (b20cbc046b6831c77cfcea5457e17084)
REM AIRSS Version 0.9.1 bugfix July 2018 build 013d7b7c2542+ Fri, 06 Jul 2018 19:26:36 +0100
REM compiler GCC version 9.2.1 20190827 (Red Hat 9.2.1-1)
REM options -cpp -mtune=generic -march=x86-64 -g -O0 -fpre-include=/usr/include/finclude/math-vector-fortran.h
REM seed -383099291 429872168 1722608069 -2043235886 70593046 1395650620 -366192770 34538650 978792727 -489186153 530924590 -1402647271 -731770751 706812117 -30326197 1615375390 75224130 -1905312915 602950478 -545636721 718171017 -1391795854 792613352 -1092959745 -616313374 -30937573 1629697366 -1862886301 1151162779 2061857112 35309542 -802220028 -1284359602
REM
CELL 1.54180   50.00000   50.00000   50.00000   90.00000   90.00000   90.00000
LATT -1
SFAC C  
C      1  0.4857970000000  0.4689230000000  0.4003170000000 1.0
C      1  0.5639030000000  0.5489540000000  0.5348300000000 1.0
C      1  0.4697290000000  0.5904010000000  0.4906580000000 1.0
C      1  0.5352900000000  0.5143680000000  0.5089650000000 1.0
C      1  0.5243580000000  0.3913260000000  0.5329360000000 1.0
C      1  0.5182680000000  0.4763430000000  0.5600810000000 1.0
C      1  0.5253940000000  0.4665420000000  0.5323820000000 1.0
C      1  0.5479290000000  0.5482450000000  0.4755870000000 1.0
C      1  0.5502770000000  0.4475630000000  0.4499360000000 1.0
C      1  0.5204210000000  0.4380500000000  0.5332020000000 1.0
C      1  0.4973840000000  0.4149450000000  0.4563050000000 1.0
C      1  0.4396120000000  0.5440990000000  0.5359340000000 1.0
C      1  0.4762560000000  0.4782610000000  0.5346520000000 1.0
C      1  0.5615460000000  0.5416860000000  0.4507610000000 1.0
C      1  0.5866460000000  0.4642030000000  0.5100970000000 1.0
C      1  0.4897520000000  0.4940030000000  0.5131820000000 1.0
C      1  0.5308480000000  0.5238810000000  0.4810030000000 1.0
C      1  0.5128180000000  0.5362210000000  0.5762460000000 1.0
C      1  0.4858970000000  0.4504570000000  0.4905820000000 1.0
C      1  0.5379690000000  0.4999120000000  0.4627030000000 1.0
C      1  0.5694930000000  0.5521910000000  0.5609360000000 1.0
C      1  0.5183490000000  0.4805540000000  0.4579340000000 1.0
C      1  0.5592030000000  0.5266850000000  0.5186230000000 1.0
C      1  0.4441740000000  0.4447330000000  0.5465220000000 1.0
C      1  0.4029890000000  0.4588320000000  0.5028480000000 1.0
C      1  0.5047230000000  0.4117870000000  0.4303710000000 1.0
C      1  0.5033540000000  0.5313710000000  0.4738010000000 1.0
C      1  0.5249920000000  0.4534900000000  0.4622170000000 1.0
C      1  0.4532130000000  0.4992410000000  0.4302500000000 1.0
C      1  0.4920370000000  0.5842260000000  0.4739980000000 1.0
C      1  0.4666750000000  0.5523890000000  0.5782920000000 1.0
C      1  0.4397470000000  0.5559180000000  0.4634020000000 1.0
C      1  0.5946260000000  0.5196940000000  0.4848910000000 1.0
C      1  0.4737540000000  0.4464250000000  0.5147000000000 1.0
C      1  0.6207790000000  0.5280560000000  0.4844480000000 1.0
C      1  0.5792380000000  0.5186190000000  0.4597210000000 1.0
C      1  0.5400750000000  0.5741580000000  0.4812530000000 1.0
C      1  0.5196940000000  0.4301260000000  0.4144250000000 1.0
C      1  0.4628480000000  0.5512410000000  0.4470620000000 1.0
C      1  0.5710720000000  0.4651220000000  0.4601500000000 1.0
C      1  0.5814390000000  0.4871070000000  0.5258770000000 1.0
C      1  0.4304360000000  0.4711410000000  0.5417320000000 1.0
C      1  0.5403750000000  0.5504580000000  0.4315350000000 1.0
C      1  0.4780200000000  0.5207850000000  0.5177620000000 1.0
C      1  0.5461200000000  0.4356960000000  0.4244280000000 1.0
C      1  0.5656550000000  0.4882260000000  0.5508600000000 1.0
C      1  0.4373160000000  0.5603540000000  0.5116710000000 1.0
C      1  0.4367000000000  0.4820780000000  0.4464810000000 1.0
C      1  0.4869960000000  0.5150340000000  0.4585160000000 1.0
C      1  0.5124420000000  0.5944030000000  0.5387650000000 1.0
C      1  0.5173360000000  0.5890420000000  0.4874080000000 1.0
C      1  0.4899220000000  0.4690170000000  0.5601890000000 1.0
C      1  0.4923200000000  0.4885360000000  0.4631700000000 1.0
C      1  0.4929880000000  0.5797700000000  0.5525150000000 1.0
C      1  0.4349710000000  0.4248040000000  0.4982600000000 1.0
C      1  0.5035130000000  0.4371980000000  0.4725720000000 1.0
C      1  0.5352090000000  0.4149440000000  0.5232560000000 1.0
C      1  0.4519090000000  0.4979540000000  0.5763970000000 1.0
C      1  0.4531150000000  0.5193810000000  0.5321580000000 1.0
C      1  0.5822430000000  0.5118860000000  0.5102550000000 1.0
C      1  0.4836960000000  0.4788840000000  0.4874910000000 1.0
C      1  0.4888990000000  0.5673350000000  0.4495630000000 1.0
C      1  0.4125150000000  0.5247110000000  0.4931730000000 1.0
C      1  0.4655710000000  0.5818290000000  0.5417440000000 1.0
C      1  0.5140240000000  0.5601090000000  0.4345270000000 1.0
C      1  0.5365840000000  0.5206840000000  0.5774020000000 1.0
C      1  0.4672300000000  0.4861460000000  0.4091740000000 1.0
C      1  0.4076530000000  0.5049080000000  0.5108720000000 1.0
C      1  0.5047170000000  0.4499080000000  0.4008030000000 1.0
C      1  0.4293180000000  0.4613540000000  0.4623030000000 1.0
C      1  0.5025280000000  0.3966960000000  0.5491570000000 1.0
C      1  0.4509070000000  0.4929940000000  0.5464960000000 1.0
C      1  0.4335510000000  0.3989300000000  0.4898000000000 1.0
C      1  0.4210400000000  0.4462480000000  0.4851060000000 1.0
C      1  0.4497220000000  0.5610390000000  0.5570880000000 1.0
C      1  0.5200910000000  0.4910040000000  0.5165710000000 1.0
C      1  0.5598180000000  0.5366830000000  0.5808200000000 1.0
C      1  0.5846080000000  0.4576990000000  0.4839670000000 1.0
C      1  0.4772350000000  0.4428750000000  0.5618530000000 1.0
C      1  0.4946380000000  0.5573440000000  0.5720950000000 1.0
C      1  0.5653190000000  0.4934400000000  0.4570220000000 1.0
C      1  0.4660180000000  0.5227320000000  0.4415730000000 1.0
C      1  0.5176250000000  0.6006220000000  0.5131970000000 1.0
C      1  0.4976930000000  0.4253190000000  0.5507450000000 1.0
C      1  0.4932220000000  0.5432740000000  0.5169510000000 1.0
C      1  0.4107850000000  0.4786070000000  0.5213870000000 1.0
C      1  0.4277270000000  0.5481440000000  0.4880170000000 1.0
C      1  0.4503390000000  0.4329150000000  0.5208950000000 1.0
C      1  0.4562670000000  0.5823120000000  0.5139630000000 1.0
C      1  0.5405070000000  0.4942010000000  0.5662350000000 1.0
END
