TITL C-3623286-7563-1748 6.0023726219921 125000 -288.440192594917 0 0 49 (C1) n - 1
REM
REM in /home/nfs/bkarasulu/CARBON/AIRSS/Generating-Clusters/LCBOP/Higher-Symm/SD-CG/FIRE-CG
REM
REM
REM
REM
REM
REM ./C.cell (b20cbc046b6831c77cfcea5457e17084)
REM AIRSS Version 0.9.1 bugfix July 2018 build 013d7b7c2542+ Fri, 06 Jul 2018 19:26:36 +0100
REM compiler GCC version 9.2.1 20190827 (Red Hat 9.2.1-1)
REM options -cpp -mtune=generic -march=x86-64 -g -O0 -fpre-include=/usr/include/finclude/math-vector-fortran.h
REM seed -798666542 1064883082 106296182 1823641306 -2107285132 -2066333030 -2080532528 857657876 1423949875 2143915568 -588409348 -1905339602 -1252484870 29967570 -419515690 301765739 -1629628582 -171559298 2003004302 -815695788 -912297939 -129684551 -1958958303 988350826 -2143742922 -114092818 -894026410 1649106536 -15948947 1628608190 292431568 407056217 1822427954
REM
CELL 1.54180   50.00000   50.00000   50.00000   90.00000   90.00000   90.00000
LATT -1
SFAC C  
C      1  0.5165060000000  0.5751850000000  0.5091430000000 1.0
C      1  0.5005040000000  0.4339060000000  0.4811680000000 1.0
C      1  0.4882390000000  0.5530590000000  0.5775930000000 1.0
C      1  0.4475270000000  0.4353470000000  0.3991420000000 1.0
C      1  0.4882770000000  0.4490970000000  0.4610890000000 1.0
C      1  0.5330660000000  0.5684550000000  0.5307890000000 1.0
C      1  0.5017640000000  0.4441040000000  0.5076030000000 1.0
C      1  0.5041800000000  0.5548070000000  0.4935700000000 1.0
C      1  0.4818730000000  0.3843020000000  0.4374640000000 1.0
C      1  0.4767240000000  0.6130450000000  0.5464590000000 1.0
C      1  0.4762160000000  0.4347300000000  0.5527530000000 1.0
C      1  0.4847300000000  0.5560100000000  0.4441500000000 1.0
C      1  0.5113320000000  0.4082090000000  0.4752630000000 1.0
C      1  0.5090360000000  0.6025120000000  0.5055980000000 1.0
C      1  0.4973980000000  0.3912420000000  0.4578610000000 1.0
C      1  0.4908570000000  0.6135420000000  0.5239120000000 1.0
C      1  0.5352320000000  0.4003770000000  0.4860470000000 1.0
C      1  0.5196390000000  0.6174800000000  0.4853410000000 1.0
C      1  0.5266550000000  0.5107260000000  0.5000460000000 1.0
C      1  0.5307630000000  0.4898830000000  0.5190350000000 1.0
C      1  0.5374250000000  0.5028240000000  0.4531810000000 1.0
C      1  0.5328200000000  0.4915680000000  0.5676350000000 1.0
C      1  0.5038080000000  0.5276130000000  0.5023530000000 1.0
C      1  0.5196650000000  0.4647080000000  0.5138920000000 1.0
C      1  0.5448260000000  0.5129550000000  0.4782480000000 1.0
C      1  0.5455030000000  0.4948740000000  0.5428750000000 1.0
C      1  0.4847460000000  0.4342780000000  0.5275420000000 1.0
C      1  0.4914520000000  0.5611230000000  0.4693920000000 1.0
C      1  0.5233190000000  0.5042070000000  0.4306390000000 1.0
C      1  0.5153370000000  0.4810590000000  0.5846740000000 1.0
C      1  0.4320290000000  0.4447060000000  0.3787580000000 1.0
C      1  0.4762890000000  0.5317000000000  0.5639180000000 1.0
C      1  0.4888800000000  0.5394250000000  0.4236320000000 1.0
C      1  0.4798610000000  0.4460550000000  0.5766220000000 1.0
C      1  0.4657420000000  0.3898050000000  0.4170530000000 1.0
C      1  0.4698510000000  0.5997910000000  0.5685570000000 1.0
C      1  0.4952020000000  0.4641270000000  0.5888640000000 1.0
C      1  0.5043280000000  0.5182760000000  0.4181880000000 1.0
C      1  0.4590970000000  0.4524510000000  0.4181570000000 1.0
C      1  0.5163290000000  0.5549940000000  0.5761060000000 1.0
C      1  0.5689740000000  0.5253770000000  0.4815910000000 1.0
C      1  0.5718080000000  0.5022910000000  0.5416940000000 1.0
C      1  0.4620880000000  0.5035870000000  0.4964870000000 1.0
C      1  0.4740480000000  0.5198480000000  0.5401990000000 1.0
C      1  0.5334620000000  0.5612180000000  0.5564830000000 1.0
C      1  0.4737450000000  0.4561530000000  0.4400270000000 1.0
C      1  0.4529250000000  0.4079960000000  0.4024400000000 1.0
C      1  0.4737630000000  0.5767880000000  0.5816090000000 1.0
C      1  0.4795730000000  0.5167430000000  0.5129090000000 1.0
END
