TITL C-3623289-7120-779 1.59522072313041e-07 125000 -603.486293399459 0 0 99 (C1) n - 1
REM
REM in /home/nfs/bkarasulu/CARBON/AIRSS/Generating-Clusters/LCBOP/Higher-Symm/SD-CG/FIRE-CG
REM
REM
REM
REM
REM
REM ./C.cell (b20cbc046b6831c77cfcea5457e17084)
REM AIRSS Version 0.9.1 bugfix July 2018 build 013d7b7c2542+ Fri, 06 Jul 2018 19:26:36 +0100
REM compiler GCC version 9.2.1 20190827 (Red Hat 9.2.1-1)
REM options -cpp -mtune=generic -march=x86-64 -g -O0 -fpre-include=/usr/include/finclude/math-vector-fortran.h
REM seed 977396188 1611609812 -1885033218 721016120 -167903161 1384702035 729595299 -1425112789 1044403832 273738545 -246733914 1111542815 1332763226 259045165 -1914008080 637995568 1302417525 -1829942904 233705274 -1751881882 -2007188649 280043507 -737319735 -427495218 2102801423 617750724 -1931161498 -1397742066 741552675 -1918987267 -222051440 457201820 699970458
REM
CELL 1.54180   50.00000   50.00000   50.00000   90.00000   90.00000   90.00000
LATT -1
SFAC C  
C      1  0.4979200000000  0.4886610000000  0.4555000000000 1.0
C      1  0.4896800000000  0.5264890000000  0.5394410000000 1.0
C      1  0.5755890000000  0.4711030000000  0.4937240000000 1.0
C      1  0.3881720000000  0.4955240000000  0.5132270000000 1.0
C      1  0.4667160000000  0.4131320000000  0.4843020000000 1.0
C      1  0.5750220000000  0.5753370000000  0.5169500000000 1.0
C      1  0.4336540000000  0.4142370000000  0.5213590000000 1.0
C      1  0.5704480000000  0.5383620000000  0.4893480000000 1.0
C      1  0.5464050000000  0.4824340000000  0.4081300000000 1.0
C      1  0.4420140000000  0.5018360000000  0.5795210000000 1.0
C      1  0.5276220000000  0.4442880000000  0.5649070000000 1.0
C      1  0.5077020000000  0.5735360000000  0.4331610000000 1.0
C      1  0.5817680000000  0.5306780000000  0.4634570000000 1.0
C      1  0.4354010000000  0.4213100000000  0.5475380000000 1.0
C      1  0.4342300000000  0.4788340000000  0.4907050000000 1.0
C      1  0.5217820000000  0.5333810000000  0.5032910000000 1.0
C      1  0.4755900000000  0.6033990000000  0.4570730000000 1.0
C      1  0.5705860000000  0.4244200000000  0.5502070000000 1.0
C      1  0.4590700000000  0.4560570000000  0.5777260000000 1.0
C      1  0.5529230000000  0.5292450000000  0.4173140000000 1.0
C      1  0.5154970000000  0.4042440000000  0.5064360000000 1.0
C      1  0.5360140000000  0.6012030000000  0.4955520000000 1.0
C      1  0.4991290000000  0.4393600000000  0.4501180000000 1.0
C      1  0.4668090000000  0.5677320000000  0.5529560000000 1.0
C      1  0.5070520000000  0.5087480000000  0.4069310000000 1.0
C      1  0.4889820000000  0.4979810000000  0.5864200000000 1.0
C      1  0.5679130000000  0.5007020000000  0.5389780000000 1.0
C      1  0.4121520000000  0.4618330000000  0.4849540000000 1.0
C      1  0.5373450000000  0.4650540000000  0.4289790000000 1.0
C      1  0.4421490000000  0.5240620000000  0.5615630000000 1.0
C      1  0.4803580000000  0.4388310000000  0.5835250000000 1.0
C      1  0.5494580000000  0.5567760000000  0.4125180000000 1.0
C      1  0.5120770000000  0.4914260000000  0.5702860000000 1.0
C      1  0.4921910000000  0.5267480000000  0.4239510000000 1.0
C      1  0.4997100000000  0.4082830000000  0.5506000000000 1.0
C      1  0.5480240000000  0.5900870000000  0.4511980000000 1.0
C      1  0.5277260000000  0.4188200000000  0.4860330000000 1.0
C      1  0.4454940000000  0.5931190000000  0.5167290000000 1.0
C      1  0.5557790000000  0.4561720000000  0.4480200000000 1.0
C      1  0.4204670000000  0.5253290000000  0.5432480000000 1.0
C      1  0.4674740000000  0.5874630000000  0.5719510000000 1.0
C      1  0.4763330000000  0.4221780000000  0.4577630000000 1.0
C      1  0.5638720000000  0.5924250000000  0.4972790000000 1.0
C      1  0.4855240000000  0.4022570000000  0.5047040000000 1.0
C      1  0.5610530000000  0.5234020000000  0.4440070000000 1.0
C      1  0.4390640000000  0.4472300000000  0.5586530000000 1.0
C      1  0.5765630000000  0.5466460000000  0.5157860000000 1.0
C      1  0.4396280000000  0.4200740000000  0.4939500000000 1.0
C      1  0.4787740000000  0.3997760000000  0.5330290000000 1.0
C      1  0.5709840000000  0.5902430000000  0.4687190000000 1.0
C      1  0.4839680000000  0.5271810000000  0.5865530000000 1.0
C      1  0.4970590000000  0.4809460000000  0.4086300000000 1.0
C      1  0.4429000000000  0.5015630000000  0.4757330000000 1.0
C      1  0.5200260000000  0.5042740000000  0.4991580000000 1.0
C      1  0.4895260000000  0.5549250000000  0.4212380000000 1.0
C      1  0.5337840000000  0.4724370000000  0.5690650000000 1.0
C      1  0.5697650000000  0.4598630000000  0.4703570000000 1.0
C      1  0.4010090000000  0.5139310000000  0.5283470000000 1.0
C      1  0.4634140000000  0.4836700000000  0.5842460000000 1.0
C      1  0.5362470000000  0.5090580000000  0.4054960000000 1.0
C      1  0.5606410000000  0.4830880000000  0.5615770000000 1.0
C      1  0.4648920000000  0.5654040000000  0.4120290000000 1.0
C      1  0.4485390000000  0.5845520000000  0.4216470000000 1.0
C      1  0.5823280000000  0.4667170000000  0.5703510000000 1.0
C      1  0.4191620000000  0.4344650000000  0.4788640000000 1.0
C      1  0.5739650000000  0.5292460000000  0.5391840000000 1.0
C      1  0.5740300000000  0.4867360000000  0.5151270000000 1.0
C      1  0.3889510000000  0.4739710000000  0.4964740000000 1.0
C      1  0.4618520000000  0.5213900000000  0.4670300000000 1.0
C      1  0.5148520000000  0.4891610000000  0.5220310000000 1.0
C      1  0.5416330000000  0.5394600000000  0.4841240000000 1.0
C      1  0.4438120000000  0.4735420000000  0.5168840000000 1.0
C      1  0.5064980000000  0.4660850000000  0.4340500000000 1.0
C      1  0.4707750000000  0.5388420000000  0.5608820000000 1.0
C      1  0.5009930000000  0.5918720000000  0.4552710000000 1.0
C      1  0.5427970000000  0.4258310000000  0.5470660000000 1.0
C      1  0.5135850000000  0.4405850000000  0.4762370000000 1.0
C      1  0.4627700000000  0.5734830000000  0.5247820000000 1.0
C      1  0.4772310000000  0.5576270000000  0.5056540000000 1.0
C      1  0.4965850000000  0.4569940000000  0.4927380000000 1.0
C      1  0.4660220000000  0.5449850000000  0.4826360000000 1.0
C      1  0.4947630000000  0.4694710000000  0.5175510000000 1.0
C      1  0.4699950000000  0.5095740000000  0.5247180000000 1.0
C      1  0.5215350000000  0.4997950000000  0.4704920000000 1.0
C      1  0.5251110000000  0.5988120000000  0.4690120000000 1.0
C      1  0.5244160000000  0.4080500000000  0.5337470000000 1.0
C      1  0.5776700000000  0.5409490000000  0.5639210000000 1.0
C      1  0.4062420000000  0.4215500000000  0.4583540000000 1.0
C      1  0.4531240000000  0.6012040000000  0.4423810000000 1.0
C      1  0.5874360000000  0.4413050000000  0.5627590000000 1.0
C      1  0.4817500000000  0.5134390000000  0.4474090000000 1.0
C      1  0.5103660000000  0.5052650000000  0.5455500000000 1.0
C      1  0.4296740000000  0.4663260000000  0.5399890000000 1.0
C      1  0.5381890000000  0.5209830000000  0.4611730000000 1.0
C      1  0.5024420000000  0.4297880000000  0.5694700000000 1.0
C      1  0.5365960000000  0.5751630000000  0.4292950000000 1.0
C      1  0.4998610000000  0.5443110000000  0.5172990000000 1.0
C      1  0.4813730000000  0.4722980000000  0.4739520000000 1.0
C      1  0.4694270000000  0.4819550000000  0.5218930000000 1.0
END
