TITL C-3623284-6838-237 -9.05894503682379e-07 125000 -482.09421304564 0 0 81 (C1) n - 1
REM
REM in /home/nfs/bkarasulu/CARBON/AIRSS/Generating-Clusters/LCBOP/Higher-Symm/SD-CG/FIRE-CG
REM
REM
REM
REM
REM
REM ./C.cell (b20cbc046b6831c77cfcea5457e17084)
REM AIRSS Version 0.9.1 bugfix July 2018 build 013d7b7c2542+ Fri, 06 Jul 2018 19:26:36 +0100
REM compiler GCC version 9.2.1 20190827 (Red Hat 9.2.1-1)
REM options -cpp -mtune=generic -march=x86-64 -g -O0 -fpre-include=/usr/include/finclude/math-vector-fortran.h
REM seed 1895629517 1717020979 -563061039 -1870058594 -1413270164 1309117441 1855114396 -1283240904 -150940371 -535146372 1608963199 -423180561 -1677396426 -1655724189 324329541 1519017782 -2037091380 1079639754 214458585 -639524318 -1436377629 1155443697 417324595 871795720 437835781 -932129211 1502282737 1418291706 1314186832 255065547 1513023750 2127006836 -578179934
REM
CELL 1.54180   50.00000   50.00000   50.00000   90.00000   90.00000   90.00000
LATT -1
SFAC C  
C      1  0.5299050000000  0.4945880000000  0.5334160000000 1.0
C      1  0.4660870000000  0.4965870000000  0.4613430000000 1.0
C      1  0.4678630000000  0.5176040000000  0.5493910000000 1.0
C      1  0.5160240000000  0.5168610000000  0.4651110000000 1.0
C      1  0.5428620000000  0.4836110000000  0.5088370000000 1.0
C      1  0.4557460000000  0.4732420000000  0.4732100000000 1.0
C      1  0.5376640000000  0.5245010000000  0.4818230000000 1.0
C      1  0.4741270000000  0.5096090000000  0.5230730000000 1.0
C      1  0.4319990000000  0.4644150000000  0.4850220000000 1.0
C      1  0.5689990000000  0.4706650000000  0.5078380000000 1.0
C      1  0.5662250000000  0.5333550000000  0.4848610000000 1.0
C      1  0.4206210000000  0.5344140000000  0.5077320000000 1.0
C      1  0.4907190000000  0.4626550000000  0.4234030000000 1.0
C      1  0.5079420000000  0.4603190000000  0.5841420000000 1.0
C      1  0.4877470000000  0.5304710000000  0.5649250000000 1.0
C      1  0.5127540000000  0.5308030000000  0.4403970000000 1.0
C      1  0.4919200000000  0.5844970000000  0.4703460000000 1.0
C      1  0.5035430000000  0.5902550000000  0.5262780000000 1.0
C      1  0.5037530000000  0.4153560000000  0.4734140000000 1.0
C      1  0.4865610000000  0.4265390000000  0.5292530000000 1.0
C      1  0.4718900000000  0.5747950000000  0.4852160000000 1.0
C      1  0.5268370000000  0.5898190000000  0.5125830000000 1.0
C      1  0.4684870000000  0.4157420000000  0.5121810000000 1.0
C      1  0.5226770000000  0.4169550000000  0.4925590000000 1.0
C      1  0.4185570000000  0.5208370000000  0.4614520000000 1.0
C      1  0.5804040000000  0.5209480000000  0.5317110000000 1.0
C      1  0.5807810000000  0.4839400000000  0.4630040000000 1.0
C      1  0.4211800000000  0.4793100000000  0.5301950000000 1.0
C      1  0.4680970000000  0.5224420000000  0.4233060000000 1.0
C      1  0.5344410000000  0.5156050000000  0.5744740000000 1.0
C      1  0.4629900000000  0.4796380000000  0.5751540000000 1.0
C      1  0.5353540000000  0.4830430000000  0.4245830000000 1.0
C      1  0.4850430000000  0.5696550000000  0.5324800000000 1.0
C      1  0.5179000000000  0.5739580000000  0.4663730000000 1.0
C      1  0.5112990000000  0.4436460000000  0.5367520000000 1.0
C      1  0.4794640000000  0.4314860000000  0.4666260000000 1.0
C      1  0.5338770000000  0.5693890000000  0.4925440000000 1.0
C      1  0.4685880000000  0.5567860000000  0.5088120000000 1.0
C      1  0.5302750000000  0.4392690000000  0.5104800000000 1.0
C      1  0.4571500000000  0.4202800000000  0.4858090000000 1.0
C      1  0.4253280000000  0.5019850000000  0.4405600000000 1.0
C      1  0.5749990000000  0.4980730000000  0.5493320000000 1.0
C      1  0.5767270000000  0.5039550000000  0.4426960000000 1.0
C      1  0.4239870000000  0.4996500000000  0.5503970000000 1.0
C      1  0.4536010000000  0.5016850000000  0.4366900000000 1.0
C      1  0.5476120000000  0.4953980000000  0.5573870000000 1.0
C      1  0.4491480000000  0.5025080000000  0.5635360000000 1.0
C      1  0.5556420000000  0.5034970000000  0.4249830000000 1.0
C      1  0.4815430000000  0.4403950000000  0.4368560000000 1.0
C      1  0.5169240000000  0.4414050000000  0.5663200000000 1.0
C      1  0.5205700000000  0.5578490000000  0.4428410000000 1.0
C      1  0.4892440000000  0.5574040000000  0.5577700000000 1.0
C      1  0.4321980000000  0.4356260000000  0.4857100000000 1.0
C      1  0.5609500000000  0.4432460000000  0.5138900000000 1.0
C      1  0.4390970000000  0.5526650000000  0.5148990000000 1.0
C      1  0.5631600000000  0.5624900000000  0.4861960000000 1.0
C      1  0.5066470000000  0.4749950000000  0.5359100000000 1.0
C      1  0.4795910000000  0.4587770000000  0.4785990000000 1.0
C      1  0.5222410000000  0.5237370000000  0.5259830000000 1.0
C      1  0.4908600000000  0.5057380000000  0.4769370000000 1.0
C      1  0.5239790000000  0.4668080000000  0.4953900000000 1.0
C      1  0.4858150000000  0.4843040000000  0.5190850000000 1.0
C      1  0.5258990000000  0.5407230000000  0.5037270000000 1.0
C      1  0.4774090000000  0.5270730000000  0.5022950000000 1.0
C      1  0.4533310000000  0.5461820000000  0.4326570000000 1.0
C      1  0.5495870000000  0.5400030000000  0.5678490000000 1.0
C      1  0.5454230000000  0.4596000000000  0.4379490000000 1.0
C      1  0.4510840000000  0.4559120000000  0.5637150000000 1.0
C      1  0.4324130000000  0.5452990000000  0.4514290000000 1.0
C      1  0.5684160000000  0.5429180000000  0.5473450000000 1.0
C      1  0.4333960000000  0.4557330000000  0.5424240000000 1.0
C      1  0.5670440000000  0.4598030000000  0.4548380000000 1.0
C      1  0.5841490000000  0.4889010000000  0.4915600000000 1.0
C      1  0.4195450000000  0.4847740000000  0.5014810000000 1.0
C      1  0.4167780000000  0.5125330000000  0.4897600000000 1.0
C      1  0.5820360000000  0.5165210000000  0.5021860000000 1.0
C      1  0.4917800000000  0.4841900000000  0.5828750000000 1.0
C      1  0.5066420000000  0.4868760000000  0.4201550000000 1.0
C      1  0.4965490000000  0.5154110000000  0.4221390000000 1.0
C      1  0.5052580000000  0.5113750000000  0.5784020000000 1.0
C      1  0.4971100000000  0.4781230000000  0.4916180000000 1.0
END
