TITL C-3623288-6813-456 53.3145024767599 125000 -1101.60511765076 0 0 180 (C1) n - 1
REM
REM in /home/nfs/bkarasulu/CARBON/AIRSS/Generating-Clusters/LCBOP/Higher-Symm/SD-CG/FIRE-CG
REM
REM
REM
REM
REM
REM ./C.cell (b20cbc046b6831c77cfcea5457e17084)
REM AIRSS Version 0.9.1 bugfix July 2018 build 013d7b7c2542+ Fri, 06 Jul 2018 19:26:36 +0100
REM compiler GCC version 9.2.1 20190827 (Red Hat 9.2.1-1)
REM options -cpp -mtune=generic -march=x86-64 -g -O0 -fpre-include=/usr/include/finclude/math-vector-fortran.h
REM seed -1363958966 -1875927255 -801184179 597407897 -2109198273 918145204 1084576255 -1346936440 -545403835 1522384992 -524124019 990743741 433245871 -392790272 -977032607 657557167 11648166 1203766191 -952096138 -870773551 -1210949262 1874468319 -1983213916 349008345 1131110619 519759208 -1243147616 -221662813 -1652374852 1137794943 1288998675 -1531932248 284116640
REM
CELL 1.54180   50.00000   50.00000   50.00000   90.00000   90.00000   90.00000
LATT -1
SFAC C  
C      1  0.3932440000000  0.5459530000000  0.5088560000000 1.0
C      1  0.4816920000000  0.6065900000000  0.5363900000000 1.0
C      1  0.5843590000000  0.5033170000000  0.4190740000000 1.0
C      1  0.3749210000000  0.5270670000000  0.5214220000000 1.0
C      1  0.4546990000000  0.5324240000000  0.3957740000000 1.0
C      1  0.5283220000000  0.5949620000000  0.4078950000000 1.0
C      1  0.5431280000000  0.4051180000000  0.5139390000000 1.0
C      1  0.5694820000000  0.4808390000000  0.6037090000000 1.0
C      1  0.5632670000000  0.5027760000000  0.5284380000000 1.0
C      1  0.5041740000000  0.5078210000000  0.5328250000000 1.0
C      1  0.5616250000000  0.4778010000000  0.5153820000000 1.0
C      1  0.5022420000000  0.5466440000000  0.5966600000000 1.0
C      1  0.4850490000000  0.5637840000000  0.5211050000000 1.0
C      1  0.5101220000000  0.5404890000000  0.6229240000000 1.0
C      1  0.4934890000000  0.5985590000000  0.4446710000000 1.0
C      1  0.5275000000000  0.5467490000000  0.5327250000000 1.0
C      1  0.5366200000000  0.4888160000000  0.4236870000000 1.0
C      1  0.5684360000000  0.4600020000000  0.4017700000000 1.0
C      1  0.5387320000000  0.5751830000000  0.3898580000000 1.0
C      1  0.4484420000000  0.4072670000000  0.4518890000000 1.0
C      1  0.4325990000000  0.4455390000000  0.4249410000000 1.0
C      1  0.5724310000000  0.5201300000000  0.5490010000000 1.0
C      1  0.5561770000000  0.4297600000000  0.4631030000000 1.0
C      1  0.5885690000000  0.5397530000000  0.4852360000000 1.0
C      1  0.4239700000000  0.4254890000000  0.5609010000000 1.0
C      1  0.5002560000000  0.5491760000000  0.4469770000000 1.0
C      1  0.4496220000000  0.4925960000000  0.5063030000000 1.0
C      1  0.5350560000000  0.5517980000000  0.4853710000000 1.0
C      1  0.5594370000000  0.4383890000000  0.4153240000000 1.0
C      1  0.3949910000000  0.4938830000000  0.5542450000000 1.0
C      1  0.4126920000000  0.5500360000000  0.5315290000000 1.0
C      1  0.4710230000000  0.5093150000000  0.4400940000000 1.0
C      1  0.4624400000000  0.4617710000000  0.3840560000000 1.0
C      1  0.4981400000000  0.4249420000000  0.4840410000000 1.0
C      1  0.5814320000000  0.5772940000000  0.5142300000000 1.0
C      1  0.4402390000000  0.5331680000000  0.4792800000000 1.0
C      1  0.5899970000000  0.5087620000000  0.4463190000000 1.0
C      1  0.5585600000000  0.5879970000000  0.5302900000000 1.0
C      1  0.5579160000000  0.5790910000000  0.4429150000000 1.0
C      1  0.5792580000000  0.5686550000000  0.4864210000000 1.0
C      1  0.5875250000000  0.3965030000000  0.4658690000000 1.0
C      1  0.5098070000000  0.5780750000000  0.5626910000000 1.0
C      1  0.4505400000000  0.4579680000000  0.6219520000000 1.0
C      1  0.5437760000000  0.4551590000000  0.5253000000000 1.0
C      1  0.4188340000000  0.5465600000000  0.4616600000000 1.0
C      1  0.5554740000000  0.5551670000000  0.4012040000000 1.0
C      1  0.5763800000000  0.5192780000000  0.4690980000000 1.0
C      1  0.4734620000000  0.4561720000000  0.5477760000000 1.0
C      1  0.4486350000000  0.5820860000000  0.5001770000000 1.0
C      1  0.4534520000000  0.5864970000000  0.5759850000000 1.0
C      1  0.4017800000000  0.5415790000000  0.5568170000000 1.0
C      1  0.4214300000000  0.5406640000000  0.5779880000000 1.0
C      1  0.3907880000000  0.4758710000000  0.4740250000000 1.0
C      1  0.4462750000000  0.5771760000000  0.4344230000000 1.0
C      1  0.5461160000000  0.4420470000000  0.4401340000000 1.0
C      1  0.4699900000000  0.6049050000000  0.5632890000000 1.0
C      1  0.5771950000000  0.4681490000000  0.4917450000000 1.0
C      1  0.4639180000000  0.5934120000000  0.4506490000000 1.0
C      1  0.3841990000000  0.5191780000000  0.5478090000000 1.0
C      1  0.4095990000000  0.4722100000000  0.5392010000000 1.0
C      1  0.4956330000000  0.4720340000000  0.6458110000000 1.0
C      1  0.5373660000000  0.3956150000000  0.4868150000000 1.0
C      1  0.4086020000000  0.4925640000000  0.5810330000000 1.0
C      1  0.4703520000000  0.4366800000000  0.5680620000000 1.0
C      1  0.4938130000000  0.5253170000000  0.5793930000000 1.0
C      1  0.5649520000000  0.4421070000000  0.4867500000000 1.0
C      1  0.5103030000000  0.3954270000000  0.5847460000000 1.0
C      1  0.5031590000000  0.5038670000000  0.5040920000000 1.0
C      1  0.4951150000000  0.4862680000000  0.3575120000000 1.0
C      1  0.5709450000000  0.4372840000000  0.5768810000000 1.0
C      1  0.4794910000000  0.5439040000000  0.4047200000000 1.0
C      1  0.4717590000000  0.4860620000000  0.3727730000000 1.0
C      1  0.5593840000000  0.4010980000000  0.4680120000000 1.0
C      1  0.4357160000000  0.4507580000000  0.5995240000000 1.0
C      1  0.6071820000000  0.4155780000000  0.4648910000000 1.0
C      1  0.4454140000000  0.4310190000000  0.5800640000000 1.0
C      1  0.5405770000000  0.5300420000000  0.4418490000000 1.0
C      1  0.3883980000000  0.4577410000000  0.4520050000000 1.0
C      1  0.4655440000000  0.5861820000000  0.5228770000000 1.0
C      1  0.5692550000000  0.5090560000000  0.5959780000000 1.0
C      1  0.5457700000000  0.4262600000000  0.5836690000000 1.0
C      1  0.5336470000000  0.3982900000000  0.5397520000000 1.0
C      1  0.3697380000000  0.4808370000000  0.4905970000000 1.0
C      1  0.4951820000000  0.4344230000000  0.4185850000000 1.0
C      1  0.4426810000000  0.4977610000000  0.4393100000000 1.0
C      1  0.4557650000000  0.4788600000000  0.5497510000000 1.0
C      1  0.4445580000000  0.5533300000000  0.5010670000000 1.0
C      1  0.4498040000000  0.5049830000000  0.5618000000000 1.0
C      1  0.5787820000000  0.5472420000000  0.5489650000000 1.0
C      1  0.5356330000000  0.5281810000000  0.6256700000000 1.0
C      1  0.4380060000000  0.5644350000000  0.5816500000000 1.0
C      1  0.4160310000000  0.4877390000000  0.4767660000000 1.0
C      1  0.5153290000000  0.4827360000000  0.5744150000000 1.0
C      1  0.5223960000000  0.5141650000000  0.4251380000000 1.0
C      1  0.4865930000000  0.5713450000000  0.4035610000000 1.0
C      1  0.4592890000000  0.4548240000000  0.4690930000000 1.0
C      1  0.5308210000000  0.4058510000000  0.5666910000000 1.0
C      1  0.5267800000000  0.4652750000000  0.4409890000000 1.0
C      1  0.4729190000000  0.4369000000000  0.4957780000000 1.0
C      1  0.6124900000000  0.4421140000000  0.4679890000000 1.0
C      1  0.4405630000000  0.5430020000000  0.5276560000000 1.0
C      1  0.4140290000000  0.4647130000000  0.5861660000000 1.0
C      1  0.5531900000000  0.5534150000000  0.4303970000000 1.0
C      1  0.4371170000000  0.4783660000000  0.4601510000000 1.0
C      1  0.6222890000000  0.4607770000000  0.5292900000000 1.0
C      1  0.3515940000000  0.4183820000000  0.4509900000000 1.0
C      1  0.4097400000000  0.4504540000000  0.5595190000000 1.0
C      1  0.5407450000000  0.6009850000000  0.4818810000000 1.0
C      1  0.5061100000000  0.5630200000000  0.5395020000000 1.0
C      1  0.5630890000000  0.4856110000000  0.4124270000000 1.0
C      1  0.5829720000000  0.5074460000000  0.5711140000000 1.0
C      1  0.4590050000000  0.5271010000000  0.5448160000000 1.0
C      1  0.5480470000000  0.6010960000000  0.4273760000000 1.0
C      1  0.4290090000000  0.5540330000000  0.4350290000000 1.0
C      1  0.4996580000000  0.4607950000000  0.4271450000000 1.0
C      1  0.4775420000000  0.4920100000000  0.4946120000000 1.0
C      1  0.5156170000000  0.4527110000000  0.5175480000000 1.0
C      1  0.5537550000000  0.5326420000000  0.6027600000000 1.0
C      1  0.5389140000000  0.5432450000000  0.5093510000000 1.0
C      1  0.4163630000000  0.4711940000000  0.3884430000000 1.0
C      1  0.4301440000000  0.5076590000000  0.4914390000000 1.0
C      1  0.4363510000000  0.4782440000000  0.5281300000000 1.0
C      1  0.5813810000000  0.4632520000000  0.5830180000000 1.0
C      1  0.6131190000000  0.5089820000000  0.5231510000000 1.0
C      1  0.5618330000000  0.5843830000000  0.4702060000000 1.0
C      1  0.6023870000000  0.4654810000000  0.4782810000000 1.0
C      1  0.4663200000000  0.5285750000000  0.4656840000000 1.0
C      1  0.4856280000000  0.4489260000000  0.5227000000000 1.0
C      1  0.5189540000000  0.4891350000000  0.5484240000000 1.0
C      1  0.5769710000000  0.5418380000000  0.3893130000000 1.0
C      1  0.5318970000000  0.4268100000000  0.6091910000000 1.0
C      1  0.5255350000000  0.4993660000000  0.4824640000000 1.0
C      1  0.4191160000000  0.4020790000000  0.5471770000000 1.0
C      1  0.4154520000000  0.3806010000000  0.5328810000000 1.0
C      1  0.5841970000000  0.4221860000000  0.5573180000000 1.0
C      1  0.6108830000000  0.4375210000000  0.5220390000000 1.0
C      1  0.4312470000000  0.5335400000000  0.4136670000000 1.0
C      1  0.5164850000000  0.4711900000000  0.4705200000000 1.0
C      1  0.4873570000000  0.5251240000000  0.5500970000000 1.0
C      1  0.5049200000000  0.3942870000000  0.4483390000000 1.0
C      1  0.4844680000000  0.4753530000000  0.4686090000000 1.0
C      1  0.4867880000000  0.5478240000000  0.4715200000000 1.0
C      1  0.4913350000000  0.5651140000000  0.4930770000000 1.0
C      1  0.4941470000000  0.5272520000000  0.4257110000000 1.0
C      1  0.4581450000000  0.5103740000000  0.3781680000000 1.0
C      1  0.4069220000000  0.4610040000000  0.4309580000000 1.0
C      1  0.5164710000000  0.4472770000000  0.4886690000000 1.0
C      1  0.5000500000000  0.4992370000000  0.5894400000000 1.0
C      1  0.6125330000000  0.4848790000000  0.5402890000000 1.0
C      1  0.5130910000000  0.6013570000000  0.4682320000000 1.0
C      1  0.5962900000000  0.4824810000000  0.5647680000000 1.0
C      1  0.4978030000000  0.5935490000000  0.4912830000000 1.0
C      1  0.5108900000000  0.4010480000000  0.4752010000000 1.0
C      1  0.5067010000000  0.6064260000000  0.5175570000000 1.0
C      1  0.3971900000000  0.5511030000000  0.4808210000000 1.0
C      1  0.5614440000000  0.5666250000000  0.5597390000000 1.0
C      1  0.4386050000000  0.4538110000000  0.3965280000000 1.0
C      1  0.5354470000000  0.5052350000000  0.6419810000000 1.0
C      1  0.4225440000000  0.5067580000000  0.4211790000000 1.0
C      1  0.5952620000000  0.5555060000000  0.5278410000000 1.0
C      1  0.4067250000000  0.4844480000000  0.4121860000000 1.0
C      1  0.5470360000000  0.5156450000000  0.4672490000000 1.0
C      1  0.5015840000000  0.5914080000000  0.4173770000000 1.0
C      1  0.5477880000000  0.5570600000000  0.5843180000000 1.0
C      1  0.4486510000000  0.4341330000000  0.4470170000000 1.0
C      1  0.4843840000000  0.4824020000000  0.4390540000000 1.0
C      1  0.5186890000000  0.4852730000000  0.6482360000000 1.0
C      1  0.4295890000000  0.5124620000000  0.5807560000000 1.0
C      1  0.5199910000000  0.5653860000000  0.5850770000000 1.0
C      1  0.5601130000000  0.4302640000000  0.5145080000000 1.0
C      1  0.4987820000000  0.4089860000000  0.4265720000000 1.0
C      1  0.5113350000000  0.4082540000000  0.6093180000000 1.0
C      1  0.4525520000000  0.5971990000000  0.4766970000000 1.0
C      1  0.4718100000000  0.4641170000000  0.6368050000000 1.0
C      1  0.5186170000000  0.4869510000000  0.3462700000000 1.0
C      1  0.3692120000000  0.4375780000000  0.4514690000000 1.0
C      1  0.5916590000000  0.5214320000000  0.3988250000000 1.0
C      1  0.6035050000000  0.5332790000000  0.5103430000000 1.0
C      1  0.5861110000000  0.4264290000000  0.5296360000000 1.0
C      1  0.5375090000000  0.6023840000000  0.5141180000000 1.0
END
