TITL C-3623286-7563-1965 -1.23595950203771e-06 125000 -1087.126616449 0 0 178 (C1) n - 1
REM
REM in /home/nfs/bkarasulu/CARBON/AIRSS/Generating-Clusters/LCBOP/Higher-Symm/SD-CG/FIRE-CG
REM
REM
REM
REM
REM
REM ./C.cell (b20cbc046b6831c77cfcea5457e17084)
REM AIRSS Version 0.9.1 bugfix July 2018 build 013d7b7c2542+ Fri, 06 Jul 2018 19:26:36 +0100
REM compiler GCC version 9.2.1 20190827 (Red Hat 9.2.1-1)
REM options -cpp -mtune=generic -march=x86-64 -g -O0 -fpre-include=/usr/include/finclude/math-vector-fortran.h
REM seed -293438926 1959214278 1831928906 520200829 642541037 -1542601618 1455561266 -851965551 -713702435 -220173317 -2051154308 -1316131433 995611516 1438486188 -1539631360 1070060851 -387870493 1514274769 394401484 -762195387 239983328 96184261 -135755430 -274043037 -1621198062 -1203291239 1006774269 -1994460222 -1713107578 1093607898 -594930660 1885599288 -1376961565
REM
CELL 1.54180   50.00000   50.00000   50.00000   90.00000   90.00000   90.00000
LATT -1
SFAC C  
C      1  0.5497110000000  0.4115210000000  0.5293670000000 1.0
C      1  0.5073220000000  0.4245370000000  0.5538940000000 1.0
C      1  0.4801210000000  0.4220660000000  0.5476490000000 1.0
C      1  0.4408640000000  0.4117990000000  0.5134010000000 1.0
C      1  0.4657650000000  0.4124060000000  0.4696360000000 1.0
C      1  0.5012820000000  0.4082120000000  0.4640490000000 1.0
C      1  0.5484510000000  0.4056030000000  0.4830840000000 1.0
C      1  0.6019610000000  0.5202090000000  0.5109750000000 1.0
C      1  0.5592980000000  0.5133810000000  0.5856370000000 1.0
C      1  0.4673320000000  0.5225920000000  0.5961420000000 1.0
C      1  0.4034870000000  0.5221630000000  0.5344790000000 1.0
C      1  0.4134760000000  0.5180050000000  0.4439380000000 1.0
C      1  0.4875470000000  0.5416310000000  0.3860110000000 1.0
C      1  0.5794600000000  0.5409490000000  0.4189520000000 1.0
C      1  0.5883470000000  0.5398670000000  0.5318230000000 1.0
C      1  0.5346860000000  0.5079970000000  0.5990650000000 1.0
C      1  0.4500610000000  0.5419460000000  0.5775320000000 1.0
C      1  0.3981530000000  0.5196330000000  0.5068360000000 1.0
C      1  0.4264200000000  0.5429680000000  0.4343360000000 1.0
C      1  0.5101440000000  0.5575070000000  0.3940950000000 1.0
C      1  0.5874590000000  0.5564330000000  0.4416900000000 1.0
C      1  0.4868910000000  0.4743440000000  0.5721500000000 1.0
C      1  0.4354560000000  0.4802340000000  0.5406400000000 1.0
C      1  0.4280850000000  0.4729220000000  0.4762010000000 1.0
C      1  0.4744780000000  0.4576910000000  0.4388670000000 1.0
C      1  0.5311650000000  0.4579970000000  0.4421900000000 1.0
C      1  0.5727280000000  0.4701950000000  0.4923650000000 1.0
C      1  0.5681280000000  0.4778900000000  0.5466210000000 1.0
C      1  0.5971480000000  0.4773230000000  0.6007240000000 1.0
C      1  0.4787800000000  0.4567320000000  0.6395090000000 1.0
C      1  0.3784980000000  0.4832180000000  0.5709910000000 1.0
C      1  0.3660300000000  0.4612730000000  0.4488660000000 1.0
C      1  0.4535910000000  0.4810330000000  0.3762250000000 1.0
C      1  0.5693470000000  0.4837140000000  0.3879750000000 1.0
C      1  0.6375960000000  0.4800160000000  0.4816000000000 1.0
C      1  0.5046750000000  0.5761330000000  0.4154230000000 1.0
C      1  0.5687240000000  0.5766670000000  0.4499090000000 1.0
C      1  0.5786220000000  0.5677730000000  0.5217090000000 1.0
C      1  0.5250380000000  0.5680100000000  0.5645770000000 1.0
C      1  0.4603030000000  0.5704520000000  0.5683420000000 1.0
C      1  0.4217420000000  0.6012460000000  0.5126330000000 1.0
C      1  0.4388320000000  0.5655570000000  0.4487510000000 1.0
C      1  0.4830460000000  0.5844710000000  0.5783520000000 1.0
C      1  0.4291230000000  0.5943490000000  0.5375940000000 1.0
C      1  0.4253450000000  0.5786470000000  0.4698610000000 1.0
C      1  0.4773490000000  0.5807590000000  0.4208080000000 1.0
C      1  0.5492560000000  0.5862980000000  0.4321650000000 1.0
C      1  0.5827830000000  0.5762090000000  0.4954040000000 1.0
C      1  0.5508350000000  0.5776160000000  0.5600440000000 1.0
C      1  0.5111240000000  0.4310310000000  0.4763790000000 1.0
C      1  0.5389920000000  0.4347860000000  0.4863750000000 1.0
C      1  0.5427620000000  0.4406470000000  0.5215450000000 1.0
C      1  0.5222060000000  0.4459310000000  0.5449100000000 1.0
C      1  0.4660420000000  0.4442640000000  0.5372510000000 1.0
C      1  0.4492650000000  0.4415010000000  0.5103800000000 1.0
C      1  0.4637320000000  0.4397430000000  0.4824610000000 1.0
C      1  0.4825410000000  0.5433200000000  0.5181820000000 1.0
C      1  0.4679050000000  0.5412660000000  0.4943080000000 1.0
C      1  0.4788360000000  0.5374390000000  0.4687310000000 1.0
C      1  0.5058270000000  0.5371230000000  0.4609260000000 1.0
C      1  0.5286370000000  0.5378700000000  0.4773230000000 1.0
C      1  0.5293780000000  0.5410110000000  0.5049440000000 1.0
C      1  0.5175400000000  0.5452130000000  0.5495290000000 1.0
C      1  0.4798120000000  0.3946450000000  0.5363200000000 1.0
C      1  0.4620090000000  0.3915170000000  0.5145550000000 1.0
C      1  0.4745650000000  0.3852230000000  0.4900490000000 1.0
C      1  0.5033420000000  0.3850220000000  0.4816570000000 1.0
C      1  0.5292460000000  0.3858440000000  0.4947230000000 1.0
C      1  0.5307900000000  0.3900610000000  0.5232910000000 1.0
C      1  0.5073260000000  0.3879390000000  0.5380230000000 1.0
C      1  0.4633710000000  0.4939970000000  0.5023400000000 1.0
C      1  0.4739000000000  0.4905390000000  0.4728830000000 1.0
C      1  0.5039750000000  0.4887030000000  0.4635310000000 1.0
C      1  0.5294970000000  0.4886870000000  0.4814990000000 1.0
C      1  0.5333380000000  0.4927010000000  0.5134990000000 1.0
C      1  0.5113580000000  0.4947970000000  0.5351640000000 1.0
C      1  0.4803110000000  0.4957710000000  0.5285670000000 1.0
C      1  0.5564050000000  0.5250740000000  0.4211730000000 1.0
C      1  0.5864570000000  0.5038980000000  0.4937100000000 1.0
C      1  0.5642010000000  0.5041070000000  0.5583410000000 1.0
C      1  0.4854640000000  0.5023590000000  0.5864190000000 1.0
C      1  0.4274490000000  0.5095320000000  0.5441970000000 1.0
C      1  0.4198050000000  0.5024020000000  0.4672290000000 1.0
C      1  0.4769940000000  0.5235400000000  0.4046080000000 1.0
C      1  0.4326730000000  0.4439150000000  0.4179330000000 1.0
C      1  0.5215600000000  0.4536160000000  0.3951850000000 1.0
C      1  0.5956740000000  0.4520810000000  0.4523860000000 1.0
C      1  0.6067010000000  0.4501590000000  0.5448950000000 1.0
C      1  0.5242330000000  0.4508680000000  0.5987690000000 1.0
C      1  0.4301520000000  0.4505720000000  0.5815280000000 1.0
C      1  0.3902540000000  0.4514570000000  0.5017120000000 1.0
C      1  0.5637900000000  0.5239780000000  0.5380390000000 1.0
C      1  0.5122230000000  0.5117530000000  0.5828960000000 1.0
C      1  0.4491060000000  0.5262410000000  0.5519640000000 1.0
C      1  0.4210460000000  0.5185820000000  0.4906160000000 1.0
C      1  0.4663820000000  0.5141980000000  0.4272240000000 1.0
C      1  0.5320860000000  0.5149630000000  0.4258090000000 1.0
C      1  0.5725340000000  0.5152130000000  0.4728010000000 1.0
C      1  0.5408160000000  0.4566130000000  0.4158170000000 1.0
C      1  0.5962690000000  0.4565510000000  0.4803060000000 1.0
C      1  0.5841810000000  0.4587090000000  0.5598820000000 1.0
C      1  0.4953870000000  0.4553620000000  0.5948330000000 1.0
C      1  0.4189030000000  0.4623370000000  0.5583720000000 1.0
C      1  0.4038680000000  0.4549480000000  0.4769180000000 1.0
C      1  0.4593240000000  0.4528570000000  0.4152100000000 1.0
C      1  0.6153920000000  0.5195160000000  0.5748570000000 1.0
C      1  0.5172530000000  0.4892070000000  0.6451900000000 1.0
C      1  0.4017060000000  0.5238540000000  0.5946080000000 1.0
C      1  0.3566120000000  0.5006240000000  0.4797480000000 1.0
C      1  0.4284140000000  0.5257920000000  0.3851410000000 1.0
C      1  0.5479700000000  0.5286670000000  0.3715220000000 1.0
C      1  0.6284260000000  0.5266320000000  0.4586260000000 1.0
C      1  0.3532300000000  0.4812080000000  0.4616130000000 1.0
C      1  0.4376750000000  0.5026020000000  0.3752610000000 1.0
C      1  0.5601210000000  0.5047600000000  0.3739650000000 1.0
C      1  0.6378190000000  0.5027540000000  0.4669370000000 1.0
C      1  0.6117040000000  0.4985360000000  0.5916600000000 1.0
C      1  0.4969310000000  0.4728050000000  0.6511160000000 1.0
C      1  0.3854290000000  0.5036630000000  0.5872640000000 1.0
C      1  0.5119800000000  0.5895190000000  0.4650600000000 1.0
C      1  0.5342960000000  0.5900570000000  0.4861620000000 1.0
C      1  0.5310990000000  0.5922020000000  0.5162230000000 1.0
C      1  0.5038180000000  0.5953890000000  0.5320790000000 1.0
C      1  0.4761050000000  0.5921420000000  0.5220130000000 1.0
C      1  0.4668220000000  0.5933980000000  0.4938920000000 1.0
C      1  0.4820460000000  0.5881080000000  0.4692920000000 1.0
C      1  0.5028630000000  0.4646990000000  0.4442450000000 1.0
C      1  0.5466020000000  0.4627660000000  0.4729010000000 1.0
C      1  0.5561570000000  0.4697080000000  0.5199090000000 1.0
C      1  0.5126740000000  0.4709520000000  0.5536360000000 1.0
C      1  0.4658980000000  0.4734640000000  0.5483710000000 1.0
C      1  0.4389260000000  0.4729020000000  0.5082470000000 1.0
C      1  0.4572820000000  0.4642520000000  0.4638790000000 1.0
C      1  0.4653320000000  0.5780040000000  0.4460730000000 1.0
C      1  0.5214760000000  0.5854980000000  0.4367680000000 1.0
C      1  0.5622780000000  0.5826810000000  0.4770460000000 1.0
C      1  0.5559380000000  0.5824270000000  0.5327040000000 1.0
C      1  0.5053770000000  0.5883310000000  0.5612650000000 1.0
C      1  0.4549830000000  0.5839970000000  0.5426410000000 1.0
C      1  0.4374090000000  0.5937160000000  0.4904840000000 1.0
C      1  0.6207100000000  0.4611010000000  0.4945150000000 1.0
C      1  0.5787890000000  0.4591590000000  0.5882390000000 1.0
C      1  0.4736680000000  0.4497040000000  0.6127480000000 1.0
C      1  0.3909460000000  0.4650590000000  0.5531420000000 1.0
C      1  0.3918710000000  0.4502740000000  0.4513640000000 1.0
C      1  0.4696460000000  0.4627580000000  0.3904930000000 1.0
C      1  0.5671960000000  0.4653770000000  0.4094350000000 1.0
C      1  0.6205220000000  0.4533010000000  0.5218440000000 1.0
C      1  0.5517100000000  0.4524110000000  0.5969580000000 1.0
C      1  0.4481510000000  0.4462480000000  0.6010170000000 1.0
C      1  0.3831910000000  0.4565010000000  0.5272560000000 1.0
C      1  0.4088410000000  0.4429820000000  0.4301370000000 1.0
C      1  0.4969090000000  0.4576360000000  0.3854420000000 1.0
C      1  0.5874980000000  0.4581400000000  0.4275780000000 1.0
C      1  0.6113320000000  0.5469420000000  0.4538050000000 1.0
C      1  0.6070970000000  0.5373210000000  0.5560460000000 1.0
C      1  0.5316160000000  0.5011070000000  0.6260410000000 1.0
C      1  0.4226310000000  0.5405110000000  0.5907920000000 1.0
C      1  0.3727820000000  0.5141920000000  0.4961430000000 1.0
C      1  0.4268240000000  0.5432020000000  0.4056620000000 1.0
C      1  0.5340080000000  0.5496440000000  0.3811610000000 1.0
C      1  0.4661370000000  0.5147770000000  0.4552530000000 1.0
C      1  0.5111870000000  0.5133030000000  0.4442990000000 1.0
C      1  0.5449220000000  0.5145290000000  0.4718160000000 1.0
C      1  0.5454110000000  0.5206710000000  0.5171240000000 1.0
C      1  0.5165950000000  0.5183340000000  0.5560900000000 1.0
C      1  0.4726400000000  0.5240670000000  0.5369510000000 1.0
C      1  0.4472750000000  0.5217530000000  0.4989480000000 1.0
C      1  0.5953160000000  0.5416030000000  0.3966490000000 1.0
C      1  0.6292240000000  0.5191890000000  0.5131400000000 1.0
C      1  0.5741150000000  0.5335010000000  0.5972450000000 1.0
C      1  0.4651750000000  0.5264570000000  0.6232260000000 1.0
C      1  0.3884650000000  0.5404040000000  0.5482600000000 1.0
C      1  0.3920470000000  0.5093020000000  0.4287520000000 1.0
C      1  0.4776900000000  0.5442370000000  0.3606280000000 1.0
C      1  0.5093820000000  0.5493520000000  0.5223690000000 1.0
C      1  0.4920250000000  0.4453660000000  0.4901060000000 1.0
C      1  0.4983310000000  0.4624820000000  0.5091540000000 1.0
END
