TITL C-3623284-6838-1478 -5.80855446549537e-07 125000 -377.232139740506 0 0 64 (C1) n - 1
REM
REM in /home/nfs/bkarasulu/CARBON/AIRSS/Generating-Clusters/LCBOP/Higher-Symm/SD-CG/FIRE-CG
REM
REM
REM
REM
REM
REM ./C.cell (b20cbc046b6831c77cfcea5457e17084)
REM AIRSS Version 0.9.1 bugfix July 2018 build 013d7b7c2542+ Fri, 06 Jul 2018 19:26:36 +0100
REM compiler GCC version 9.2.1 20190827 (Red Hat 9.2.1-1)
REM options -cpp -mtune=generic -march=x86-64 -g -O0 -fpre-include=/usr/include/finclude/math-vector-fortran.h
REM seed 1124620089 1423622999 -1146433621 2026518369 965403204 -231056524 -168072002 1793227059 -354590870 -460135842 882330419 -96937535 -268227934 -26500217 1023544525 -1270870471 2139618921 -1173195851 -1469190700 -804152566 -361462093 -1074745096 -774066022 928491134 1689111971 516117772 -1276137103 -1119902087 -774776319 1696189566 -1867771713 -509566003 -285683709
REM
CELL 1.54180   50.00000   50.00000   50.00000   90.00000   90.00000   90.00000
LATT -1
SFAC C  
C      1  0.5140150000000  0.5155950000000  0.5311190000000 1.0
C      1  0.4924890000000  0.5702120000000  0.4795690000000 1.0
C      1  0.5112930000000  0.5816460000000  0.4612780000000 1.0
C      1  0.5208860000000  0.4607910000000  0.3852200000000 1.0
C      1  0.4024480000000  0.4708350000000  0.5232050000000 1.0
C      1  0.4706160000000  0.4789340000000  0.5912810000000 1.0
C      1  0.5169330000000  0.4852230000000  0.4917090000000 1.0
C      1  0.5238260000000  0.5660110000000  0.4415970000000 1.0
C      1  0.5619780000000  0.5055890000000  0.5572240000000 1.0
C      1  0.4950250000000  0.5020930000000  0.4865580000000 1.0
C      1  0.5722410000000  0.5099960000000  0.5325580000000 1.0
C      1  0.4472370000000  0.5552480000000  0.4685860000000 1.0
C      1  0.4583680000000  0.4518750000000  0.5525580000000 1.0
C      1  0.5629670000000  0.4614800000000  0.4827160000000 1.0
C      1  0.5174450000000  0.6082870000000  0.4632700000000 1.0
C      1  0.5411860000000  0.4407580000000  0.5606600000000 1.0
C      1  0.4993380000000  0.5171730000000  0.4631060000000 1.0
C      1  0.5495790000000  0.5520050000000  0.4029630000000 1.0
C      1  0.5424120000000  0.4281920000000  0.5367550000000 1.0
C      1  0.5115380000000  0.4716570000000  0.4069820000000 1.0
C      1  0.4344910000000  0.4820160000000  0.4313340000000 1.0
C      1  0.5407950000000  0.4737770000000  0.4889820000000 1.0
C      1  0.5201590000000  0.5375180000000  0.5139390000000 1.0
C      1  0.5239190000000  0.4847210000000  0.5860260000000 1.0
C      1  0.4550080000000  0.4857880000000  0.4492790000000 1.0
C      1  0.4289980000000  0.5123140000000  0.5249820000000 1.0
C      1  0.4596900000000  0.4399230000000  0.4768010000000 1.0
C      1  0.4646480000000  0.5757890000000  0.4764800000000 1.0
C      1  0.5338150000000  0.4228400000000  0.5115430000000 1.0
C      1  0.4581690000000  0.4781120000000  0.5648330000000 1.0
C      1  0.5662560000000  0.5237570000000  0.5084810000000 1.0
C      1  0.4957860000000  0.4928510000000  0.5909360000000 1.0
C      1  0.4403010000000  0.5295770000000  0.4664880000000 1.0
C      1  0.5015930000000  0.5538440000000  0.5005820000000 1.0
C      1  0.4642280000000  0.4416240000000  0.5047700000000 1.0
C      1  0.4726260000000  0.4997270000000  0.5472310000000 1.0
C      1  0.5475860000000  0.5451060000000  0.5118870000000 1.0
C      1  0.4924590000000  0.4448690000000  0.5099830000000 1.0
C      1  0.4987230000000  0.4892570000000  0.5324910000000 1.0
C      1  0.5021170000000  0.4830850000000  0.4305890000000 1.0
C      1  0.4998200000000  0.4604880000000  0.5324510000000 1.0
C      1  0.4815500000000  0.4458300000000  0.4586650000000 1.0
C      1  0.4865850000000  0.4459380000000  0.5536550000000 1.0
C      1  0.4897990000000  0.5149970000000  0.5706440000000 1.0
C      1  0.4676250000000  0.5025500000000  0.4953060000000 1.0
C      1  0.4067490000000  0.4973130000000  0.5244650000000 1.0
C      1  0.4509100000000  0.5039430000000  0.4714540000000 1.0
C      1  0.5331440000000  0.4586520000000  0.5792880000000 1.0
C      1  0.5122900000000  0.4311080000000  0.4949610000000 1.0
C      1  0.5378580000000  0.5464660000000  0.4269830000000 1.0
C      1  0.4187380000000  0.4495200000000  0.5236720000000 1.0
C      1  0.5377400000000  0.5065080000000  0.5717690000000 1.0
C      1  0.4549730000000  0.6008660000000  0.4816530000000 1.0
C      1  0.4797930000000  0.4710940000000  0.4449670000000 1.0
C      1  0.5061000000000  0.4329710000000  0.4670410000000 1.0
C      1  0.5637230000000  0.5963900000000  0.5155670000000 1.0
C      1  0.5708400000000  0.5166640000000  0.4815070000000 1.0
C      1  0.4567320000000  0.5076750000000  0.5222290000000 1.0
C      1  0.5139490000000  0.5069710000000  0.4413220000000 1.0
C      1  0.5559670000000  0.5715740000000  0.5138210000000 1.0
C      1  0.5391270000000  0.5203110000000  0.4385160000000 1.0
C      1  0.4462040000000  0.4450480000000  0.5272000000000 1.0
C      1  0.5602760000000  0.5151610000000  0.4567580000000 1.0
C      1  0.5163220000000  0.5218690000000  0.5595550000000 1.0
END
