TITL C-3623289-7120-1298 5387.76524659347 125000 -928.426396556033 0 0 153 (C1) n - 1
REM
REM in /home/nfs/bkarasulu/CARBON/AIRSS/Generating-Clusters/LCBOP/Higher-Symm/SD-CG/FIRE-CG
REM
REM
REM
REM
REM
REM ./C.cell (b20cbc046b6831c77cfcea5457e17084)
REM AIRSS Version 0.9.1 bugfix July 2018 build 013d7b7c2542+ Fri, 06 Jul 2018 19:26:36 +0100
REM compiler GCC version 9.2.1 20190827 (Red Hat 9.2.1-1)
REM options -cpp -mtune=generic -march=x86-64 -g -O0 -fpre-include=/usr/include/finclude/math-vector-fortran.h
REM seed -2039946936 -1420744942 -1134225352 1027082396 -997487009 1088237269 1164190517 -1812578440 -1379294723 -1935477629 -1680018516 722253276 -1652202339 1045899613 495968885 798882858 1142515161 233610935 1881789143 1091475620 584774982 -578610609 -1111071314 1548017333 -1685964602 746914757 666667331 1599572157 1105002059 1394365585 -980851241 1340137102 -24625883
REM
CELL 1.54180   50.00000   50.00000   50.00000   90.00000   90.00000   90.00000
LATT -1
SFAC C  
C      1  0.5728240000000  0.5139910000000  0.4021730000000 1.0
C      1  0.5779980000000  0.4876190000000  0.4020510000000 1.0
C      1  0.5621880000000  0.4911540000000  0.4588620000000 1.0
C      1  0.5613160000000  0.5186540000000  0.4645670000000 1.0
C      1  0.5293020000000  0.4066310000000  0.5141860000000 1.0
C      1  0.5403090000000  0.6000200000000  0.5148040000000 1.0
C      1  0.5098940000000  0.5576740000000  0.5021370000000 1.0
C      1  0.4904140000000  0.4736550000000  0.4536880000000 1.0
C      1  0.5269950000000  0.5070980000000  0.3758840000000 1.0
C      1  0.5320990000000  0.4803010000000  0.3741530000000 1.0
C      1  0.5314330000000  0.4138240000000  0.3918870000000 1.0
C      1  0.4930160000000  0.5631870000000  0.4061480000000 1.0
C      1  0.4618990000000  0.3918310000000  0.4893030000000 1.0
C      1  0.4844760000000  0.6205090000000  0.5106530000000 1.0
C      1  0.4379060000000  0.4746440000000  0.5416610000000 1.0
C      1  0.4273320000000  0.5345820000000  0.5462490000000 1.0
C      1  0.4419770000000  0.5239190000000  0.4427750000000 1.0
C      1  0.4053650000000  0.4833820000000  0.4653570000000 1.0
C      1  0.4761860000000  0.5784980000000  0.4731290000000 1.0
C      1  0.4825360000000  0.4276780000000  0.4555450000000 1.0
C      1  0.4585770000000  0.4546100000000  0.5351110000000 1.0
C      1  0.4505880000000  0.5484520000000  0.5358180000000 1.0
C      1  0.4697060000000  0.4094160000000  0.4387310000000 1.0
C      1  0.4470090000000  0.5818970000000  0.4706670000000 1.0
C      1  0.4949280000000  0.4779860000000  0.5652800000000 1.0
C      1  0.4845200000000  0.5275060000000  0.5612320000000 1.0
C      1  0.5250480000000  0.4675190000000  0.6198900000000 1.0
C      1  0.5252120000000  0.5249170000000  0.6250000000000 1.0
C      1  0.5829500000000  0.5133860000000  0.5497920000000 1.0
C      1  0.5837710000000  0.4839410000000  0.5491210000000 1.0
C      1  0.5292370000000  0.5974570000000  0.5410370000000 1.0
C      1  0.5213320000000  0.4038260000000  0.5412820000000 1.0
C      1  0.5818440000000  0.5273730000000  0.5227200000000 1.0
C      1  0.5808270000000  0.4708650000000  0.5218860000000 1.0
C      1  0.6182120000000  0.5284680000000  0.4902570000000 1.0
C      1  0.6132280000000  0.4703360000000  0.4844170000000 1.0
C      1  0.4782330000000  0.5840950000000  0.4012960000000 1.0
C      1  0.5198660000000  0.3913090000000  0.3838060000000 1.0
C      1  0.4865360000000  0.5141390000000  0.5377520000000 1.0
C      1  0.4982610000000  0.4901360000000  0.5402790000000 1.0
C      1  0.6144940000000  0.5355170000000  0.4646020000000 1.0
C      1  0.6094680000000  0.4731900000000  0.4579120000000 1.0
C      1  0.5365940000000  0.5236340000000  0.5473290000000 1.0
C      1  0.5401840000000  0.4970530000000  0.5460880000000 1.0
C      1  0.4177780000000  0.5671940000000  0.5145620000000 1.0
C      1  0.4214980000000  0.4400040000000  0.5160510000000 1.0
C      1  0.4816570000000  0.5684520000000  0.5019090000000 1.0
C      1  0.4712250000000  0.4538440000000  0.4599310000000 1.0
C      1  0.4597960000000  0.5031950000000  0.3882420000000 1.0
C      1  0.4128400000000  0.4425360000000  0.4116000000000 1.0
C      1  0.5081740000000  0.5082340000000  0.6400750000000 1.0
C      1  0.5079360000000  0.4812230000000  0.6376600000000 1.0
C      1  0.5286720000000  0.5454040000000  0.5631600000000 1.0
C      1  0.5377710000000  0.4713870000000  0.5542670000000 1.0
C      1  0.4247690000000  0.4646280000000  0.4031010000000 1.0
C      1  0.4396170000000  0.4853450000000  0.3958790000000 1.0
C      1  0.4643960000000  0.5434120000000  0.5093460000000 1.0
C      1  0.4863700000000  0.4495060000000  0.5305990000000 1.0
C      1  0.5635250000000  0.4674840000000  0.5915570000000 1.0
C      1  0.5621680000000  0.5295200000000  0.5939110000000 1.0
C      1  0.4324120000000  0.4776180000000  0.5697590000000 1.0
C      1  0.4267860000000  0.5269470000000  0.5735240000000 1.0
C      1  0.5365830000000  0.4297400000000  0.4713710000000 1.0
C      1  0.5311320000000  0.5783890000000  0.4672250000000 1.0
C      1  0.4721560000000  0.3977960000000  0.5587230000000 1.0
C      1  0.4819240000000  0.5997970000000  0.5644800000000 1.0
C      1  0.4872710000000  0.3839250000000  0.4927060000000 1.0
C      1  0.5066550000000  0.6334440000000  0.5023490000000 1.0
C      1  0.5079190000000  0.6015940000000  0.5571350000000 1.0
C      1  0.4986260000000  0.3954780000000  0.5535340000000 1.0
C      1  0.5320940000000  0.6241210000000  0.5020900000000 1.0
C      1  0.5130790000000  0.3894730000000  0.4978650000000 1.0
C      1  0.5193920000000  0.4614350000000  0.3915040000000 1.0
C      1  0.5075550000000  0.5180930000000  0.3938120000000 1.0
C      1  0.4357290000000  0.6010390000000  0.4539040000000 1.0
C      1  0.4659290000000  0.3897290000000  0.4213080000000 1.0
C      1  0.4329680000000  0.4863560000000  0.4719130000000 1.0
C      1  0.4416550000000  0.5148490000000  0.4697290000000 1.0
C      1  0.5470970000000  0.4470880000000  0.4507980000000 1.0
C      1  0.5373070000000  0.5560400000000  0.4501930000000 1.0
C      1  0.5364420000000  0.5473680000000  0.4225970000000 1.0
C      1  0.5532640000000  0.4458600000000  0.4225210000000 1.0
C      1  0.4761970000000  0.3754710000000  0.4012540000000 1.0
C      1  0.4256860000000  0.6184480000000  0.4366460000000 1.0
C      1  0.5943920000000  0.5249820000000  0.4495770000000 1.0
C      1  0.5897300000000  0.4901010000000  0.4484170000000 1.0
C      1  0.4703040000000  0.5149140000000  0.5830380000000 1.0
C      1  0.4749930000000  0.4867290000000  0.5841150000000 1.0
C      1  0.5086040000000  0.4854500000000  0.4943940000000 1.0
C      1  0.5032390000000  0.5131520000000  0.4950720000000 1.0
C      1  0.4822830000000  0.5210930000000  0.5118560000000 1.0
C      1  0.5001120000000  0.4718570000000  0.5180290000000 1.0
C      1  0.4932800000000  0.4382910000000  0.5852250000000 1.0
C      1  0.4937480000000  0.5580560000000  0.5948310000000 1.0
C      1  0.4590970000000  0.5823420000000  0.5674240000000 1.0
C      1  0.4530100000000  0.4190480000000  0.5628650000000 1.0
C      1  0.5841750000000  0.4652780000000  0.5715400000000 1.0
C      1  0.5818060000000  0.5311910000000  0.5728160000000 1.0
C      1  0.4181880000000  0.5546440000000  0.4077250000000 1.0
C      1  0.3562010000000  0.4784000000000  0.4474590000000 1.0
C      1  0.5893450000000  0.4383950000000  0.5625070000000 1.0
C      1  0.5886950000000  0.5581160000000  0.5649140000000 1.0
C      1  0.4629030000000  0.4382910000000  0.5850310000000 1.0
C      1  0.4635640000000  0.5620770000000  0.5899990000000 1.0
C      1  0.5183250000000  0.5489620000000  0.6097880000000 1.0
C      1  0.5178940000000  0.4488860000000  0.5982340000000 1.0
C      1  0.5010930000000  0.5487170000000  0.5677240000000 1.0
C      1  0.4969970000000  0.4492210000000  0.5585150000000 1.0
C      1  0.6000050000000  0.5132900000000  0.5053140000000 1.0
C      1  0.5984650000000  0.4844210000000  0.5037310000000 1.0
C      1  0.5497710000000  0.5114440000000  0.6135560000000 1.0
C      1  0.5504840000000  0.4824740000000  0.6128270000000 1.0
C      1  0.3804900000000  0.4811670000000  0.4565060000000 1.0
C      1  0.4321940000000  0.5391490000000  0.4233390000000 1.0
C      1  0.4149760000000  0.4687250000000  0.5239830000000 1.0
C      1  0.4069750000000  0.5411520000000  0.5262740000000 1.0
C      1  0.4465440000000  0.4599020000000  0.4743970000000 1.0
C      1  0.4435580000000  0.5374080000000  0.4881540000000 1.0
C      1  0.4784150000000  0.5947020000000  0.5159130000000 1.0
C      1  0.4433420000000  0.4107000000000  0.4849040000000 1.0
C      1  0.5406140000000  0.5488210000000  0.5891250000000 1.0
C      1  0.5394280000000  0.4557170000000  0.5782090000000 1.0
C      1  0.3980700000000  0.4905850000000  0.5177440000000 1.0
C      1  0.3941870000000  0.5175410000000  0.5169300000000 1.0
C      1  0.5711650000000  0.5563580000000  0.5176670000000 1.0
C      1  0.5675670000000  0.4430120000000  0.5171960000000 1.0
C      1  0.4416200000000  0.4307830000000  0.5374870000000 1.0
C      1  0.4445190000000  0.5748410000000  0.5426290000000 1.0
C      1  0.4160210000000  0.6347950000000  0.4187880000000 1.0
C      1  0.4983150000000  0.3757750000000  0.3862570000000 1.0
C      1  0.5142970000000  0.4774870000000  0.4682000000000 1.0
C      1  0.5203560000000  0.5343300000000  0.4892260000000 1.0
C      1  0.5030660000000  0.5866690000000  0.4641350000000 1.0
C      1  0.5090570000000  0.4228770000000  0.4651950000000 1.0
C      1  0.4339520000000  0.4371900000000  0.4895520000000 1.0
C      1  0.4305630000000  0.5641940000000  0.4875410000000 1.0
C      1  0.5457840000000  0.4276280000000  0.5004170000000 1.0
C      1  0.5496980000000  0.5780100000000  0.4987070000000 1.0
C      1  0.5818540000000  0.5700550000000  0.5412670000000 1.0
C      1  0.5793420000000  0.4275660000000  0.5393950000000 1.0
C      1  0.4014770000000  0.4213990000000  0.4217830000000 1.0
C      1  0.4547380000000  0.5226080000000  0.3696220000000 1.0
C      1  0.4534150000000  0.4665570000000  0.5862330000000 1.0
C      1  0.4499230000000  0.5355430000000  0.5889950000000 1.0
C      1  0.5399170000000  0.5346800000000  0.4689800000000 1.0
C      1  0.5408830000000  0.4737030000000  0.4590780000000 1.0
C      1  0.5734490000000  0.4628430000000  0.4116440000000 1.0
C      1  0.5594630000000  0.5357180000000  0.4106250000000 1.0
C      1  0.5118250000000  0.5426190000000  0.4081340000000 1.0
C      1  0.5333400000000  0.4393420000000  0.4028980000000 1.0
C      1  0.4950740000000  0.4720580000000  0.4016290000000 1.0
C      1  0.4860700000000  0.4990810000000  0.3980490000000 1.0
C      1  0.4180460000000  0.5003660000000  0.5783560000000 1.0
END
