TITL C-3623289-7120-932 -2028.46096470172 125000 -559.77372331603 0 0 94 (C1) n - 1
REM
REM in /home/nfs/bkarasulu/CARBON/AIRSS/Generating-Clusters/LCBOP/Higher-Symm/SD-CG/FIRE-CG
REM
REM
REM
REM
REM
REM ./C.cell (b20cbc046b6831c77cfcea5457e17084)
REM AIRSS Version 0.9.1 bugfix July 2018 build 013d7b7c2542+ Fri, 06 Jul 2018 19:26:36 +0100
REM compiler GCC version 9.2.1 20190827 (Red Hat 9.2.1-1)
REM options -cpp -mtune=generic -march=x86-64 -g -O0 -fpre-include=/usr/include/finclude/math-vector-fortran.h
REM seed -1967917173 -2071370146 1889644459 -1258548427 328300913 -402445011 1590384912 716917203 2009229568 -858022268 734322855 -272468262 -1302436576 397140223 1614625855 1779124945 -784334113 -1571166440 1703681698 -1672424153 -1858238987 732104521 -1602457483 -236583123 -1572538264 1544732352 -2034609446 -1060681736 -1425897493 645336116 -1764195488 596964691 1665827784
REM
CELL 1.54180   50.00000   50.00000   50.00000   90.00000   90.00000   90.00000
LATT -1
SFAC C  
C      1  0.4874510000000  0.4445790000000  0.5076500000000 1.0
C      1  0.5168530000000  0.4422360000000  0.5157500000000 1.0
C      1  0.5138340000000  0.5295460000000  0.4444760000000 1.0
C      1  0.4870210000000  0.5305870000000  0.4442650000000 1.0
C      1  0.5296540000000  0.5580650000000  0.5088450000000 1.0
C      1  0.4709920000000  0.5583130000000  0.5088100000000 1.0
C      1  0.5376510000000  0.4609810000000  0.5130790000000 1.0
C      1  0.4625910000000  0.4618940000000  0.5115760000000 1.0
C      1  0.5193620000000  0.4186690000000  0.5548290000000 1.0
C      1  0.4824650000000  0.4251090000000  0.5527680000000 1.0
C      1  0.6062140000000  0.5084550000000  0.5076800000000 1.0
C      1  0.3938260000000  0.5080610000000  0.5074720000000 1.0
C      1  0.5272650000000  0.4965110000000  0.5780010000000 1.0
C      1  0.4734180000000  0.4960260000000  0.5771370000000 1.0
C      1  0.4711320000000  0.4777970000000  0.4077430000000 1.0
C      1  0.5302200000000  0.4783990000000  0.4073600000000 1.0
C      1  0.4459600000000  0.4293350000000  0.4765640000000 1.0
C      1  0.5529960000000  0.4309340000000  0.4759980000000 1.0
C      1  0.5148630000000  0.4520670000000  0.5649180000000 1.0
C      1  0.4851990000000  0.4517390000000  0.5627860000000 1.0
C      1  0.5500290000000  0.5974050000000  0.5267170000000 1.0
C      1  0.4496660000000  0.5972240000000  0.5263960000000 1.0
C      1  0.4862260000000  0.6292760000000  0.5180220000000 1.0
C      1  0.5133560000000  0.6292640000000  0.5180830000000 1.0
C      1  0.5544350000000  0.4822360000000  0.4212870000000 1.0
C      1  0.4468390000000  0.4812220000000  0.4216120000000 1.0
C      1  0.4610120000000  0.4053440000000  0.4836840000000 1.0
C      1  0.5346110000000  0.4086020000000  0.4809500000000 1.0
C      1  0.5146050000000  0.4544280000000  0.4090550000000 1.0
C      1  0.4872210000000  0.4541480000000  0.4093490000000 1.0
C      1  0.4852480000000  0.6059180000000  0.5598470000000 1.0
C      1  0.5141340000000  0.6058770000000  0.5599020000000 1.0
C      1  0.5852610000000  0.5308300000000  0.5065230000000 1.0
C      1  0.4150430000000  0.5301860000000  0.5060730000000 1.0
C      1  0.4719950000000  0.5365720000000  0.5540160000000 1.0
C      1  0.5283580000000  0.5367470000000  0.5542540000000 1.0
C      1  0.5661030000000  0.4641420000000  0.4410700000000 1.0
C      1  0.4350320000000  0.4630740000000  0.4412670000000 1.0
C      1  0.5773460000000  0.5262780000000  0.4767490000000 1.0
C      1  0.4226770000000  0.5253930000000  0.4762740000000 1.0
C      1  0.4404530000000  0.4519930000000  0.4956330000000 1.0
C      1  0.5586830000000  0.4529240000000  0.4952950000000 1.0
C      1  0.5806850000000  0.4704480000000  0.4884730000000 1.0
C      1  0.4187170000000  0.4695840000000  0.4882240000000 1.0
C      1  0.4702900000000  0.5087140000000  0.4872620000000 1.0
C      1  0.5295600000000  0.5072930000000  0.4878570000000 1.0
C      1  0.5541340000000  0.5724620000000  0.5143010000000 1.0
C      1  0.4461580000000  0.5722020000000  0.5139310000000 1.0
C      1  0.4715220000000  0.5196790000000  0.4631040000000 1.0
C      1  0.5283670000000  0.5175400000000  0.4634120000000 1.0
C      1  0.5035540000000  0.4364850000000  0.4586200000000 1.0
C      1  0.4921140000000  0.4514830000000  0.4777390000000 1.0
C      1  0.4351040000000  0.5071670000000  0.4286570000000 1.0
C      1  0.5657470000000  0.5082810000000  0.4287170000000 1.0
C      1  0.3975910000000  0.4796850000000  0.5048440000000 1.0
C      1  0.6017360000000  0.4801430000000  0.5054300000000 1.0
C      1  0.5566290000000  0.5346960000000  0.5533770000000 1.0
C      1  0.4437400000000  0.5342070000000  0.5528790000000 1.0
C      1  0.5281250000000  0.5997760000000  0.5826610000000 1.0
C      1  0.4711440000000  0.5999320000000  0.5825650000000 1.0
C      1  0.4209170000000  0.4790120000000  0.4614880000000 1.0
C      1  0.5793790000000  0.4800740000000  0.4617430000000 1.0
C      1  0.4741670000000  0.5084560000000  0.5151960000000 1.0
C      1  0.5264050000000  0.5079110000000  0.5158600000000 1.0
C      1  0.3810300000000  0.4624080000000  0.5181430000000 1.0
C      1  0.6174790000000  0.4626170000000  0.5193710000000 1.0
C      1  0.5339140000000  0.3994190000000  0.5081020000000 1.0
C      1  0.4624520000000  0.4012720000000  0.5117570000000 1.0
C      1  0.4713500000000  0.6126470000000  0.5355230000000 1.0
C      1  0.5281570000000  0.6126550000000  0.5356640000000 1.0
C      1  0.5727100000000  0.5250100000000  0.5341670000000 1.0
C      1  0.4277260000000  0.5243830000000  0.5336660000000 1.0
C      1  0.4846730000000  0.3958660000000  0.4698650000000 1.0
C      1  0.5096320000000  0.4096140000000  0.4657910000000 1.0
C      1  0.4227340000000  0.5072770000000  0.4549090000000 1.0
C      1  0.5775790000000  0.5083530000000  0.4552360000000 1.0
C      1  0.4859110000000  0.5212040000000  0.5734760000000 1.0
C      1  0.5144260000000  0.5214250000000  0.5737300000000 1.0
C      1  0.5284840000000  0.4761860000000  0.5583360000000 1.0
C      1  0.4722450000000  0.4762740000000  0.5569530000000 1.0
C      1  0.4842560000000  0.5361120000000  0.5262480000000 1.0
C      1  0.5163490000000  0.5359760000000  0.5263650000000 1.0
C      1  0.5333720000000  0.4835740000000  0.5302440000000 1.0
C      1  0.4675440000000  0.4838570000000  0.5291860000000 1.0
C      1  0.5795680000000  0.5611160000000  0.5072480000000 1.0
C      1  0.4209660000000  0.5604700000000  0.5066310000000 1.0
C      1  0.5137560000000  0.5681140000000  0.4878410000000 1.0
C      1  0.4870050000000  0.5684960000000  0.4879620000000 1.0
C      1  0.5141130000000  0.4998430000000  0.3971550000000 1.0
C      1  0.4867060000000  0.4995510000000  0.3973480000000 1.0
C      1  0.5251120000000  0.4173780000000  0.5280160000000 1.0
C      1  0.4766290000000  0.4202990000000  0.5263180000000 1.0
C      1  0.5596340000000  0.4380570000000  0.4491900000000 1.0
C      1  0.4413990000000  0.4369360000000  0.4494560000000 1.0
END
