TITL C-3623289-7120-246 -1.00325015909489e-06 125000 -900.231843637609 0 0 146 (C1) n - 1
REM
REM in /home/nfs/bkarasulu/CARBON/AIRSS/Generating-Clusters/LCBOP/Higher-Symm/SD-CG/FIRE-CG
REM
REM
REM
REM
REM
REM ./C.cell (b20cbc046b6831c77cfcea5457e17084)
REM AIRSS Version 0.9.1 bugfix July 2018 build 013d7b7c2542+ Fri, 06 Jul 2018 19:26:36 +0100
REM compiler GCC version 9.2.1 20190827 (Red Hat 9.2.1-1)
REM options -cpp -mtune=generic -march=x86-64 -g -O0 -fpre-include=/usr/include/finclude/math-vector-fortran.h
REM seed 1756456545 670940966 38836113 957049885 -1256204851 594656996 227773585 -1831376748 -209534302 -515889346 1360215181 964106302 -793534966 -1265189284 -612178318 1730275836 -1863785524 -420059443 -584512522 1514399258 -1349429754 -91446043 151823075 1136190261 -92712854 -1894381028 561132984 -1401422954 1991714682 -652842909 -346130169 -854592547 -632620981
REM
CELL 1.54180   50.00000   50.00000   50.00000   90.00000   90.00000   90.00000
LATT -1
SFAC C  
C      1  0.4772220000000  0.4125020000000  0.4204170000000 1.0
C      1  0.5240370000000  0.5923800000000  0.4208160000000 1.0
C      1  0.5323750000000  0.4079530000000  0.5839510000000 1.0
C      1  0.4741490000000  0.5850420000000  0.5902170000000 1.0
C      1  0.4856880000000  0.4760900000000  0.5144420000000 1.0
C      1  0.4979940000000  0.5329300000000  0.5107050000000 1.0
C      1  0.4990580000000  0.4874220000000  0.4933940000000 1.0
C      1  0.4954900000000  0.5149500000000  0.4898820000000 1.0
C      1  0.5095020000000  0.4579450000000  0.4123360000000 1.0
C      1  0.4883090000000  0.5419210000000  0.4120810000000 1.0
C      1  0.4939630000000  0.4562490000000  0.5947880000000 1.0
C      1  0.5060390000000  0.5399870000000  0.5905010000000 1.0
C      1  0.4462990000000  0.5964950000000  0.5112380000000 1.0
C      1  0.5617320000000  0.3981110000000  0.5148240000000 1.0
C      1  0.5607120000000  0.6035640000000  0.4855210000000 1.0
C      1  0.4307600000000  0.3980030000000  0.4819450000000 1.0
C      1  0.5888250000000  0.5197410000000  0.5260760000000 1.0
C      1  0.4081450000000  0.4810180000000  0.5256570000000 1.0
C      1  0.4111910000000  0.5146980000000  0.4790240000000 1.0
C      1  0.5866660000000  0.4826250000000  0.4728390000000 1.0
C      1  0.5826470000000  0.5220740000000  0.4441270000000 1.0
C      1  0.4135700000000  0.4775270000000  0.4460600000000 1.0
C      1  0.4134410000000  0.5179080000000  0.5575390000000 1.0
C      1  0.5843850000000  0.4804890000000  0.5543590000000 1.0
C      1  0.3695160000000  0.4575360000000  0.5065130000000 1.0
C      1  0.6245840000000  0.5481910000000  0.5094800000000 1.0
C      1  0.6224420000000  0.4532580000000  0.4873410000000 1.0
C      1  0.3816070000000  0.5511960000000  0.4879700000000 1.0
C      1  0.4591460000000  0.5291460000000  0.6061670000000 1.0
C      1  0.5417050000000  0.4632280000000  0.6043830000000 1.0
C      1  0.5352020000000  0.5384350000000  0.3976690000000 1.0
C      1  0.4612090000000  0.4675440000000  0.3983090000000 1.0
C      1  0.5186460000000  0.5206450000000  0.5738000000000 1.0
C      1  0.4917330000000  0.4833660000000  0.5843860000000 1.0
C      1  0.4883730000000  0.5142200000000  0.4209430000000 1.0
C      1  0.5196520000000  0.4789770000000  0.4287690000000 1.0
C      1  0.5278250000000  0.4871290000000  0.4553490000000 1.0
C      1  0.4747440000000  0.5059110000000  0.4468630000000 1.0
C      1  0.4758380000000  0.4905520000000  0.5593370000000 1.0
C      1  0.5278800000000  0.5146300000000  0.5466340000000 1.0
C      1  0.5027590000000  0.5922360000000  0.4857350000000 1.0
C      1  0.4900360000000  0.4074490000000  0.4971920000000 1.0
C      1  0.4950150000000  0.5960750000000  0.5113520000000 1.0
C      1  0.5040560000000  0.4074600000000  0.5201190000000 1.0
C      1  0.3853570000000  0.4369190000000  0.4954950000000 1.0
C      1  0.6066540000000  0.5693460000000  0.5039670000000 1.0
C      1  0.6042540000000  0.4318850000000  0.4908320000000 1.0
C      1  0.4039490000000  0.5685230000000  0.4858510000000 1.0
C      1  0.4482400000000  0.4519340000000  0.4186300000000 1.0
C      1  0.5486210000000  0.5504380000000  0.4202850000000 1.0
C      1  0.5534980000000  0.4516120000000  0.5806820000000 1.0
C      1  0.4463020000000  0.5444820000000  0.5855420000000 1.0
C      1  0.4337330000000  0.4837480000000  0.5985420000000 1.0
C      1  0.5626810000000  0.5094350000000  0.5978470000000 1.0
C      1  0.5594200000000  0.4935700000000  0.4015290000000 1.0
C      1  0.4338950000000  0.5119270000000  0.4055760000000 1.0
C      1  0.5560060000000  0.4232060000000  0.5804640000000 1.0
C      1  0.4489590000000  0.5729030000000  0.5855000000000 1.0
C      1  0.4513630000000  0.4236370000000  0.4179130000000 1.0
C      1  0.5490010000000  0.5789550000000  0.4209370000000 1.0
C      1  0.6140840000000  0.4777910000000  0.4796640000000 1.0
C      1  0.3850090000000  0.5243950000000  0.4855820000000 1.0
C      1  0.3802240000000  0.4784370000000  0.5198040000000 1.0
C      1  0.6161900000000  0.5244200000000  0.5191770000000 1.0
C      1  0.4926850000000  0.4355720000000  0.5752230000000 1.0
C      1  0.5179640000000  0.5781090000000  0.5661910000000 1.0
C      1  0.5155400000000  0.4276850000000  0.4491290000000 1.0
C      1  0.4873490000000  0.5617370000000  0.4325970000000 1.0
C      1  0.4297100000000  0.4058550000000  0.4181040000000 1.0
C      1  0.5719390000000  0.5947410000000  0.4237790000000 1.0
C      1  0.5794990000000  0.4090620000000  0.5748560000000 1.0
C      1  0.4286700000000  0.5896960000000  0.5759030000000 1.0
C      1  0.3741990000000  0.4149800000000  0.4838320000000 1.0
C      1  0.6154690000000  0.5949990000000  0.5013600000000 1.0
C      1  0.6122840000000  0.4059340000000  0.4886120000000 1.0
C      1  0.4014280000000  0.5939510000000  0.4763230000000 1.0
C      1  0.5465940000000  0.5302130000000  0.4869570000000 1.0
C      1  0.4498820000000  0.4698740000000  0.4854130000000 1.0
C      1  0.4530920000000  0.5257850000000  0.5196580000000 1.0
C      1  0.5456580000000  0.4710450000000  0.5140090000000 1.0
C      1  0.5578320000000  0.4703380000000  0.5589590000000 1.0
C      1  0.4389770000000  0.5284030000000  0.5635870000000 1.0
C      1  0.4395730000000  0.4675360000000  0.4403620000000 1.0
C      1  0.5557800000000  0.5319690000000  0.4413280000000 1.0
C      1  0.5369200000000  0.4424200000000  0.5185170000000 1.0
C      1  0.4730630000000  0.5513260000000  0.5155120000000 1.0
C      1  0.4577810000000  0.4409740000000  0.4852260000000 1.0
C      1  0.5368190000000  0.5585440000000  0.4838040000000 1.0
C      1  0.5057860000000  0.4114010000000  0.5816780000000 1.0
C      1  0.4999320000000  0.5884550000000  0.5835170000000 1.0
C      1  0.5016670000000  0.4129020000000  0.4313300000000 1.0
C      1  0.4981340000000  0.5869630000000  0.4257290000000 1.0
C      1  0.5571570000000  0.4247400000000  0.5080460000000 1.0
C      1  0.4512360000000  0.5702290000000  0.5025130000000 1.0
C      1  0.4346570000000  0.4244600000000  0.4894170000000 1.0
C      1  0.5576840000000  0.5766600000000  0.4919570000000 1.0
C      1  0.4853650000000  0.5253330000000  0.4658980000000 1.0
C      1  0.5130080000000  0.4717460000000  0.4746100000000 1.0
C      1  0.5177410000000  0.5367400000000  0.5312740000000 1.0
C      1  0.4827140000000  0.4691850000000  0.5407800000000 1.0
C      1  0.5054100000000  0.4442450000000  0.4697090000000 1.0
C      1  0.4929870000000  0.5521140000000  0.4588340000000 1.0
C      1  0.4952220000000  0.4449350000000  0.5485820000000 1.0
C      1  0.5124770000000  0.5632870000000  0.5429780000000 1.0
C      1  0.5410670000000  0.4869310000000  0.5391760000000 1.0
C      1  0.4589460000000  0.5139170000000  0.5474490000000 1.0
C      1  0.4578260000000  0.4825750000000  0.4583710000000 1.0
C      1  0.5408990000000  0.5148220000000  0.4617990000000 1.0
C      1  0.5838100000000  0.4935420000000  0.4461620000000 1.0
C      1  0.4130820000000  0.5055610000000  0.4516500000000 1.0
C      1  0.4129600000000  0.4897160000000  0.5524830000000 1.0
C      1  0.5856300000000  0.5089080000000  0.5524970000000 1.0
C      1  0.4884110000000  0.4602930000000  0.3951560000000 1.0
C      1  0.5084700000000  0.5474920000000  0.3921150000000 1.0
C      1  0.5162570000000  0.4528680000000  0.6129180000000 1.0
C      1  0.4863400000000  0.5362190000000  0.6088890000000 1.0
C      1  0.5797640000000  0.6134780000000  0.4412920000000 1.0
C      1  0.4197020000000  0.3875850000000  0.4349250000000 1.0
C      1  0.4242090000000  0.6059880000000  0.5552060000000 1.0
C      1  0.5862960000000  0.3904770000000  0.5567620000000 1.0
C      1  0.4133840000000  0.4415440000000  0.4975810000000 1.0
C      1  0.5792340000000  0.5614770000000  0.5027420000000 1.0
C      1  0.5771650000000  0.4400590000000  0.4948490000000 1.0
C      1  0.4290560000000  0.5563060000000  0.4923080000000 1.0
C      1  0.5362310000000  0.5101390000000  0.3985760000000 1.0
C      1  0.4485510000000  0.4926100000000  0.3933360000000 1.0
C      1  0.4472930000000  0.5036920000000  0.6109400000000 1.0
C      1  0.5409470000000  0.4915380000000  0.6026090000000 1.0
C      1  0.5136020000000  0.4317820000000  0.5310260000000 1.0
C      1  0.4897090000000  0.5740680000000  0.5285400000000 1.0
C      1  0.4837990000000  0.4312720000000  0.4833600000000 1.0
C      1  0.5114470000000  0.5676050000000  0.4746300000000 1.0
C      1  0.5762550000000  0.3843860000000  0.5326510000000 1.0
C      1  0.4333260000000  0.6098380000000  0.5304000000000 1.0
C      1  0.4223480000000  0.3833380000000  0.4612390000000 1.0
C      1  0.5723810000000  0.6184720000000  0.4665900000000 1.0
C      1  0.4212810000000  0.5200220000000  0.4283420000000 1.0
C      1  0.5750320000000  0.4825340000000  0.4211850000000 1.0
C      1  0.5773430000000  0.5202330000000  0.5774260000000 1.0
C      1  0.4215020000000  0.4754910000000  0.5756770000000 1.0
C      1  0.5685870000000  0.4688420000000  0.4921520000000 1.0
C      1  0.4317270000000  0.5271310000000  0.4968030000000 1.0
C      1  0.4246270000000  0.4687190000000  0.5044520000000 1.0
C      1  0.5706970000000  0.5329180000000  0.5068820000000 1.0
C      1  0.5162060000000  0.4976840000000  0.5893510000000 1.0
C      1  0.5131090000000  0.5014160000000  0.4132530000000 1.0
END
