TITL C-3623288-6813-1331 3.31841078501925e-07 125000 -1028.56931927588 0 0 171 (C1) n - 1
REM
REM in /home/nfs/bkarasulu/CARBON/AIRSS/Generating-Clusters/LCBOP/Higher-Symm/SD-CG/FIRE-CG
REM
REM
REM
REM
REM
REM ./C.cell (b20cbc046b6831c77cfcea5457e17084)
REM AIRSS Version 0.9.1 bugfix July 2018 build 013d7b7c2542+ Fri, 06 Jul 2018 19:26:36 +0100
REM compiler GCC version 9.2.1 20190827 (Red Hat 9.2.1-1)
REM options -cpp -mtune=generic -march=x86-64 -g -O0 -fpre-include=/usr/include/finclude/math-vector-fortran.h
REM seed 1940331934 1934683707 1531420112 -785803190 -184390123 127072750 -221454036 -213465729 -2001407549 -719638986 -1295990159 885487166 -1780325784 1594277259 -1943458745 -2135991592 57194971 644695366 -837382066 1774049480 934399849 -1333944062 717006798 -572932837 1715680408 1926095150 995772871 70806612 1787287229 986589139 -859100273 -2092742491 1576726450
REM
CELL 1.54180   50.00000   50.00000   50.00000   90.00000   90.00000   90.00000
LATT -1
SFAC C  
C      1  0.5105210000000  0.4365380000000  0.4124200000000 1.0
C      1  0.4928510000000  0.5845130000000  0.4253620000000 1.0
C      1  0.5115410000000  0.5755230000000  0.5872230000000 1.0
C      1  0.4884990000000  0.4148850000000  0.5674090000000 1.0
C      1  0.5709710000000  0.5245520000000  0.5164350000000 1.0
C      1  0.4227550000000  0.4838510000000  0.5219360000000 1.0
C      1  0.5701310000000  0.4770300000000  0.4848610000000 1.0
C      1  0.4227870000000  0.5197980000000  0.4782770000000 1.0
C      1  0.3757780000000  0.4411810000000  0.4947150000000 1.0
C      1  0.6242440000000  0.5041730000000  0.4516810000000 1.0
C      1  0.3804740000000  0.5702120000000  0.5052790000000 1.0
C      1  0.6210450000000  0.4993850000000  0.5622230000000 1.0
C      1  0.5153950000000  0.5643210000000  0.4164610000000 1.0
C      1  0.4868210000000  0.5788110000000  0.5691750000000 1.0
C      1  0.5142370000000  0.4306960000000  0.5796310000000 1.0
C      1  0.4872500000000  0.4227510000000  0.4304600000000 1.0
C      1  0.5849290000000  0.4421050000000  0.5184620000000 1.0
C      1  0.4070770000000  0.4764580000000  0.4502650000000 1.0
C      1  0.5837380000000  0.5564310000000  0.4781020000000 1.0
C      1  0.4134170000000  0.5167060000000  0.5607940000000 1.0
C      1  0.4048160000000  0.5575100000000  0.5006120000000 1.0
C      1  0.5952020000000  0.5032310000000  0.5527300000000 1.0
C      1  0.4019560000000  0.4451810000000  0.5029460000000 1.0
C      1  0.5978250000000  0.4961340000000  0.4510350000000 1.0
C      1  0.4233920000000  0.5511540000000  0.5217950000000 1.0
C      1  0.5757970000000  0.4823280000000  0.5513190000000 1.0
C      1  0.4265320000000  0.4372100000000  0.4868940000000 1.0
C      1  0.5743880000000  0.5119820000000  0.4402160000000 1.0
C      1  0.4211260000000  0.5630350000000  0.5477420000000 1.0
C      1  0.5792830000000  0.4567790000000  0.5636720000000 1.0
C      1  0.4218900000000  0.4295130000000  0.4578260000000 1.0
C      1  0.5793710000000  0.5409770000000  0.4315360000000 1.0
C      1  0.5465260000000  0.5231510000000  0.5789080000000 1.0
C      1  0.4369250000000  0.4138910000000  0.5049350000000 1.0
C      1  0.5681940000000  0.4939480000000  0.4143390000000 1.0
C      1  0.4546230000000  0.5755190000000  0.4827270000000 1.0
C      1  0.4901020000000  0.6052700000000  0.5522290000000 1.0
C      1  0.5142010000000  0.4379130000000  0.6090000000000 1.0
C      1  0.4919020000000  0.3932570000000  0.4404930000000 1.0
C      1  0.5138050000000  0.5505490000000  0.3891310000000 1.0
C      1  0.5645280000000  0.4559920000000  0.5049760000000 1.0
C      1  0.4252780000000  0.4999240000000  0.4554320000000 1.0
C      1  0.5645620000000  0.5432940000000  0.4939800000000 1.0
C      1  0.4309380000000  0.5011220000000  0.5447290000000 1.0
C      1  0.4277170000000  0.4404930000000  0.5457380000000 1.0
C      1  0.5742190000000  0.4527320000000  0.4405700000000 1.0
C      1  0.4218000000000  0.5706650000000  0.4535430000000 1.0
C      1  0.5810020000000  0.5488080000000  0.5641550000000 1.0
C      1  0.4482750000000  0.5848430000000  0.4558630000000 1.0
C      1  0.5585390000000  0.5496270000000  0.5831850000000 1.0
C      1  0.4446920000000  0.4190870000000  0.5328530000000 1.0
C      1  0.5589650000000  0.4659860000000  0.4173080000000 1.0
C      1  0.4709580000000  0.5025430000000  0.4827010000000 1.0
C      1  0.5177130000000  0.5245610000000  0.5006880000000 1.0
C      1  0.4863000000000  0.4990020000000  0.5292570000000 1.0
C      1  0.5184470000000  0.4778870000000  0.4981390000000 1.0
C      1  0.4911500000000  0.4016400000000  0.5210300000000 1.0
C      1  0.5161670000000  0.4809810000000  0.3885690000000 1.0
C      1  0.4933650000000  0.6011970000000  0.4723960000000 1.0
C      1  0.5011160000000  0.5006450000000  0.6283710000000 1.0
C      1  0.5133900000000  0.4204690000000  0.5218120000000 1.0
C      1  0.4899990000000  0.4867760000000  0.3987300000000 1.0
C      1  0.5141400000000  0.5807600000000  0.4770490000000 1.0
C      1  0.4938040000000  0.5104460000000  0.6046770000000 1.0
C      1  0.5434320000000  0.5146690000000  0.5261370000000 1.0
C      1  0.4489110000000  0.4730100000000  0.5103790000000 1.0
C      1  0.5412070000000  0.4851820000000  0.4752130000000 1.0
C      1  0.4518430000000  0.5254800000000  0.4899290000000 1.0
C      1  0.4792050000000  0.3863560000000  0.4664020000000 1.0
C      1  0.5314780000000  0.5303610000000  0.3788900000000 1.0
C      1  0.4764090000000  0.6105810000000  0.5274070000000 1.0
C      1  0.5281630000000  0.4609190000000  0.6187430000000 1.0
C      1  0.5131710000000  0.5684100000000  0.5324820000000 1.0
C      1  0.4862590000000  0.4699560000000  0.5719970000000 1.0
C      1  0.5144450000000  0.4280020000000  0.4684540000000 1.0
C      1  0.4852050000000  0.5281660000000  0.4346860000000 1.0
C      1  0.5822040000000  0.4348750000000  0.5455610000000 1.0
C      1  0.4188240000000  0.4523710000000  0.4410020000000 1.0
C      1  0.5804310000000  0.5621490000000  0.4508750000000 1.0
C      1  0.4215570000000  0.5430330000000  0.5681910000000 1.0
C      1  0.5086630000000  0.5075420000000  0.5550990000000 1.0
C      1  0.4953670000000  0.4559030000000  0.4998600000000 1.0
C      1  0.5136510000000  0.4890860000000  0.4380830000000 1.0
C      1  0.4916960000000  0.5491680000000  0.4983530000000 1.0
C      1  0.4571680000000  0.5746850000000  0.5762380000000 1.0
C      1  0.5455770000000  0.4247030000000  0.5741630000000 1.0
C      1  0.4571360000000  0.4263770000000  0.4258300000000 1.0
C      1  0.5457830000000  0.5725180000000  0.4199990000000 1.0
C      1  0.5096780000000  0.5723020000000  0.5041410000000 1.0
C      1  0.4892710000000  0.5083490000000  0.5764380000000 1.0
C      1  0.5132850000000  0.4309450000000  0.4958430000000 1.0
C      1  0.4859510000000  0.4936060000000  0.4273340000000 1.0
C      1  0.5388800000000  0.4643340000000  0.5191050000000 1.0
C      1  0.4518920000000  0.4847870000000  0.4646170000000 1.0
C      1  0.5386720000000  0.5351980000000  0.4798450000000 1.0
C      1  0.4579170000000  0.5143720000000  0.5397490000000 1.0
C      1  0.4426570000000  0.5892650000000  0.5038850000000 1.0
C      1  0.5506180000000  0.4989380000000  0.5942260000000 1.0
C      1  0.4379990000000  0.3898570000000  0.4899810000000 1.0
C      1  0.5718840000000  0.5082360000000  0.3903110000000 1.0
C      1  0.4125690000000  0.5491970000000  0.4735260000000 1.0
C      1  0.5861250000000  0.5290250000000  0.5430860000000 1.0
C      1  0.4101070000000  0.4566960000000  0.5280690000000 1.0
C      1  0.5863220000000  0.4713510000000  0.4598540000000 1.0
C      1  0.3581020000000  0.5826260000000  0.5102230000000 1.0
C      1  0.6450850000000  0.4951610000000  0.5713490000000 1.0
C      1  0.3515940000000  0.4377880000000  0.4856250000000 1.0
C      1  0.6486000000000  0.5133400000000  0.4530030000000 1.0
C      1  0.4337570000000  0.4716690000000  0.5882410000000 1.0
C      1  0.5665310000000  0.4114380000000  0.4742650000000 1.0
C      1  0.4277510000000  0.5138850000000  0.4286130000000 1.0
C      1  0.5636210000000  0.5949650000000  0.5148800000000 1.0
C      1  0.5491030000000  0.4704950000000  0.6012300000000 1.0
C      1  0.4506740000000  0.3905990000000  0.4645110000000 1.0
C      1  0.5585510000000  0.5332050000000  0.3876680000000 1.0
C      1  0.4499310000000  0.5987080000000  0.5293310000000 1.0
C      1  0.5484270000000  0.4858920000000  0.5381820000000 1.0
C      1  0.4483960000000  0.4600700000000  0.4833840000000 1.0
C      1  0.5486800000000  0.5127740000000  0.4598260000000 1.0
C      1  0.4497550000000  0.5352500000000  0.5188220000000 1.0
C      1  0.5341370000000  0.4413350000000  0.4549810000000 1.0
C      1  0.4650000000000  0.5407420000000  0.4461430000000 1.0
C      1  0.5371430000000  0.5590770000000  0.5420160000000 1.0
C      1  0.4669090000000  0.4636360000000  0.5550420000000 1.0
C      1  0.4267370000000  0.4980820000000  0.4049750000000 1.0
C      1  0.5616740000000  0.6054280000000  0.4901190000000 1.0
C      1  0.4371270000000  0.4949510000000  0.6020560000000 1.0
C      1  0.5627020000000  0.4001140000000  0.4989420000000 1.0
C      1  0.5583600000000  0.3987500000000  0.5260890000000 1.0
C      1  0.4352640000000  0.4725070000000  0.4002240000000 1.0
C      1  0.5584850000000  0.6030220000000  0.4633580000000 1.0
C      1  0.4437690000000  0.5215120000000  0.6037100000000 1.0
C      1  0.5605390000000  0.4497800000000  0.5844930000000 1.0
C      1  0.4409670000000  0.4108870000000  0.4461730000000 1.0
C      1  0.5637300000000  0.5511640000000  0.4088860000000 1.0
C      1  0.4398820000000  0.5847240000000  0.5531250000000 1.0
C      1  0.5303700000000  0.4589220000000  0.4038900000000 1.0
C      1  0.4763050000000  0.5945380000000  0.4477160000000 1.0
C      1  0.5380390000000  0.5687410000000  0.5904240000000 1.0
C      1  0.4722060000000  0.4093300000000  0.5423770000000 1.0
C      1  0.4736310000000  0.5519540000000  0.5222420000000 1.0
C      1  0.5264520000000  0.4833130000000  0.5584300000000 1.0
C      1  0.4752490000000  0.4487420000000  0.4787130000000 1.0
C      1  0.5273900000000  0.5145260000000  0.4387440000000 1.0
C      1  0.5610620000000  0.5831560000000  0.4434540000000 1.0
C      1  0.4490420000000  0.5436240000000  0.5825430000000 1.0
C      1  0.5614970000000  0.4142390000000  0.5502720000000 1.0
C      1  0.4456810000000  0.4556420000000  0.4231470000000 1.0
C      1  0.4882720000000  0.3877290000000  0.4948210000000 1.0
C      1  0.5251310000000  0.5031180000000  0.3731730000000 1.0
C      1  0.4856990000000  0.6142620000000  0.4988990000000 1.0
C      1  0.5154700000000  0.4792160000000  0.6357190000000 1.0
C      1  0.5122570000000  0.5406010000000  0.4372630000000 1.0
C      1  0.4883050000000  0.5571170000000  0.5468010000000 1.0
C      1  0.5126580000000  0.4573760000000  0.5627930000000 1.0
C      1  0.4888600000000  0.4354050000000  0.4579420000000 1.0
C      1  0.4415070000000  0.4564830000000  0.5652010000000 1.0
C      1  0.5605230000000  0.4310450000000  0.4541050000000 1.0
C      1  0.4413720000000  0.5383140000000  0.4310560000000 1.0
C      1  0.5581540000000  0.5765090000000  0.5338710000000 1.0
C      1  0.5318460000000  0.5281450000000  0.5511080000000 1.0
C      1  0.4742200000000  0.4697530000000  0.5257590000000 1.0
C      1  0.5286840000000  0.4692740000000  0.4522940000000 1.0
C      1  0.4682540000000  0.5486960000000  0.4769800000000 1.0
C      1  0.5224230000000  0.5557610000000  0.4631540000000 1.0
C      1  0.4707150000000  0.5296480000000  0.5649850000000 1.0
C      1  0.5221270000000  0.4441720000000  0.5362540000000 1.0
C      1  0.4639730000000  0.4766630000000  0.4382350000000 1.0
C      1  0.5822300000000  0.5003640000000  0.5006710000000 1.0
C      1  0.4099600000000  0.5021170000000  0.5008980000000 1.0
C      1  0.5000920000000  0.5018760000000  0.5018750000000 1.0
END
