TITL C-3623289-7120-681 0.733093295172549 125000 -571.092988311702 0 0 95 (C1) n - 1
REM
REM in /home/nfs/bkarasulu/CARBON/AIRSS/Generating-Clusters/LCBOP/Higher-Symm/SD-CG/FIRE-CG
REM
REM
REM
REM
REM
REM ./C.cell (b20cbc046b6831c77cfcea5457e17084)
REM AIRSS Version 0.9.1 bugfix July 2018 build 013d7b7c2542+ Fri, 06 Jul 2018 19:26:36 +0100
REM compiler GCC version 9.2.1 20190827 (Red Hat 9.2.1-1)
REM options -cpp -mtune=generic -march=x86-64 -g -O0 -fpre-include=/usr/include/finclude/math-vector-fortran.h
REM seed -1355910914 1279875275 365565302 400544497 1134525064 -2009195546 -1775367986 963504803 -586298475 96514516 -1301442844 728111712 2036680321 1281148216 1422576787 -1247615440 -2051476677 -419055856 -2138695276 456564370 697805163 -114987018 -1900506575 1259114425 1892952351 -1615376910 1282223167 -1239013681 -457063651 -1689887484 781653926 2096911793 -1228480219
REM
CELL 1.54180   50.00000   50.00000   50.00000   90.00000   90.00000   90.00000
LATT -1
SFAC C  
C      1  0.5041020000000  0.5121000000000  0.4893720000000 1.0
C      1  0.4733670000000  0.4299700000000  0.5216130000000 1.0
C      1  0.5054040000000  0.5643820000000  0.6425310000000 1.0
C      1  0.5372310000000  0.5209170000000  0.5265330000000 1.0
C      1  0.4671370000000  0.4809950000000  0.4699150000000 1.0
C      1  0.5405540000000  0.4569520000000  0.4608630000000 1.0
C      1  0.5903860000000  0.5749190000000  0.5432870000000 1.0
C      1  0.4552010000000  0.4716340000000  0.6059880000000 1.0
C      1  0.4089210000000  0.4919690000000  0.5246910000000 1.0
C      1  0.5910700000000  0.4798640000000  0.4854660000000 1.0
C      1  0.5054290000000  0.4477220000000  0.4301050000000 1.0
C      1  0.5699490000000  0.4662010000000  0.4982830000000 1.0
C      1  0.4787220000000  0.4834290000000  0.5169670000000 1.0
C      1  0.5352110000000  0.5416230000000  0.5471840000000 1.0
C      1  0.5057180000000  0.4694700000000  0.4141890000000 1.0
C      1  0.4911260000000  0.4043210000000  0.4826160000000 1.0
C      1  0.4978440000000  0.5680720000000  0.5060340000000 1.0
C      1  0.4758320000000  0.4974790000000  0.5413250000000 1.0
C      1  0.4594030000000  0.4980310000000  0.6126430000000 1.0
C      1  0.5332790000000  0.5523950000000  0.4628900000000 1.0
C      1  0.5485740000000  0.5082780000000  0.4503430000000 1.0
C      1  0.5051980000000  0.5542500000000  0.4586670000000 1.0
C      1  0.5131120000000  0.4219000000000  0.4767360000000 1.0
C      1  0.5467510000000  0.4959340000000  0.5370230000000 1.0
C      1  0.5642480000000  0.5801330000000  0.5430340000000 1.0
C      1  0.5908750000000  0.5662080000000  0.4452080000000 1.0
C      1  0.6323430000000  0.5483500000000  0.4319950000000 1.0
C      1  0.4985060000000  0.4822030000000  0.5925060000000 1.0
C      1  0.4849400000000  0.5080250000000  0.6024050000000 1.0
C      1  0.5053470000000  0.4963510000000  0.4120450000000 1.0
C      1  0.4635270000000  0.4557800000000  0.4826220000000 1.0
C      1  0.3845890000000  0.5114630000000  0.4185100000000 1.0
C      1  0.4422930000000  0.5324630000000  0.4861650000000 1.0
C      1  0.5382310000000  0.4258560000000  0.5715370000000 1.0
C      1  0.4099800000000  0.4616930000000  0.4874210000000 1.0
C      1  0.4867110000000  0.5617920000000  0.4799410000000 1.0
C      1  0.6147420000000  0.5691470000000  0.4324170000000 1.0
C      1  0.4894700000000  0.5170920000000  0.4227110000000 1.0
C      1  0.4878030000000  0.5367140000000  0.5995140000000 1.0
C      1  0.4968050000000  0.5412320000000  0.4349720000000 1.0
C      1  0.4773350000000  0.4609580000000  0.5909970000000 1.0
C      1  0.4128940000000  0.6127830000000  0.4414290000000 1.0
C      1  0.5396790000000  0.4881620000000  0.5634550000000 1.0
C      1  0.6262500000000  0.5253830000000  0.4453110000000 1.0
C      1  0.5213640000000  0.5800550000000  0.5177910000000 1.0
C      1  0.5820030000000  0.5417860000000  0.4569810000000 1.0
C      1  0.5400010000000  0.4148290000000  0.5473440000000 1.0
C      1  0.4212180000000  0.4372960000000  0.4826560000000 1.0
C      1  0.5176690000000  0.4403350000000  0.4542090000000 1.0
C      1  0.4756070000000  0.5494120000000  0.5473150000000 1.0
C      1  0.4250840000000  0.5094760000000  0.4810030000000 1.0
C      1  0.4577170000000  0.5559360000000  0.4781260000000 1.0
C      1  0.4821690000000  0.5515760000000  0.5753360000000 1.0
C      1  0.4335260000000  0.4203060000000  0.4019540000000 1.0
C      1  0.4385390000000  0.4422570000000  0.4150880000000 1.0
C      1  0.4040560000000  0.5070840000000  0.4359310000000 1.0
C      1  0.4932510000000  0.5456940000000  0.5240670000000 1.0
C      1  0.4254540000000  0.4958400000000  0.5452680000000 1.0
C      1  0.5546600000000  0.5346960000000  0.4575940000000 1.0
C      1  0.4504090000000  0.4880830000000  0.4452850000000 1.0
C      1  0.5613970000000  0.4778120000000  0.5221010000000 1.0
C      1  0.4443860000000  0.4637110000000  0.4294700000000 1.0
C      1  0.4749930000000  0.4273070000000  0.5492720000000 1.0
C      1  0.4679900000000  0.4137700000000  0.4971350000000 1.0
C      1  0.4932160000000  0.3529330000000  0.4662220000000 1.0
C      1  0.6037270000000  0.5050010000000  0.4842910000000 1.0
C      1  0.4129020000000  0.4885710000000  0.4972420000000 1.0
C      1  0.5354260000000  0.4266550000000  0.4956200000000 1.0
C      1  0.5384530000000  0.4151900000000  0.5207850000000 1.0
C      1  0.5245300000000  0.4743100000000  0.5829500000000 1.0
C      1  0.5123010000000  0.5251820000000  0.5126280000000 1.0
C      1  0.6179920000000  0.5354390000000  0.5252960000000 1.0
C      1  0.4967360000000  0.5511700000000  0.6218080000000 1.0
C      1  0.4819970000000  0.4955700000000  0.4902000000000 1.0
C      1  0.5324600000000  0.4473750000000  0.5862990000000 1.0
C      1  0.4488280000000  0.4309650000000  0.4818470000000 1.0
C      1  0.4636160000000  0.5084660000000  0.4284270000000 1.0
C      1  0.5164920000000  0.5282180000000  0.5643420000000 1.0
C      1  0.4762990000000  0.4395580000000  0.5730510000000 1.0
C      1  0.4920840000000  0.3777180000000  0.4741920000000 1.0
C      1  0.5392320000000  0.5686810000000  0.5377410000000 1.0
C      1  0.6152130000000  0.5158560000000  0.5075290000000 1.0
C      1  0.4730500000000  0.4565650000000  0.5108170000000 1.0
C      1  0.4249890000000  0.5019950000000  0.4535220000000 1.0
C      1  0.3655120000000  0.5157550000000  0.4012680000000 1.0
C      1  0.5461510000000  0.4818980000000  0.4500820000000 1.0
C      1  0.4424170000000  0.5765650000000  0.4664170000000 1.0
C      1  0.6030270000000  0.5220310000000  0.4616040000000 1.0
C      1  0.6097720000000  0.5576440000000  0.5374170000000 1.0
C      1  0.4498790000000  0.5089680000000  0.5460590000000 1.0
C      1  0.4277250000000  0.5947940000000  0.4540370000000 1.0
C      1  0.5520800000000  0.4483350000000  0.4856570000000 1.0
C      1  0.4502910000000  0.5371050000000  0.5442170000000 1.0
C      1  0.3983040000000  0.6304730000000  0.4290250000000 1.0
C      1  0.4977180000000  0.5091580000000  0.5560210000000 1.0
END
