TITL C-3623287-7182-267 -0.0486462678584591 125000 -447.923544887573 0 0 73 (C1) n - 1
REM
REM in /home/nfs/bkarasulu/CARBON/AIRSS/Generating-Clusters/LCBOP/Higher-Symm/SD-CG/FIRE-CG
REM
REM
REM
REM
REM
REM ./C.cell (b20cbc046b6831c77cfcea5457e17084)
REM AIRSS Version 0.9.1 bugfix July 2018 build 013d7b7c2542+ Fri, 06 Jul 2018 19:26:36 +0100
REM compiler GCC version 9.2.1 20190827 (Red Hat 9.2.1-1)
REM options -cpp -mtune=generic -march=x86-64 -g -O0 -fpre-include=/usr/include/finclude/math-vector-fortran.h
REM seed -2090124211 770848372 1672730449 1365046483 -59580071 -1858221502 1128634083 2080583605 -903252742 1470907330 -1923101646 -1453176114 833211896 -1115024928 95354150 1177425220 -488778975 2076070775 139133713 -1881416177 -1943618872 962171200 -929745737 708892777 523995647 701871189 1909006187 -1668684634 -990673958 927223897 -1940703124 -222956631 -769552400
REM
CELL 1.54180   50.00000   50.00000   50.00000   90.00000   90.00000   90.00000
LATT -1
SFAC C  
C      1  0.5049920000000  0.5381690000000  0.4760370000000 1.0
C      1  0.4971700000000  0.5261710000000  0.5321280000000 1.0
C      1  0.5216640000000  0.4538270000000  0.4887500000000 1.0
C      1  0.5297510000000  0.4588070000000  0.5404350000000 1.0
C      1  0.4818960000000  0.5246590000000  0.4851290000000 1.0
C      1  0.4776080000000  0.5196840000000  0.5133970000000 1.0
C      1  0.4617820000000  0.5144710000000  0.4672430000000 1.0
C      1  0.4535650000000  0.5055020000000  0.5202880000000 1.0
C      1  0.5645350000000  0.5163260000000  0.5814410000000 1.0
C      1  0.5361140000000  0.4935870000000  0.4280370000000 1.0
C      1  0.5285000000000  0.4039810000000  0.5051090000000 1.0
C      1  0.5335760000000  0.4068330000000  0.5331000000000 1.0
C      1  0.5547710000000  0.3903260000000  0.5447800000000 1.0
C      1  0.5445040000000  0.3843060000000  0.4904730000000 1.0
C      1  0.5481240000000  0.4902170000000  0.4536690000000 1.0
C      1  0.5644400000000  0.5047420000000  0.5552810000000 1.0
C      1  0.3716020000000  0.5005760000000  0.4936680000000 1.0
C      1  0.3758180000000  0.5052310000000  0.4660310000000 1.0
C      1  0.5159150000000  0.6096340000000  0.4850340000000 1.0
C      1  0.5370860000000  0.5801470000000  0.5454260000000 1.0
C      1  0.5725130000000  0.4329680000000  0.5396630000000 1.0
C      1  0.5625540000000  0.4259610000000  0.4807950000000 1.0
C      1  0.5068340000000  0.5903720000000  0.4690070000000 1.0
C      1  0.5332450000000  0.5539950000000  0.5481660000000 1.0
C      1  0.6109920000000  0.4946290000000  0.5660630000000 1.0
C      1  0.5863940000000  0.4742220000000  0.4280110000000 1.0
C      1  0.3761840000000  0.5232770000000  0.5115890000000 1.0
C      1  0.3842800000000  0.5322250000000  0.4584800000000 1.0
C      1  0.5520680000000  0.5432390000000  0.4863910000000 1.0
C      1  0.5308450000000  0.5269720000000  0.4802740000000 1.0
C      1  0.4084280000000  0.5170110000000  0.4202020000000 1.0
C      1  0.3889200000000  0.4954140000000  0.5482150000000 1.0
C      1  0.3827570000000  0.4855690000000  0.4464800000000 1.0
C      1  0.3735140000000  0.4753660000000  0.5070020000000 1.0
C      1  0.4026550000000  0.5443970000000  0.4764760000000 1.0
C      1  0.3983640000000  0.5396760000000  0.5045910000000 1.0
C      1  0.5652300000000  0.3973340000000  0.4772910000000 1.0
C      1  0.5778990000000  0.4055600000000  0.5474210000000 1.0
C      1  0.6095050000000  0.5066160000000  0.5904260000000 1.0
C      1  0.5738340000000  0.4786990000000  0.4042870000000 1.0
C      1  0.4297680000000  0.5510590000000  0.4684310000000 1.0
C      1  0.4216180000000  0.5420660000000  0.5218550000000 1.0
C      1  0.5804580000000  0.4451140000000  0.4910490000000 1.0
C      1  0.5846500000000  0.4492010000000  0.5201380000000 1.0
C      1  0.5278360000000  0.4801300000000  0.4973630000000 1.0
C      1  0.5316600000000  0.4828400000000  0.5256490000000 1.0
C      1  0.5927080000000  0.4769440000000  0.5242140000000 1.0
C      1  0.5866680000000  0.4701450000000  0.4774310000000 1.0
C      1  0.5894590000000  0.4919620000000  0.5475330000000 1.0
C      1  0.5746820000000  0.4784020000000  0.4536030000000 1.0
C      1  0.4445740000000  0.5318990000000  0.4526310000000 1.0
C      1  0.4321220000000  0.5181280000000  0.5341800000000 1.0
C      1  0.5858510000000  0.5175470000000  0.5982790000000 1.0
C      1  0.5483660000000  0.4883480000000  0.4043080000000 1.0
C      1  0.3727200000000  0.5174140000000  0.5392620000000 1.0
C      1  0.3892680000000  0.5357310000000  0.4306420000000 1.0
C      1  0.3825420000000  0.4721810000000  0.5327060000000 1.0
C      1  0.3989910000000  0.4903670000000  0.4248960000000 1.0
C      1  0.5352110000000  0.4990620000000  0.4774470000000 1.0
C      1  0.5406850000000  0.5059050000000  0.5396170000000 1.0
C      1  0.4349740000000  0.5240720000000  0.4270990000000 1.0
C      1  0.4159550000000  0.5029960000000  0.5519280000000 1.0
C      1  0.4389630000000  0.5632820000000  0.5139940000000 1.0
C      1  0.4429700000000  0.5677920000000  0.4873620000000 1.0
C      1  0.4515260000000  0.4890830000000  0.4753040000000 1.0
C      1  0.4473210000000  0.4846230000000  0.5018520000000 1.0
C      1  0.5267640000000  0.6143200000000  0.5089400000000 1.0
C      1  0.5347990000000  0.6027540000000  0.5315650000000 1.0
C      1  0.5236960000000  0.5287700000000  0.5407760000000 1.0
C      1  0.5029300000000  0.5642230000000  0.4659090000000 1.0
C      1  0.5341050000000  0.4288930000000  0.4894680000000 1.0
C      1  0.5427180000000  0.4342140000000  0.5407230000000 1.0
C      1  0.5966460000000  0.4877990000000  0.4978470000000 1.0
END
