TITL C-3623284-6838-532 180651.575273597 125000 -773.7601894886 0 0 130 (C1) n - 1
REM
REM in /home/nfs/bkarasulu/CARBON/AIRSS/Generating-Clusters/LCBOP/Higher-Symm/SD-CG/FIRE-CG
REM
REM
REM
REM
REM
REM ./C.cell (b20cbc046b6831c77cfcea5457e17084)
REM AIRSS Version 0.9.1 bugfix July 2018 build 013d7b7c2542+ Fri, 06 Jul 2018 19:26:36 +0100
REM compiler GCC version 9.2.1 20190827 (Red Hat 9.2.1-1)
REM options -cpp -mtune=generic -march=x86-64 -g -O0 -fpre-include=/usr/include/finclude/math-vector-fortran.h
REM seed -462106684 -759808228 -1890195837 1626328139 867502153 1949350293 411321026 -936574223 275162751 508231926 1972610652 1926380455 -1814323235 -1164857822 1298415936 -86559689 -358554946 2067828256 1613486018 -1543525701 -419768068 1443804079 1522870270 1266743398 2042969207 286111709 650621017 1878298285 -704596993 1088312936 -1712802078 -555329173 -176264090
REM
CELL 1.54180   50.00000   50.00000   50.00000   90.00000   90.00000   90.00000
LATT -1
SFAC C  
C      1  0.4230670000000  0.4295810000000  0.5438940000000 1.0
C      1  0.5739590000000  0.4307120000000  0.4565460000000 1.0
C      1  0.5556200000000  0.5105020000000  0.5388090000000 1.0
C      1  0.4456070000000  0.5058580000000  0.4742710000000 1.0
C      1  0.5442470000000  0.4775850000000  0.4689260000000 1.0
C      1  0.4560320000000  0.4753580000000  0.5321910000000 1.0
C      1  0.4483230000000  0.4268200000000  0.4693420000000 1.0
C      1  0.5499870000000  0.4300370000000  0.5294920000000 1.0
C      1  0.5160240000000  0.4765830000000  0.5461250000000 1.0
C      1  0.4879420000000  0.4764600000000  0.4488590000000 1.0
C      1  0.4838240000000  0.4663890000000  0.5866550000000 1.0
C      1  0.5145080000000  0.4671730000000  0.4120270000000 1.0
C      1  0.5859520000000  0.4559170000000  0.5021660000000 1.0
C      1  0.4137090000000  0.4544660000000  0.4981640000000 1.0
C      1  0.4509480000000  0.5822540000000  0.4420950000000 1.0
C      1  0.5533820000000  0.5790900000000  0.5566210000000 1.0
C      1  0.4451570000000  0.4813110000000  0.5596120000000 1.0
C      1  0.5522590000000  0.4834090000000  0.4403300000000 1.0
C      1  0.4518840000000  0.5000590000000  0.4247530000000 1.0
C      1  0.5498940000000  0.4977210000000  0.5842480000000 1.0
C      1  0.4880000000000  0.5159310000000  0.5631370000000 1.0
C      1  0.5112620000000  0.5180850000000  0.4411770000000 1.0
C      1  0.4221450000000  0.5344870000000  0.5224610000000 1.0
C      1  0.5740720000000  0.5351900000000  0.4772460000000 1.0
C      1  0.4856040000000  0.5521230000000  0.4183050000000 1.0
C      1  0.5123550000000  0.5517030000000  0.5801740000000 1.0
C      1  0.5949770000000  0.5565830000000  0.5364910000000 1.0
C      1  0.4143320000000  0.5498780000000  0.4488930000000 1.0
C      1  0.5603390000000  0.4433740000000  0.5053380000000 1.0
C      1  0.4389210000000  0.4415320000000  0.4936290000000 1.0
C      1  0.4064180000000  0.4871160000000  0.5328730000000 1.0
C      1  0.5912690000000  0.4882040000000  0.4657980000000 1.0
C      1  0.4956900000000  0.3935240000000  0.4584690000000 1.0
C      1  0.5010930000000  0.3935670000000  0.5424580000000 1.0
C      1  0.5223310000000  0.5003200000000  0.5934500000000 1.0
C      1  0.4770190000000  0.5019030000000  0.4107490000000 1.0
C      1  0.5601040000000  0.4437200000000  0.5530890000000 1.0
C      1  0.4384080000000  0.4430520000000  0.4462400000000 1.0
C      1  0.4630090000000  0.5014790000000  0.5219420000000 1.0
C      1  0.5392150000000  0.5031460000000  0.4826930000000 1.0
C      1  0.5258310000000  0.4746300000000  0.5197450000000 1.0
C      1  0.4798230000000  0.4577590000000  0.4652300000000 1.0
C      1  0.4712440000000  0.4310630000000  0.5498180000000 1.0
C      1  0.5251330000000  0.4325670000000  0.4501550000000 1.0
C      1  0.5123700000000  0.5453170000000  0.5177840000000 1.0
C      1  0.4880960000000  0.5420710000000  0.4824080000000 1.0
C      1  0.5256460000000  0.4126910000000  0.5255990000000 1.0
C      1  0.4735140000000  0.4091010000000  0.4739940000000 1.0
C      1  0.5538140000000  0.5539000000000  0.4908150000000 1.0
C      1  0.4425810000000  0.5502990000000  0.5033270000000 1.0
C      1  0.4394660000000  0.5325440000000  0.4789840000000 1.0
C      1  0.5484760000000  0.5348100000000  0.5513760000000 1.0
C      1  0.5098600000000  0.5678040000000  0.4191170000000 1.0
C      1  0.4878280000000  0.5667210000000  0.5785910000000 1.0
C      1  0.4256460000000  0.5286840000000  0.5516030000000 1.0
C      1  0.5723820000000  0.5301050000000  0.4473080000000 1.0
C      1  0.6171380000000  0.5695260000000  0.5466130000000 1.0
C      1  0.4324040000000  0.5445210000000  0.4253400000000 1.0
C      1  0.4736980000000  0.6305490000000  0.4361300000000 1.0
C      1  0.5440310000000  0.6289140000000  0.5738120000000 1.0
C      1  0.5759910000000  0.5004740000000  0.4434100000000 1.0
C      1  0.4221570000000  0.4989120000000  0.5551750000000 1.0
C      1  0.5892410000000  0.4586880000000  0.4728740000000 1.0
C      1  0.4094440000000  0.4577050000000  0.5266100000000 1.0
C      1  0.5245510000000  0.5510140000000  0.4941550000000 1.0
C      1  0.4754810000000  0.5510390000000  0.5044090000000 1.0
C      1  0.4522220000000  0.4099700000000  0.5526960000000 1.0
C      1  0.5442080000000  0.4112540000000  0.4492820000000 1.0
C      1  0.4853800000000  0.4148750000000  0.5006520000000 1.0
C      1  0.5135870000000  0.4177680000000  0.4995380000000 1.0
C      1  0.5321640000000  0.5223040000000  0.4608450000000 1.0
C      1  0.4670360000000  0.5203780000000  0.5436790000000 1.0
C      1  0.4587470000000  0.5971170000000  0.4964850000000 1.0
C      1  0.5380590000000  0.5975930000000  0.5050410000000 1.0
C      1  0.4680490000000  0.4546090000000  0.4037880000000 1.0
C      1  0.5293050000000  0.4523710000000  0.5951940000000 1.0
C      1  0.4383090000000  0.5777190000000  0.4896430000000 1.0
C      1  0.5587700000000  0.5774250000000  0.5077470000000 1.0
C      1  0.4744180000000  0.4309270000000  0.5218630000000 1.0
C      1  0.5227570000000  0.4356700000000  0.4787000000000 1.0
C      1  0.5952870000000  0.5042790000000  0.5146330000000 1.0
C      1  0.4007080000000  0.5031560000000  0.4832390000000 1.0
C      1  0.4580890000000  0.5596510000000  0.4249070000000 1.0
C      1  0.5371090000000  0.5568170000000  0.5653850000000 1.0
C      1  0.4061490000000  0.5096860000000  0.5117640000000 1.0
C      1  0.5896410000000  0.5099950000000  0.4868780000000 1.0
C      1  0.4421190000000  0.5089450000000  0.6272900000000 1.0
C      1  0.5546090000000  0.5116790000000  0.3727540000000 1.0
C      1  0.5430410000000  0.4534850000000  0.4848760000000 1.0
C      1  0.4607770000000  0.4541410000000  0.5107370000000 1.0
C      1  0.5068180000000  0.4666410000000  0.5022320000000 1.0
C      1  0.4819170000000  0.4622600000000  0.4922490000000 1.0
C      1  0.4936140000000  0.5243770000000  0.4187190000000 1.0
C      1  0.5057730000000  0.5233840000000  0.5852430000000 1.0
C      1  0.5630290000000  0.4918500000000  0.5592850000000 1.0
C      1  0.4404040000000  0.4924980000000  0.4494980000000 1.0
C      1  0.4878060000000  0.5142390000000  0.4802550000000 1.0
C      1  0.5138700000000  0.5188790000000  0.5243770000000 1.0
C      1  0.5510410000000  0.6047180000000  0.5671190000000 1.0
C      1  0.4611190000000  0.6079170000000  0.4391050000000 1.0
C      1  0.5485170000000  0.4963680000000  0.3929440000000 1.0
C      1  0.4487640000000  0.4935970000000  0.6073040000000 1.0
C      1  0.4611390000000  0.5622420000000  0.5750960000000 1.0
C      1  0.5364850000000  0.5631540000000  0.4231760000000 1.0
C      1  0.5100130000000  0.4737990000000  0.5963040000000 1.0
C      1  0.4878990000000  0.4755860000000  0.4036730000000 1.0
C      1  0.5118120000000  0.6043160000000  0.5026460000000 1.0
C      1  0.4847980000000  0.6040590000000  0.5000960000000 1.0
C      1  0.4724320000000  0.3875600000000  0.5489960000000 1.0
C      1  0.5242110000000  0.3889830000000  0.4531510000000 1.0
C      1  0.5377820000000  0.5031580000000  0.5140080000000 1.0
C      1  0.4664490000000  0.5021140000000  0.4940290000000 1.0
C      1  0.4833470000000  0.4428600000000  0.5713550000000 1.0
C      1  0.5155120000000  0.4430720000000  0.4265670000000 1.0
C      1  0.5905290000000  0.4755850000000  0.5231180000000 1.0
C      1  0.4072780000000  0.4736410000000  0.4768710000000 1.0
C      1  0.5384930000000  0.4824620000000  0.4150180000000 1.0
C      1  0.4590650000000  0.4805840000000  0.5848710000000 1.0
C      1  0.5064970000000  0.5027440000000  0.5468520000000 1.0
C      1  0.4942040000000  0.5017490000000  0.4565840000000 1.0
C      1  0.5584190000000  0.5490230000000  0.4308750000000 1.0
C      1  0.4391410000000  0.5479450000000  0.5679120000000 1.0
C      1  0.5981140000000  0.5285640000000  0.5300700000000 1.0
C      1  0.3998450000000  0.5269830000000  0.4631270000000 1.0
C      1  0.4297780000000  0.5741670000000  0.4615990000000 1.0
C      1  0.5707150000000  0.5726240000000  0.5335840000000 1.0
C      1  0.4506980000000  0.4422000000000  0.4205010000000 1.0
C      1  0.5471540000000  0.4412040000000  0.5782560000000 1.0
C      1  0.5754200000000  0.4687740000000  0.5481160000000 1.0
C      1  0.4248220000000  0.4687010000000  0.4534760000000 1.0
END
