TITL C-3623288-6813-461 11181.3015147157 125000 -1011.49973991946 0 0 165 (C1) n - 1
REM
REM in /home/nfs/bkarasulu/CARBON/AIRSS/Generating-Clusters/LCBOP/Higher-Symm/SD-CG/FIRE-CG
REM
REM
REM
REM
REM
REM ./C.cell (b20cbc046b6831c77cfcea5457e17084)
REM AIRSS Version 0.9.1 bugfix July 2018 build 013d7b7c2542+ Fri, 06 Jul 2018 19:26:36 +0100
REM compiler GCC version 9.2.1 20190827 (Red Hat 9.2.1-1)
REM options -cpp -mtune=generic -march=x86-64 -g -O0 -fpre-include=/usr/include/finclude/math-vector-fortran.h
REM seed -1309402511 -758421193 -2019021511 1865746223 -1059174290 -1410411152 208127853 -1770817803 -2075538429 842775204 791166733 1559850691 1573278108 -1528876350 -724450753 2045413420 1330764165 1313916662 42117339 -1920794890 -366336464 793680435 2072392461 -982759871 14326994 1338520776 -293538460 1981956448 1334426889 1315631192 1397414853 1673255650 -1344134421
REM
CELL 1.54180   50.00000   50.00000   50.00000   90.00000   90.00000   90.00000
LATT -1
SFAC C  
C      1  0.5181460000000  0.5443120000000  0.4113230000000 1.0
C      1  0.4468270000000  0.4947300000000  0.4005170000000 1.0
C      1  0.5316190000000  0.4580650000000  0.4011550000000 1.0
C      1  0.5400120000000  0.5886040000000  0.5588870000000 1.0
C      1  0.4096050000000  0.4984770000000  0.5549130000000 1.0
C      1  0.5487670000000  0.4222790000000  0.5647290000000 1.0
C      1  0.5501950000000  0.4212600000000  0.4263820000000 1.0
C      1  0.5382810000000  0.5558290000000  0.4513710000000 1.0
C      1  0.4130970000000  0.4961400000000  0.4369860000000 1.0
C      1  0.5772150000000  0.3906570000000  0.5407910000000 1.0
C      1  0.5446620000000  0.6379910000000  0.5492410000000 1.0
C      1  0.3927490000000  0.4606540000000  0.5290990000000 1.0
C      1  0.5632960000000  0.5467240000000  0.5726730000000 1.0
C      1  0.4325290000000  0.5401520000000  0.5670770000000 1.0
C      1  0.4995430000000  0.4286410000000  0.5843410000000 1.0
C      1  0.5661420000000  0.5594240000000  0.4419030000000 1.0
C      1  0.4129010000000  0.5253440000000  0.4415280000000 1.0
C      1  0.5248410000000  0.4075400000000  0.4266500000000 1.0
C      1  0.5061960000000  0.4425350000000  0.3962710000000 1.0
C      1  0.5444140000000  0.5329970000000  0.4060940000000 1.0
C      1  0.4462200000000  0.5247850000000  0.4040160000000 1.0
C      1  0.5516760000000  0.4629890000000  0.5212480000000 1.0
C      1  0.5064880000000  0.5549550000000  0.5389980000000 1.0
C      1  0.4515380000000  0.4652290000000  0.5423690000000 1.0
C      1  0.5095010000000  0.4149950000000  0.4039430000000 1.0
C      1  0.5662140000000  0.5503280000000  0.4147650000000 1.0
C      1  0.4221400000000  0.5350600000000  0.4161120000000 1.0
C      1  0.5566260000000  0.4501180000000  0.5728380000000 1.0
C      1  0.5113740000000  0.5778880000000  0.5584940000000 1.0
C      1  0.4223100000000  0.4834150000000  0.5752310000000 1.0
C      1  0.3981630000000  0.5302360000000  0.4891520000000 1.0
C      1  0.5303370000000  0.3956160000000  0.4735760000000 1.0
C      1  0.5754490000000  0.5743190000000  0.4883220000000 1.0
C      1  0.4411930000000  0.5824890000000  0.5372180000000 1.0
C      1  0.4587170000000  0.4131520000000  0.5480010000000 1.0
C      1  0.5955760000000  0.5132030000000  0.5439150000000 1.0
C      1  0.4838560000000  0.5686620000000  0.4806350000000 1.0
C      1  0.4564020000000  0.4481330000000  0.4643210000000 1.0
C      1  0.5607310000000  0.4808680000000  0.4668240000000 1.0
C      1  0.4113680000000  0.5268180000000  0.5158460000000 1.0
C      1  0.5242410000000  0.4072360000000  0.4997420000000 1.0
C      1  0.5681480000000  0.5772300000000  0.5187710000000 1.0
C      1  0.4045690000000  0.4610600000000  0.4818840000000 1.0
C      1  0.5978670000000  0.4290490000000  0.4811590000000 1.0
C      1  0.5144720000000  0.6244600000000  0.4766200000000 1.0
C      1  0.4811580000000  0.5236590000000  0.6246630000000 1.0
C      1  0.4939510000000  0.4901480000000  0.6290880000000 1.0
C      1  0.5174960000000  0.5161460000000  0.6255520000000 1.0
C      1  0.5840200000000  0.4671810000000  0.4550090000000 1.0
C      1  0.4863780000000  0.5897150000000  0.4608520000000 1.0
C      1  0.4318560000000  0.4401980000000  0.4514190000000 1.0
C      1  0.5619730000000  0.5687870000000  0.5530180000000 1.0
C      1  0.4146220000000  0.5269450000000  0.5475510000000 1.0
C      1  0.5229030000000  0.4138950000000  0.5754040000000 1.0
C      1  0.4883670000000  0.4395010000000  0.5208220000000 1.0
C      1  0.5483300000000  0.5174840000000  0.5126370000000 1.0
C      1  0.4674790000000  0.5248270000000  0.5304940000000 1.0
C      1  0.5122270000000  0.3981720000000  0.4507290000000 1.0
C      1  0.5826970000000  0.5537870000000  0.4666730000000 1.0
C      1  0.4121970000000  0.5419060000000  0.4662080000000 1.0
C      1  0.5789760000000  0.5219330000000  0.5667560000000 1.0
C      1  0.4427930000000  0.5665370000000  0.5613950000000 1.0
C      1  0.4705560000000  0.4260120000000  0.5738660000000 1.0
C      1  0.4542430000000  0.4749190000000  0.4755090000000 1.0
C      1  0.5461260000000  0.4584620000000  0.4772060000000 1.0
C      1  0.5058960000000  0.5729930000000  0.4971690000000 1.0
C      1  0.5305080000000  0.5305120000000  0.4939590000000 1.0
C      1  0.4541490000000  0.5095810000000  0.5081350000000 1.0
C      1  0.5021990000000  0.4256550000000  0.5002950000000 1.0
C      1  0.5550960000000  0.4438590000000  0.5005430000000 1.0
C      1  0.5241660000000  0.5898360000000  0.5058560000000 1.0
C      1  0.4264000000000  0.4793920000000  0.4868590000000 1.0
C      1  0.4983040000000  0.4956210000000  0.4990160000000 1.0
C      1  0.5190410000000  0.4609020000000  0.4725380000000 1.0
C      1  0.5102450000000  0.4874320000000  0.4732690000000 1.0
C      1  0.5400680000000  0.5317630000000  0.4679930000000 1.0
C      1  0.4581870000000  0.5272180000000  0.4818940000000 1.0
C      1  0.5015290000000  0.4403030000000  0.4762950000000 1.0
C      1  0.4917240000000  0.5788560000000  0.4352570000000 1.0
C      1  0.4346950000000  0.4500070000000  0.4239720000000 1.0
C      1  0.5759920000000  0.4662420000000  0.4264040000000 1.0
C      1  0.5109350000000  0.5027630000000  0.4500180000000 1.0
C      1  0.4676880000000  0.5169610000000  0.4575680000000 1.0
C      1  0.4795340000000  0.4785030000000  0.4316660000000 1.0
C      1  0.4666280000000  0.4775930000000  0.3877020000000 1.0
C      1  0.5274820000000  0.4852660000000  0.4081280000000 1.0
C      1  0.4931030000000  0.5319170000000  0.4171440000000 1.0
C      1  0.5578740000000  0.4102660000000  0.5393800000000 1.0
C      1  0.5442630000000  0.6118590000000  0.5426230000000 1.0
C      1  0.4081530000000  0.4830060000000  0.5305390000000 1.0
C      1  0.4704320000000  0.4827510000000  0.5554320000000 1.0
C      1  0.5317440000000  0.4505150000000  0.5372410000000 1.0
C      1  0.5213800000000  0.5336420000000  0.5500920000000 1.0
C      1  0.5360010000000  0.4649250000000  0.5915250000000 1.0
C      1  0.5120420000000  0.5606780000000  0.5859040000000 1.0
C      1  0.4421500000000  0.4950250000000  0.5937060000000 1.0
C      1  0.5494530000000  0.5044780000000  0.4076530000000 1.0
C      1  0.4683810000000  0.5428460000000  0.4087110000000 1.0
C      1  0.4773900000000  0.4514290000000  0.3950800000000 1.0
C      1  0.4524550000000  0.4467150000000  0.5848590000000 1.0
C      1  0.5690650000000  0.4964730000000  0.5768850000000 1.0
C      1  0.4671700000000  0.5757780000000  0.5742660000000 1.0
C      1  0.3818780000000  0.4792820000000  0.4796610000000 1.0
C      1  0.5827210000000  0.4074950000000  0.4740690000000 1.0
C      1  0.5405500000000  0.6163280000000  0.4719720000000 1.0
C      1  0.5165160000000  0.4885860000000  0.5215800000000 1.0
C      1  0.5029170000000  0.5261990000000  0.4998810000000 1.0
C      1  0.4705490000000  0.4833780000000  0.5004830000000 1.0
C      1  0.4652460000000  0.4104620000000  0.4240200000000 1.0
C      1  0.5938430000000  0.5124150000000  0.4341400000000 1.0
C      1  0.4430730000000  0.5741380000000  0.4394910000000 1.0
C      1  0.5458040000000  0.4931790000000  0.5935250000000 1.0
C      1  0.4827130000000  0.5585680000000  0.5916570000000 1.0
C      1  0.4603900000000  0.4708420000000  0.6009320000000 1.0
C      1  0.5081850000000  0.4543240000000  0.5979760000000 1.0
C      1  0.5377320000000  0.5435990000000  0.5901910000000 1.0
C      1  0.4462540000000  0.5242450000000  0.5896740000000 1.0
C      1  0.4591840000000  0.5548790000000  0.4818240000000 1.0
C      1  0.4800290000000  0.4346290000000  0.4606870000000 1.0
C      1  0.5595470000000  0.5100550000000  0.4654590000000 1.0
C      1  0.4691600000000  0.5362740000000  0.6033560000000 1.0
C      1  0.4875620000000  0.4707620000000  0.6107040000000 1.0
C      1  0.5346260000000  0.5176950000000  0.6040920000000 1.0
C      1  0.4360240000000  0.5693300000000  0.4690610000000 1.0
C      1  0.4773180000000  0.4061980000000  0.4521400000000 1.0
C      1  0.5882400000000  0.5219700000000  0.4637520000000 1.0
C      1  0.5553080000000  0.4473530000000  0.4157410000000 1.0
C      1  0.5179280000000  0.5653040000000  0.4324660000000 1.0
C      1  0.4286600000000  0.4791160000000  0.4189480000000 1.0
C      1  0.5446370000000  0.4893990000000  0.5148190000000 1.0
C      1  0.4889910000000  0.5409900000000  0.5205700000000 1.0
C      1  0.4662620000000  0.4585770000000  0.5182580000000 1.0
C      1  0.5759230000000  0.4717440000000  0.5597560000000 1.0
C      1  0.4837190000000  0.5921950000000  0.5547150000000 1.0
C      1  0.4343530000000  0.4585020000000  0.5648400000000 1.0
C      1  0.4659130000000  0.5978000000000  0.5291930000000 1.0
C      1  0.4456420000000  0.4113130000000  0.5225890000000 1.0
C      1  0.5925490000000  0.4840330000000  0.5340160000000 1.0
C      1  0.5046820000000  0.4468440000000  0.5424890000000 1.0
C      1  0.5457480000000  0.5292260000000  0.5374260000000 1.0
C      1  0.4753550000000  0.5110710000000  0.5539730000000 1.0
C      1  0.5754930000000  0.4949510000000  0.4180340000000 1.0
C      1  0.4663580000000  0.5685540000000  0.4231670000000 1.0
C      1  0.4575210000000  0.4354770000000  0.4106790000000 1.0
C      1  0.5478530000000  0.5989740000000  0.5174170000000 1.0
C      1  0.4253680000000  0.4988430000000  0.5102420000000 1.0
C      1  0.5479430000000  0.4177930000000  0.5127270000000 1.0
C      1  0.4393540000000  0.5966120000000  0.4850650000000 1.0
C      1  0.4559430000000  0.3974480000000  0.4739540000000 1.0
C      1  0.6023980000000  0.5066140000000  0.4867340000000 1.0
C      1  0.5130400000000  0.4890560000000  0.5496130000000 1.0
C      1  0.5044010000000  0.5137600000000  0.5592760000000 1.0
C      1  0.4952100000000  0.4687040000000  0.5574230000000 1.0
C      1  0.4157690000000  0.4342600000000  0.4753590000000 1.0
C      1  0.5983060000000  0.4577480000000  0.4797010000000 1.0
C      1  0.4875880000000  0.6135630000000  0.4785880000000 1.0
C      1  0.5591320000000  0.3946090000000  0.4694680000000 1.0
C      1  0.5620150000000  0.5992180000000  0.4751310000000 1.0
C      1  0.3810810000000  0.5068680000000  0.4827190000000 1.0
C      1  0.5066560000000  0.4867230000000  0.4267770000000 1.0
C      1  0.4921290000000  0.5236310000000  0.4450280000000 1.0
C      1  0.4624460000000  0.4902740000000  0.4518280000000 1.0
C      1  0.5997050000000  0.4803140000000  0.5020400000000 1.0
C      1  0.4646780000000  0.6073800000000  0.4996170000000 1.0
C      1  0.4377960000000  0.4119030000000  0.4929340000000 1.0
END
