TITL C-3623289-7120-1020 762.640385109305 125000 -1109.07634454835 0 0 180 (C1) n - 1
REM
REM in /home/nfs/bkarasulu/CARBON/AIRSS/Generating-Clusters/LCBOP/Higher-Symm/SD-CG/FIRE-CG
REM
REM
REM
REM
REM
REM ./C.cell (b20cbc046b6831c77cfcea5457e17084)
REM AIRSS Version 0.9.1 bugfix July 2018 build 013d7b7c2542+ Fri, 06 Jul 2018 19:26:36 +0100
REM compiler GCC version 9.2.1 20190827 (Red Hat 9.2.1-1)
REM options -cpp -mtune=generic -march=x86-64 -g -O0 -fpre-include=/usr/include/finclude/math-vector-fortran.h
REM seed -477878083 74511411 977314069 191524465 -612067313 1647993666 2132974290 1226458912 1696407685 1525387596 1567298949 814663995 659568767 823851322 -1117545126 -1054992886 -1930264222 1110239416 2139477251 584025431 240566271 160071026 -1226364371 1921008592 1684558639 1382702433 -968346247 379342701 -1697932019 -243686889 -23650567 -1372564235 -200605336
REM
CELL 1.54180   50.00000   50.00000   50.00000   90.00000   90.00000   90.00000
LATT -1
SFAC C  
C      1  0.5897630000000  0.5710470000000  0.4600480000000 1.0
C      1  0.4886280000000  0.6278510000000  0.4591680000000 1.0
C      1  0.5520280000000  0.5154460000000  0.5269290000000 1.0
C      1  0.4797080000000  0.5093490000000  0.4835640000000 1.0
C      1  0.3930160000000  0.4915830000000  0.5135430000000 1.0
C      1  0.5119740000000  0.4258930000000  0.5507800000000 1.0
C      1  0.6564390000000  0.5678610000000  0.4920050000000 1.0
C      1  0.5499000000000  0.4129280000000  0.4557330000000 1.0
C      1  0.5286980000000  0.4215050000000  0.5274840000000 1.0
C      1  0.4755050000000  0.4561100000000  0.4402170000000 1.0
C      1  0.5645860000000  0.5078600000000  0.4564140000000 1.0
C      1  0.5804000000000  0.5965980000000  0.4704790000000 1.0
C      1  0.5146540000000  0.5033240000000  0.4023430000000 1.0
C      1  0.4216750000000  0.5290410000000  0.5039440000000 1.0
C      1  0.4917880000000  0.4624430000000  0.5813890000000 1.0
C      1  0.5416340000000  0.5502300000000  0.4044710000000 1.0
C      1  0.6013760000000  0.4589230000000  0.5204310000000 1.0
C      1  0.4640330000000  0.5706650000000  0.4522650000000 1.0
C      1  0.6314410000000  0.5620610000000  0.4854480000000 1.0
C      1  0.4397280000000  0.5157470000000  0.6000280000000 1.0
C      1  0.5128400000000  0.5525140000000  0.3986080000000 1.0
C      1  0.5022000000000  0.4961460000000  0.4740850000000 1.0
C      1  0.5240600000000  0.6036180000000  0.4354260000000 1.0
C      1  0.6053110000000  0.5557500000000  0.4786180000000 1.0
C      1  0.4683330000000  0.5574200000000  0.5489860000000 1.0
C      1  0.4259440000000  0.5454850000000  0.4789350000000 1.0
C      1  0.4598060000000  0.4159660000000  0.5048870000000 1.0
C      1  0.4074960000000  0.4986990000000  0.5385620000000 1.0
C      1  0.4723060000000  0.4428600000000  0.4991950000000 1.0
C      1  0.5459170000000  0.5170380000000  0.4990110000000 1.0
C      1  0.5959160000000  0.4609800000000  0.4496270000000 1.0
C      1  0.5517590000000  0.5771090000000  0.5384840000000 1.0
C      1  0.5007880000000  0.3629600000000  0.5041630000000 1.0
C      1  0.5569220000000  0.4722480000000  0.6266950000000 1.0
C      1  0.5780130000000  0.5545050000000  0.4382370000000 1.0
C      1  0.4923690000000  0.3818150000000  0.4844110000000 1.0
C      1  0.3904790000000  0.5205910000000  0.5014220000000 1.0
C      1  0.5511140000000  0.5512220000000  0.5811140000000 1.0
C      1  0.5913630000000  0.5272920000000  0.5774600000000 1.0
C      1  0.4146910000000  0.4538510000000  0.4290640000000 1.0
C      1  0.4341680000000  0.3910640000000  0.5395600000000 1.0
C      1  0.4312870000000  0.5688030000000  0.5973370000000 1.0
C      1  0.5272690000000  0.3986910000000  0.4445340000000 1.0
C      1  0.4844560000000  0.5769860000000  0.5632150000000 1.0
C      1  0.5124720000000  0.4510230000000  0.5651660000000 1.0
C      1  0.4770240000000  0.4580310000000  0.5240030000000 1.0
C      1  0.4088230000000  0.4485780000000  0.5275750000000 1.0
C      1  0.5446920000000  0.4983720000000  0.4002430000000 1.0
C      1  0.5495250000000  0.4176730000000  0.4842160000000 1.0
C      1  0.5001770000000  0.4349610000000  0.4890140000000 1.0
C      1  0.3995960000000  0.4632410000000  0.5044740000000 1.0
C      1  0.4302000000000  0.5151940000000  0.5291920000000 1.0
C      1  0.4609590000000  0.4069980000000  0.4576370000000 1.0
C      1  0.4604510000000  0.5661270000000  0.5230710000000 1.0
C      1  0.4066890000000  0.4481500000000  0.4790300000000 1.0
C      1  0.5227200000000  0.4778710000000  0.5077190000000 1.0
C      1  0.5941520000000  0.4702010000000  0.5654340000000 1.0
C      1  0.4284870000000  0.5905590000000  0.5820640000000 1.0
C      1  0.4176350000000  0.5017330000000  0.5890270000000 1.0
C      1  0.5381930000000  0.3689190000000  0.5444680000000 1.0
C      1  0.4664700000000  0.5044370000000  0.5991690000000 1.0
C      1  0.4935020000000  0.5745690000000  0.4610350000000 1.0
C      1  0.4155510000000  0.4866390000000  0.4615900000000 1.0
C      1  0.4742660000000  0.4500990000000  0.4127260000000 1.0
C      1  0.4514580000000  0.4336710000000  0.4529900000000 1.0
C      1  0.5074540000000  0.5822640000000  0.5117210000000 1.0
C      1  0.5041420000000  0.3863640000000  0.4579160000000 1.0
C      1  0.4682880000000  0.5277330000000  0.3949890000000 1.0
C      1  0.5331050000000  0.4687780000000  0.5571570000000 1.0
C      1  0.5613660000000  0.4677300000000  0.4823310000000 1.0
C      1  0.5018690000000  0.4787390000000  0.4490080000000 1.0
C      1  0.4491650000000  0.3799370000000  0.5610080000000 1.0
C      1  0.4953450000000  0.5727710000000  0.4097080000000 1.0
C      1  0.5214770000000  0.3665500000000  0.5233850000000 1.0
C      1  0.4266380000000  0.5022680000000  0.4101400000000 1.0
C      1  0.4384450000000  0.3601350000000  0.5774520000000 1.0
C      1  0.4314400000000  0.6010190000000  0.5309030000000 1.0
C      1  0.4429680000000  0.4151430000000  0.5276730000000 1.0
C      1  0.4295270000000  0.6043110000000  0.5590650000000 1.0
C      1  0.5481200000000  0.4658720000000  0.5082690000000 1.0
C      1  0.4992150000000  0.6035580000000  0.4490790000000 1.0
C      1  0.4832680000000  0.6055850000000  0.5664170000000 1.0
C      1  0.4566560000000  0.4841350000000  0.5568560000000 1.0
C      1  0.5799680000000  0.5058350000000  0.5351210000000 1.0
C      1  0.5327870000000  0.4963270000000  0.5650860000000 1.0
C      1  0.5654760000000  0.6138830000000  0.4856100000000 1.0
C      1  0.5236330000000  0.5754220000000  0.5352330000000 1.0
C      1  0.4711810000000  0.4822100000000  0.5814910000000 1.0
C      1  0.5514010000000  0.4618540000000  0.5363300000000 1.0
C      1  0.5546640000000  0.5652400000000  0.4255890000000 1.0
C      1  0.3865730000000  0.5216910000000  0.4717010000000 1.0
C      1  0.5383040000000  0.5751550000000  0.4708790000000 1.0
C      1  0.3887130000000  0.5702350000000  0.5185180000000 1.0
C      1  0.5580530000000  0.4180750000000  0.5310110000000 1.0
C      1  0.5182940000000  0.4080940000000  0.4181880000000 1.0
C      1  0.4982510000000  0.5237010000000  0.5309090000000 1.0
C      1  0.5289760000000  0.4677030000000  0.4457600000000 1.0
C      1  0.5112860000000  0.5684570000000  0.5608010000000 1.0
C      1  0.5952940000000  0.5244380000000  0.5507550000000 1.0
C      1  0.5647500000000  0.5269440000000  0.5874010000000 1.0
C      1  0.5715930000000  0.4211300000000  0.5050180000000 1.0
C      1  0.5632810000000  0.5686440000000  0.5617180000000 1.0
C      1  0.4079370000000  0.5892460000000  0.5193630000000 1.0
C      1  0.4548000000000  0.4607680000000  0.5411130000000 1.0
C      1  0.5177030000000  0.6350970000000  0.5030920000000 1.0
C      1  0.4112840000000  0.3783100000000  0.5299240000000 1.0
C      1  0.4044590000000  0.4959270000000  0.5662830000000 1.0
C      1  0.4762150000000  0.4252790000000  0.4020080000000 1.0
C      1  0.4996460000000  0.6264230000000  0.5242600000000 1.0
C      1  0.5229240000000  0.5536520000000  0.5823060000000 1.0
C      1  0.4280600000000  0.3415220000000  0.5924490000000 1.0
C      1  0.5239910000000  0.4230880000000  0.4987070000000 1.0
C      1  0.4883370000000  0.5207490000000  0.6063320000000 1.0
C      1  0.4578510000000  0.5944790000000  0.5203310000000 1.0
C      1  0.4414870000000  0.4844060000000  0.4716750000000 1.0
C      1  0.5516360000000  0.4679500000000  0.6518470000000 1.0
C      1  0.4231810000000  0.4421290000000  0.4540670000000 1.0
C      1  0.5646640000000  0.4097750000000  0.5576230000000 1.0
C      1  0.5337660000000  0.4569820000000  0.4196810000000 1.0
C      1  0.4873960000000  0.3388910000000  0.5047780000000 1.0
C      1  0.4557570000000  0.5538120000000  0.4006760000000 1.0
C      1  0.4642770000000  0.6378710000000  0.4501440000000 1.0
C      1  0.3906770000000  0.4966270000000  0.4597460000000 1.0
C      1  0.4750120000000  0.3896280000000  0.5652510000000 1.0
C      1  0.5069450000000  0.5388720000000  0.6000610000000 1.0
C      1  0.5508590000000  0.4818480000000  0.4594840000000 1.0
C      1  0.4362190000000  0.5434730000000  0.6042340000000 1.0
C      1  0.5280720000000  0.4323210000000  0.4083510000000 1.0
C      1  0.4406950000000  0.6453250000000  0.4419320000000 1.0
C      1  0.5872190000000  0.4562790000000  0.4764350000000 1.0
C      1  0.4911140000000  0.5242550000000  0.4388050000000 1.0
C      1  0.4669730000000  0.3973240000000  0.4848830000000 1.0
C      1  0.4084080000000  0.5238160000000  0.4132520000000 1.0
C      1  0.6815520000000  0.5734080000000  0.4984170000000 1.0
C      1  0.5547890000000  0.3831010000000  0.5607930000000 1.0
C      1  0.5032350000000  0.5470990000000  0.4492750000000 1.0
C      1  0.5036790000000  0.5007560000000  0.4285750000000 1.0
C      1  0.4857030000000  0.6024010000000  0.5154050000000 1.0
C      1  0.5414580000000  0.5829540000000  0.4429940000000 1.0
C      1  0.5780430000000  0.5255710000000  0.4383980000000 1.0
C      1  0.4578020000000  0.5062550000000  0.4662220000000 1.0
C      1  0.4633530000000  0.5157920000000  0.4403230000000 1.0
C      1  0.5265340000000  0.5148120000000  0.5429090000000 1.0
C      1  0.4806060000000  0.3945760000000  0.4405010000000 1.0
C      1  0.4184720000000  0.4752610000000  0.4129400000000 1.0
C      1  0.4942480000000  0.6267430000000  0.5524850000000 1.0
C      1  0.5130530000000  0.5755720000000  0.4847940000000 1.0
C      1  0.4897400000000  0.4043940000000  0.4152460000000 1.0
C      1  0.4044140000000  0.5425410000000  0.4323050000000 1.0
C      1  0.5675480000000  0.5205820000000  0.4821260000000 1.0
C      1  0.3786810000000  0.5451410000000  0.5149810000000 1.0
C      1  0.3899070000000  0.3670650000000  0.5201430000000 1.0
C      1  0.4957360000000  0.4054440000000  0.5606580000000 1.0
C      1  0.5239390000000  0.5005530000000  0.4911890000000 1.0
C      1  0.5614800000000  0.4769530000000  0.5995850000000 1.0
C      1  0.4675180000000  0.5519420000000  0.4997750000000 1.0
C      1  0.5512620000000  0.5013620000000  0.5868520000000 1.0
C      1  0.5449780000000  0.6263280000000  0.4987440000000 1.0
C      1  0.4040700000000  0.5419800000000  0.4603810000000 1.0
C      1  0.4846560000000  0.5287940000000  0.5035060000000 1.0
C      1  0.5705400000000  0.4300290000000  0.5771990000000 1.0
C      1  0.5924310000000  0.4412040000000  0.5001240000000 1.0
C      1  0.4988830000000  0.5268950000000  0.3917790000000 1.0
C      1  0.4748860000000  0.5293110000000  0.5484310000000 1.0
C      1  0.5913400000000  0.5337130000000  0.4887970000000 1.0
C      1  0.5036210000000  0.6412480000000  0.4790540000000 1.0
C      1  0.4536770000000  0.5103250000000  0.4138130000000 1.0
C      1  0.4536140000000  0.5103700000000  0.5450000000000 1.0
C      1  0.5545160000000  0.5254210000000  0.3960970000000 1.0
C      1  0.5784070000000  0.4544520000000  0.4272430000000 1.0
C      1  0.4542950000000  0.4624540000000  0.4844920000000 1.0
C      1  0.5003630000000  0.4726320000000  0.5229620000000 1.0
C      1  0.7062910000000  0.5787740000000  0.5046520000000 1.0
C      1  0.4342560000000  0.4410440000000  0.5368320000000 1.0
C      1  0.5761290000000  0.4577570000000  0.5833050000000 1.0
C      1  0.5578800000000  0.4716510000000  0.4110570000000 1.0
C      1  0.5670360000000  0.4276420000000  0.4369430000000 1.0
C      1  0.4514820000000  0.5573760000000  0.4756200000000 1.0
C      1  0.4678310000000  0.5700810000000  0.4212150000000 1.0
C      1  0.5927160000000  0.4790680000000  0.5384160000000 1.0
END
