TITL C-3623289-7120-1378 3526192.61981762 125000 -1206.04295491637 0 0 198 (C1) n - 1
REM
REM in /home/nfs/bkarasulu/CARBON/AIRSS/Generating-Clusters/LCBOP/Higher-Symm/SD-CG/FIRE-CG
REM
REM
REM
REM
REM
REM ./C.cell (b20cbc046b6831c77cfcea5457e17084)
REM AIRSS Version 0.9.1 bugfix July 2018 build 013d7b7c2542+ Fri, 06 Jul 2018 19:26:36 +0100
REM compiler GCC version 9.2.1 20190827 (Red Hat 9.2.1-1)
REM options -cpp -mtune=generic -march=x86-64 -g -O0 -fpre-include=/usr/include/finclude/math-vector-fortran.h
REM seed -346518345 -948811837 230237242 -372643400 362060277 335504272 -695206590 -715212470 -623357226 761245839 1131657216 -1632743761 -744106122 -1825788516 1609005351 115843430 -1710268022 1817339067 -478994429 176740422 1028473624 -1270131644 551022938 -1676733447 -393285325 663819526 -1982014003 718390274 1031870028 1656789366 -902943671 953029467 1796263340
REM
CELL 1.54180   50.00000   50.00000   50.00000   90.00000   90.00000   90.00000
LATT -1
SFAC C  
C      1  0.4862330000000  0.5637950000000  0.4929660000000 1.0
C      1  0.5422670000000  0.4938030000000  0.4740850000000 1.0
C      1  0.4904950000000  0.4773280000000  0.5401050000000 1.0
C      1  0.5024800000000  0.5230230000000  0.5058500000000 1.0
C      1  0.4996910000000  0.4408530000000  0.4928120000000 1.0
C      1  0.4608650000000  0.4598050000000  0.5117210000000 1.0
C      1  0.4664320000000  0.4857210000000  0.5231220000000 1.0
C      1  0.4639420000000  0.5226390000000  0.4769630000000 1.0
C      1  0.5401560000000  0.5143460000000  0.5285060000000 1.0
C      1  0.5176090000000  0.4832330000000  0.4632920000000 1.0
C      1  0.5123660000000  0.5218380000000  0.5332430000000 1.0
C      1  0.4887790000000  0.5254610000000  0.4584370000000 1.0
C      1  0.4735530000000  0.4558490000000  0.4857910000000 1.0
C      1  0.5405960000000  0.5221020000000  0.4677230000000 1.0
C      1  0.4994260000000  0.5029880000000  0.5508830000000 1.0
C      1  0.5314950000000  0.4721550000000  0.5142400000000 1.0
C      1  0.5106530000000  0.5480470000000  0.4909070000000 1.0
C      1  0.4614500000000  0.5401940000000  0.5377930000000 1.0
C      1  0.4561690000000  0.5038100000000  0.5004510000000 1.0
C      1  0.4740990000000  0.4761890000000  0.4630060000000 1.0
C      1  0.5462930000000  0.4960870000000  0.5050290000000 1.0
C      1  0.5152070000000  0.5378570000000  0.4637750000000 1.0
C      1  0.5155380000000  0.4641860000000  0.5355130000000 1.0
C      1  0.4942010000000  0.4963980000000  0.4535890000000 1.0
C      1  0.5358420000000  0.3944510000000  0.5154160000000 1.0
C      1  0.3980290000000  0.5176420000000  0.5364550000000 1.0
C      1  0.5144640000000  0.5388370000000  0.3909590000000 1.0
C      1  0.4620580000000  0.3891850000000  0.4884850000000 1.0
C      1  0.4455700000000  0.6176240000000  0.5049160000000 1.0
C      1  0.5376530000000  0.6069360000000  0.4828780000000 1.0
C      1  0.6086770000000  0.5167130000000  0.4650200000000 1.0
C      1  0.6064810000000  0.4784500000000  0.5383250000000 1.0
C      1  0.3976270000000  0.4800810000000  0.4619830000000 1.0
C      1  0.4885290000000  0.5403670000000  0.6080540000000 1.0
C      1  0.4851820000000  0.4617900000000  0.3939810000000 1.0
C      1  0.5153070000000  0.4604850000000  0.6083240000000 1.0
C      1  0.5400940000000  0.6096690000000  0.5117980000000 1.0
C      1  0.3968100000000  0.4875540000000  0.5349800000000 1.0
C      1  0.5150940000000  0.4623780000000  0.3953590000000 1.0
C      1  0.4552550000000  0.6117870000000  0.4775220000000 1.0
C      1  0.4610760000000  0.3906080000000  0.5186750000000 1.0
C      1  0.5352570000000  0.3914580000000  0.4862730000000 1.0
C      1  0.6100360000000  0.4874160000000  0.4606290000000 1.0
C      1  0.6068170000000  0.5103950000000  0.5411860000000 1.0
C      1  0.3917940000000  0.5091960000000  0.4619650000000 1.0
C      1  0.4860760000000  0.4602860000000  0.6098280000000 1.0
C      1  0.4843370000000  0.5372630000000  0.3880900000000 1.0
C      1  0.5186830000000  0.5384470000000  0.6058950000000 1.0
C      1  0.4627660000000  0.5487020000000  0.4912820000000 1.0
C      1  0.5603470000000  0.4753170000000  0.4573930000000 1.0
C      1  0.4753600000000  0.4568670000000  0.5590170000000 1.0
C      1  0.5470040000000  0.5604490000000  0.5282260000000 1.0
C      1  0.5255310000000  0.4430610000000  0.4802010000000 1.0
C      1  0.4493350000000  0.4424330000000  0.5275440000000 1.0
C      1  0.4500210000000  0.4940390000000  0.5464750000000 1.0
C      1  0.4455120000000  0.5116990000000  0.4545600000000 1.0
C      1  0.5556270000000  0.5211420000000  0.5473540000000 1.0
C      1  0.5178980000000  0.4552260000000  0.4561190000000 1.0
C      1  0.5081030000000  0.5495280000000  0.5439560000000 1.0
C      1  0.4754770000000  0.5449480000000  0.4384920000000 1.0
C      1  0.4556050000000  0.4367310000000  0.4732740000000 1.0
C      1  0.5613030000000  0.5366830000000  0.4615130000000 1.0
C      1  0.4824260000000  0.5567070000000  0.5440890000000 1.0
C      1  0.5448780000000  0.4513220000000  0.4995760000000 1.0
C      1  0.5343890000000  0.5584130000000  0.5037230000000 1.0
C      1  0.4479950000000  0.5476500000000  0.5149990000000 1.0
C      1  0.4545950000000  0.5191660000000  0.5542900000000 1.0
C      1  0.4505230000000  0.4858640000000  0.4496460000000 1.0
C      1  0.5624740000000  0.4628590000000  0.5417410000000 1.0
C      1  0.5249320000000  0.5551640000000  0.4421360000000 1.0
C      1  0.5240750000000  0.4494780000000  0.5562020000000 1.0
C      1  0.4940500000000  0.4467060000000  0.4472280000000 1.0
C      1  0.5133260000000  0.3924440000000  0.4656130000000 1.0
C      1  0.4046910000000  0.4664850000000  0.5129920000000 1.0
C      1  0.4643050000000  0.5179060000000  0.3991750000000 1.0
C      1  0.4826610000000  0.3985810000000  0.5381480000000 1.0
C      1  0.4850760000000  0.6071440000000  0.4769470000000 1.0
C      1  0.5193960000000  0.6007880000000  0.5310040000000 1.0
C      1  0.6019820000000  0.4651340000000  0.4790370000000 1.0
C      1  0.5972940000000  0.5289360000000  0.5183270000000 1.0
C      1  0.3925260000000  0.5320020000000  0.4822040000000 1.0
C      1  0.5268130000000  0.5110360000000  0.5916590000000 1.0
C      1  0.5258600000000  0.4903590000000  0.4109390000000 1.0
C      1  0.4669510000000  0.4813190000000  0.6000510000000 1.0
C      1  0.5128280000000  0.6038950000000  0.4640690000000 1.0
C      1  0.4055730000000  0.5285290000000  0.5091820000000 1.0
C      1  0.4729910000000  0.4884870000000  0.4061010000000 1.0
C      1  0.4916010000000  0.5986640000000  0.5274490000000 1.0
C      1  0.4847850000000  0.3962880000000  0.4693530000000 1.0
C      1  0.5116110000000  0.4059030000000  0.5322650000000 1.0
C      1  0.5995350000000  0.5316740000000  0.4894800000000 1.0
C      1  0.5937820000000  0.4704210000000  0.5088160000000 1.0
C      1  0.4077410000000  0.4637260000000  0.4838830000000 1.0
C      1  0.5325250000000  0.4811750000000  0.5963870000000 1.0
C      1  0.5328290000000  0.5219780000000  0.4041370000000 1.0
C      1  0.4755520000000  0.5126660000000  0.5963050000000 1.0
C      1  0.5563380000000  0.5894130000000  0.4416740000000 1.0
C      1  0.5765290000000  0.4295920000000  0.5715960000000 1.0
C      1  0.4484990000000  0.5550060000000  0.5861070000000 1.0
C      1  0.4437850000000  0.5863530000000  0.5481100000000 1.0
C      1  0.4398260000000  0.4050610000000  0.4468050000000 1.0
C      1  0.5588160000000  0.4127770000000  0.5544480000000 1.0
C      1  0.4228880000000  0.4379360000000  0.4395020000000 1.0
C      1  0.4301380000000  0.5639180000000  0.5648000000000 1.0
C      1  0.5984220000000  0.5605730000000  0.4342410000000 1.0
C      1  0.5718330000000  0.5699340000000  0.4284470000000 1.0
C      1  0.5567570000000  0.4401140000000  0.5906670000000 1.0
C      1  0.4459700000000  0.4463830000000  0.4183690000000 1.0
C      1  0.5541210000000  0.4068760000000  0.4445160000000 1.0
C      1  0.5853680000000  0.5510180000000  0.5648410000000 1.0
C      1  0.4302920000000  0.4380380000000  0.5720810000000 1.0
C      1  0.4423330000000  0.4144660000000  0.5602710000000 1.0
C      1  0.4446380000000  0.5794030000000  0.4404020000000 1.0
C      1  0.5587230000000  0.5972910000000  0.5543310000000 1.0
C      1  0.4032200000000  0.5511940000000  0.4408060000000 1.0
C      1  0.4091570000000  0.4471020000000  0.5565020000000 1.0
C      1  0.5668150000000  0.4310170000000  0.4363700000000 1.0
C      1  0.5538960000000  0.4473610000000  0.4179940000000 1.0
C      1  0.5608150000000  0.5503840000000  0.5833090000000 1.0
C      1  0.4284120000000  0.5579970000000  0.4302210000000 1.0
C      1  0.4360200000000  0.3945560000000  0.4732830000000 1.0
C      1  0.4047900000000  0.4668080000000  0.4362290000000 1.0
C      1  0.4701190000000  0.4380680000000  0.4042810000000 1.0
C      1  0.5618400000000  0.4038330000000  0.5272600000000 1.0
C      1  0.5613060000000  0.5948790000000  0.4699960000000 1.0
C      1  0.4330220000000  0.5983890000000  0.5226320000000 1.0
C      1  0.5977090000000  0.4594790000000  0.5663400000000 1.0
C      1  0.6020540000000  0.5320560000000  0.4391540000000 1.0
C      1  0.4093240000000  0.5338670000000  0.5608040000000 1.0
C      1  0.5298160000000  0.4341470000000  0.6018900000000 1.0
C      1  0.5231420000000  0.5671680000000  0.3913500000000 1.0
C      1  0.4743680000000  0.5639790000000  0.5963270000000 1.0
C      1  0.4365290000000  0.5936570000000  0.4636730000000 1.0
C      1  0.3970760000000  0.5233450000000  0.4362690000000 1.0
C      1  0.4748130000000  0.5650730000000  0.3875930000000 1.0
C      1  0.5664480000000  0.6028670000000  0.5259090000000 1.0
C      1  0.5599460000000  0.4003790000000  0.4720290000000 1.0
C      1  0.4355070000000  0.3992880000000  0.5334060000000 1.0
C      1  0.5995920000000  0.5232610000000  0.5673840000000 1.0
C      1  0.6044990000000  0.4810300000000  0.4324880000000 1.0
C      1  0.4014170000000  0.4742860000000  0.5607170000000 1.0
C      1  0.5347910000000  0.5604440000000  0.5944310000000 1.0
C      1  0.5288190000000  0.4392260000000  0.4057230000000 1.0
C      1  0.4760790000000  0.4333340000000  0.6062970000000 1.0
C      1  0.3987960000000  0.5583970000000  0.4683360000000 1.0
C      1  0.5552780000000  0.4777340000000  0.4251770000000 1.0
C      1  0.4712270000000  0.4240340000000  0.5549170000000 1.0
C      1  0.5774620000000  0.5498260000000  0.5336870000000 1.0
C      1  0.5787680000000  0.4480700000000  0.4639930000000 1.0
C      1  0.4171320000000  0.4416590000000  0.5275500000000 1.0
C      1  0.4494430000000  0.4696370000000  0.5755310000000 1.0
C      1  0.4460500000000  0.5304470000000  0.4241560000000 1.0
C      1  0.5537320000000  0.5200940000000  0.5780670000000 1.0
C      1  0.5258690000000  0.4015500000000  0.4392030000000 1.0
C      1  0.5319660000000  0.5802570000000  0.5501650000000 1.0
C      1  0.4714740000000  0.5720160000000  0.4340250000000 1.0
C      1  0.4244910000000  0.4394340000000  0.4728130000000 1.0
C      1  0.5531420000000  0.5400350000000  0.4251750000000 1.0
C      1  0.4761650000000  0.5854880000000  0.5509400000000 1.0
C      1  0.5716450000000  0.4499040000000  0.5162400000000 1.0
C      1  0.5794320000000  0.5496460000000  0.4782400000000 1.0
C      1  0.4208210000000  0.5533160000000  0.5145750000000 1.0
C      1  0.4492640000000  0.5245040000000  0.5834340000000 1.0
C      1  0.4473660000000  0.4768090000000  0.4208530000000 1.0
C      1  0.5513280000000  0.4671570000000  0.5761110000000 1.0
C      1  0.5248570000000  0.5857570000000  0.4383520000000 1.0
C      1  0.5270400000000  0.4182750000000  0.5575780000000 1.0
C      1  0.4730590000000  0.4174410000000  0.4496020000000 1.0
C      1  0.5135720000000  0.4160570000000  0.4169910000000 1.0
C      1  0.4152400000000  0.4133140000000  0.5163300000000 1.0
C      1  0.4146150000000  0.5114640000000  0.4179190000000 1.0
C      1  0.4861630000000  0.4172560000000  0.5850750000000 1.0
C      1  0.4831280000000  0.5817120000000  0.4099500000000 1.0
C      1  0.5197180000000  0.5794930000000  0.5782460000000 1.0
C      1  0.5778850000000  0.4190880000000  0.4834120000000 1.0
C      1  0.5818590000000  0.5820030000000  0.5137460000000 1.0
C      1  0.4137310000000  0.5814910000000  0.4787900000000 1.0
C      1  0.5813320000000  0.5066150000000  0.5836030000000 1.0
C      1  0.5813780000000  0.4924260000000  0.4189400000000 1.0
C      1  0.4175460000000  0.4876760000000  0.5795040000000 1.0
C      1  0.5117950000000  0.5863010000000  0.4105840000000 1.0
C      1  0.4163400000000  0.5801700000000  0.5074520000000 1.0
C      1  0.4181280000000  0.4843260000000  0.4171860000000 1.0
C      1  0.4896410000000  0.5838170000000  0.5797140000000 1.0
C      1  0.4847780000000  0.4170720000000  0.4167990000000 1.0
C      1  0.5144860000000  0.4147920000000  0.5850760000000 1.0
C      1  0.5777810000000  0.5770280000000  0.4861460000000 1.0
C      1  0.5779510000000  0.4213360000000  0.5111970000000 1.0
C      1  0.4177170000000  0.4125970000000  0.4876480000000 1.0
C      1  0.5809130000000  0.4789260000000  0.5812550000000 1.0
C      1  0.5809340000000  0.5201860000000  0.4220770000000 1.0
C      1  0.4200500000000  0.5154490000000  0.5825580000000 1.0
C      1  0.4275770000000  0.5078700000000  0.5021550000000 1.0
C      1  0.5044710000000  0.4294170000000  0.5162890000000 1.0
C      1  0.4868970000000  0.5903700000000  0.5005470000000 1.0
C      1  0.5760890000000  0.4952570000000  0.5056420000000 1.0
C      1  0.4975690000000  0.4954810000000  0.4241510000000 1.0
C      1  0.4998850000000  0.5071980000000  0.5777530000000 1.0
END
