TITL C-3623284-6838-1239 24.6839748807071 125000 -1133.21562885735 0 0 185 (C1) n - 1
REM
REM in /home/nfs/bkarasulu/CARBON/AIRSS/Generating-Clusters/LCBOP/Higher-Symm/SD-CG/FIRE-CG
REM
REM
REM
REM
REM
REM ./C.cell (b20cbc046b6831c77cfcea5457e17084)
REM AIRSS Version 0.9.1 bugfix July 2018 build 013d7b7c2542+ Fri, 06 Jul 2018 19:26:36 +0100
REM compiler GCC version 9.2.1 20190827 (Red Hat 9.2.1-1)
REM options -cpp -mtune=generic -march=x86-64 -g -O0 -fpre-include=/usr/include/finclude/math-vector-fortran.h
REM seed -2020743045 -1067675710 -275259823 -1279270212 598875346 954447549 -1289849561 -1953049008 1856568808 1881151677 -1581073409 -1884674598 62554287 -478223795 1261307520 342703933 -325739765 -913583417 1588906950 2123232349 1111514555 -650197022 -2063638011 -1160674269 -685629928 1455992225 -1480561461 445104079 390787993 1680529568 -618854798 160246649 1307787002
REM
CELL 1.54180   50.00000   50.00000   50.00000   90.00000   90.00000   90.00000
LATT -1
SFAC C  
C      1  0.4622650000000  0.4287280000000  0.5504530000000 1.0
C      1  0.4555310000000  0.5870380000000  0.5430320000000 1.0
C      1  0.4605090000000  0.4922320000000  0.4156500000000 1.0
C      1  0.4879760000000  0.5411940000000  0.4725830000000 1.0
C      1  0.4908050000000  0.4609600000000  0.4810970000000 1.0
C      1  0.5032250000000  0.4932550000000  0.5422510000000 1.0
C      1  0.6466380000000  0.5471700000000  0.4667730000000 1.0
C      1  0.5972300000000  0.4798190000000  0.4355350000000 1.0
C      1  0.5944080000000  0.4549440000000  0.5668100000000 1.0
C      1  0.4992970000000  0.4081800000000  0.5309140000000 1.0
C      1  0.4922830000000  0.5764160000000  0.5708860000000 1.0
C      1  0.4987930000000  0.5169820000000  0.4081260000000 1.0
C      1  0.4459760000000  0.5839230000000  0.4183510000000 1.0
C      1  0.4547670000000  0.3894310000000  0.4648390000000 1.0
C      1  0.4462670000000  0.5247520000000  0.6171090000000 1.0
C      1  0.4079870000000  0.4520370000000  0.5970130000000 1.0
C      1  0.4094560000000  0.6003470000000  0.4701720000000 1.0
C      1  0.4133310000000  0.4343930000000  0.4186120000000 1.0
C      1  0.5808340000000  0.5271600000000  0.5865550000000 1.0
C      1  0.5837040000000  0.5392790000000  0.4307280000000 1.0
C      1  0.5894660000000  0.4243860000000  0.4964570000000 1.0
C      1  0.4854080000000  0.4131810000000  0.5545780000000 1.0
C      1  0.4791350000000  0.5964980000000  0.5560380000000 1.0
C      1  0.4847290000000  0.4936830000000  0.4017600000000 1.0
C      1  0.4679390000000  0.4349930000000  0.4193320000000 1.0
C      1  0.4621190000000  0.4576870000000  0.6013590000000 1.0
C      1  0.4647530000000  0.6017610000000  0.4790930000000 1.0
C      1  0.5280340000000  0.4165670000000  0.5794310000000 1.0
C      1  0.5279580000000  0.6018350000000  0.5323200000000 1.0
C      1  0.5267790000000  0.4760790000000  0.3840830000000 1.0
C      1  0.5701470000000  0.4117000000000  0.4811370000000 1.0
C      1  0.5559910000000  0.5182240000000  0.5952140000000 1.0
C      1  0.5659810000000  0.5612530000000  0.4418340000000 1.0
C      1  0.5664520000000  0.5176050000000  0.4762790000000 1.0
C      1  0.5626890000000  0.4682340000000  0.5066650000000 1.0
C      1  0.5834070000000  0.5257010000000  0.5346000000000 1.0
C      1  0.5420960000000  0.4912550000000  0.5916310000000 1.0
C      1  0.5578370000000  0.5775400000000  0.4727810000000 1.0
C      1  0.5474580000000  0.4296510000000  0.4381910000000 1.0
C      1  0.5100260000000  0.4411740000000  0.4727520000000 1.0
C      1  0.4869030000000  0.4992920000000  0.5634710000000 1.0
C      1  0.5075000000000  0.5603570000000  0.4598460000000 1.0
C      1  0.5049730000000  0.4282150000000  0.4488280000000 1.0
C      1  0.4926220000000  0.4892330000000  0.5886050000000 1.0
C      1  0.5044880000000  0.5878050000000  0.4534720000000 1.0
C      1  0.4350680000000  0.5947380000000  0.4837580000000 1.0
C      1  0.4401810000000  0.4440080000000  0.4255310000000 1.0
C      1  0.4356980000000  0.4565420000000  0.5888990000000 1.0
C      1  0.6424910000000  0.5324730000000  0.4891230000000 1.0
C      1  0.6131810000000  0.5029540000000  0.4456090000000 1.0
C      1  0.6230050000000  0.4577920000000  0.4993700000000 1.0
C      1  0.3984740000000  0.5612550000000  0.4961460000000 1.0
C      1  0.4032760000000  0.4683310000000  0.4507360000000 1.0
C      1  0.4024610000000  0.4701070000000  0.5532970000000 1.0
C      1  0.4259570000000  0.5715480000000  0.5002720000000 1.0
C      1  0.4324200000000  0.4654260000000  0.4451270000000 1.0
C      1  0.4311170000000  0.4671500000000  0.5614950000000 1.0
C      1  0.5464960000000  0.4796520000000  0.4392170000000 1.0
C      1  0.5497990000000  0.4602440000000  0.5487850000000 1.0
C      1  0.5501640000000  0.5567050000000  0.5184760000000 1.0
C      1  0.4675530000000  0.4531920000000  0.5354300000000 1.0
C      1  0.4608300000000  0.5630120000000  0.5279260000000 1.0
C      1  0.4638100000000  0.4991290000000  0.4435790000000 1.0
C      1  0.4285510000000  0.4574890000000  0.4965550000000 1.0
C      1  0.4256120000000  0.5180850000000  0.5444660000000 1.0
C      1  0.4264460000000  0.5284130000000  0.4679090000000 1.0
C      1  0.4441860000000  0.4334420000000  0.4874560000000 1.0
C      1  0.4401650000000  0.5279220000000  0.5681130000000 1.0
C      1  0.4404170000000  0.5464240000000  0.4494390000000 1.0
C      1  0.5244270000000  0.5464710000000  0.5111510000000 1.0
C      1  0.5221140000000  0.4921370000000  0.4486090000000 1.0
C      1  0.5393540000000  0.4681090000000  0.5225790000000 1.0
C      1  0.4891730000000  0.4456700000000  0.4014800000000 1.0
C      1  0.4873690000000  0.4413480000000  0.5988500000000 1.0
C      1  0.4886430000000  0.6046430000000  0.4979350000000 1.0
C      1  0.4625280000000  0.5554660000000  0.4662550000000 1.0
C      1  0.4662210000000  0.4465020000000  0.4738240000000 1.0
C      1  0.4670340000000  0.5186360000000  0.5634010000000 1.0
C      1  0.4887600000000  0.4525300000000  0.5165780000000 1.0
C      1  0.4849240000000  0.5503810000000  0.5328830000000 1.0
C      1  0.4837930000000  0.5175620000000  0.4525560000000 1.0
C      1  0.4711580000000  0.4844600000000  0.6072190000000 1.0
C      1  0.4769670000000  0.5986550000000  0.4524790000000 1.0
C      1  0.4813530000000  0.4173160000000  0.4377570000000 1.0
C      1  0.5101650000000  0.5169740000000  0.4360880000000 1.0
C      1  0.5080950000000  0.4317180000000  0.5177040000000 1.0
C      1  0.5015160000000  0.5544140000000  0.5547150000000 1.0
C      1  0.5539430000000  0.4553690000000  0.4543850000000 1.0
C      1  0.5546450000000  0.4862270000000  0.5618710000000 1.0
C      1  0.5657530000000  0.5617290000000  0.4947080000000 1.0
C      1  0.5355160000000  0.5355590000000  0.5858160000000 1.0
C      1  0.5417750000000  0.5564930000000  0.4275060000000 1.0
C      1  0.5442580000000  0.4112350000000  0.4907110000000 1.0
C      1  0.6070980000000  0.4425470000000  0.4812610000000 1.0
C      1  0.6000120000000  0.5058580000000  0.5834670000000 1.0
C      1  0.6105330000000  0.5306220000000  0.4369120000000 1.0
C      1  0.4521210000000  0.5668860000000  0.5962260000000 1.0
C      1  0.4566970000000  0.5419430000000  0.4007190000000 1.0
C      1  0.4594370000000  0.3903590000000  0.5109940000000 1.0
C      1  0.5751050000000  0.4209140000000  0.5294070000000 1.0
C      1  0.5698200000000  0.5570440000000  0.5686480000000 1.0
C      1  0.5686430000000  0.5182640000000  0.4151940000000 1.0
C      1  0.4502590000000  0.4741900000000  0.5424960000000 1.0
C      1  0.4442590000000  0.5527010000000  0.5085690000000 1.0
C      1  0.4487010000000  0.4826810000000  0.4598160000000 1.0
C      1  0.5166910000000  0.5970830000000  0.4286770000000 1.0
C      1  0.5269650000000  0.4095950000000  0.4480600000000 1.0
C      1  0.5137120000000  0.5022780000000  0.6024820000000 1.0
C      1  0.5356810000000  0.4610670000000  0.5986150000000 1.0
C      1  0.5381290000000  0.5969890000000  0.4829420000000 1.0
C      1  0.5383420000000  0.4369100000000  0.4108770000000 1.0
C      1  0.5381860000000  0.3892510000000  0.5086860000000 1.0
C      1  0.5305460000000  0.5612030000000  0.5980820000000 1.0
C      1  0.5339650000000  0.5515600000000  0.3997530000000 1.0
C      1  0.5228210000000  0.5432600000000  0.4432850000000 1.0
C      1  0.5240640000000  0.4302980000000  0.4940050000000 1.0
C      1  0.5206950000000  0.5354210000000  0.5620360000000 1.0
C      1  0.4346640000000  0.5879740000000  0.5877060000000 1.0
C      1  0.4396390000000  0.5239240000000  0.3865290000000 1.0
C      1  0.4413690000000  0.3882640000000  0.5330480000000 1.0
C      1  0.4705050000000  0.5107040000000  0.6208790000000 1.0
C      1  0.4710980000000  0.5954870000000  0.4234040000000 1.0
C      1  0.4796160000000  0.3917170000000  0.4519340000000 1.0
C      1  0.4449140000000  0.4813000000000  0.4875530000000 1.0
C      1  0.4450400000000  0.4993740000000  0.5310870000000 1.0
C      1  0.4427210000000  0.5284680000000  0.4936220000000 1.0
C      1  0.3968590000000  0.4852650000000  0.4746950000000 1.0
C      1  0.3967890000000  0.4837900000000  0.5273570000000 1.0
C      1  0.3946680000000  0.5309610000000  0.5018550000000 1.0
C      1  0.4392910000000  0.4124700000000  0.5477630000000 1.0
C      1  0.4328470000000  0.5908890000000  0.5594180000000 1.0
C      1  0.4381370000000  0.4990420000000  0.3998450000000 1.0
C      1  0.4275110000000  0.3650980000000  0.5393780000000 1.0
C      1  0.4208560000000  0.6041850000000  0.6055180000000 1.0
C      1  0.4265630000000  0.5300990000000  0.3629160000000 1.0
C      1  0.4814460000000  0.5685500000000  0.5964570000000 1.0
C      1  0.4860280000000  0.5412480000000  0.3987310000000 1.0
C      1  0.4886950000000  0.3881600000000  0.5127990000000 1.0
C      1  0.5179320000000  0.6023010000000  0.5044680000000 1.0
C      1  0.5176910000000  0.4521090000000  0.3972980000000 1.0
C      1  0.5167190000000  0.4391850000000  0.5934470000000 1.0
C      1  0.5805260000000  0.4932570000000  0.4751800000000 1.0
C      1  0.5844400000000  0.4798530000000  0.5225050000000 1.0
C      1  0.5980100000000  0.5290220000000  0.5098300000000 1.0
C      1  0.6032640000000  0.4544430000000  0.4531260000000 1.0
C      1  0.6025220000000  0.4788590000000  0.5780850000000 1.0
C      1  0.6319190000000  0.5475670000000  0.4440780000000 1.0
C      1  0.5030790000000  0.5544920000000  0.6106330000000 1.0
C      1  0.5054060000000  0.5624950000000  0.3961470000000 1.0
C      1  0.5116550000000  0.3800920000000  0.4956700000000 1.0
C      1  0.4144150000000  0.5363810000000  0.3407330000000 1.0
C      1  0.4146710000000  0.3431460000000  0.5450700000000 1.0
C      1  0.4080610000000  0.6192540000000  0.6224990000000 1.0
C      1  0.5747640000000  0.4993620000000  0.5422120000000 1.0
C      1  0.5796740000000  0.5385140000000  0.4895870000000 1.0
C      1  0.5658760000000  0.4683360000000  0.4787430000000 1.0
C      1  0.5527790000000  0.3994920000000  0.5337230000000 1.0
C      1  0.5481500000000  0.5772600000000  0.5787000000000 1.0
C      1  0.5477210000000  0.5247260000000  0.3948600000000 1.0
C      1  0.5093370000000  0.3849500000000  0.4646670000000 1.0
C      1  0.4982580000000  0.5246390000000  0.6169550000000 1.0
C      1  0.4971700000000  0.5882160000000  0.4084710000000 1.0
C      1  0.4483450000000  0.4042360000000  0.4883080000000 1.0
C      1  0.4404210000000  0.5406000000000  0.5943190000000 1.0
C      1  0.4433620000000  0.5559570000000  0.4221840000000 1.0
C      1  0.5368030000000  0.5013120000000  0.3821370000000 1.0
C      1  0.5400320000000  0.4020710000000  0.5597550000000 1.0
C      1  0.5382470000000  0.5949710000000  0.5571120000000 1.0
C      1  0.5739380000000  0.4428520000000  0.5497190000000 1.0
C      1  0.5670750000000  0.5485120000000  0.5412020000000 1.0
C      1  0.5702220000000  0.4908020000000  0.4260800000000 1.0
C      1  0.4023370000000  0.4707930000000  0.5011030000000 1.0
C      1  0.4008670000000  0.5145580000000  0.5274610000000 1.0
C      1  0.4013760000000  0.5148420000000  0.4765490000000 1.0
C      1  0.6113890000000  0.4724500000000  0.5188860000000 1.0
C      1  0.6196220000000  0.5170460000000  0.4951840000000 1.0
C      1  0.6093740000000  0.4998120000000  0.4742990000000 1.0
C      1  0.5063050000000  0.5302390000000  0.4956850000000 1.0
C      1  0.5069390000000  0.4855810000000  0.4739480000000 1.0
C      1  0.5193180000000  0.4883100000000  0.5202430000000 1.0
C      1  0.3891050000000  0.5817270000000  0.4771320000000 1.0
C      1  0.3929500000000  0.4479770000000  0.4325810000000 1.0
C      1  0.3895300000000  0.4596560000000  0.5772210000000 1.0
C      1  0.5118600000000  0.5021130000000  0.4965410000000 1.0
C      1  0.4489160000000  0.5033370000000  0.5039520000000 1.0
END
