TITL C-3623286-7563-1514 -3.30729417023574e-05 125000 -926.200717908362 0 0 152 (C1) n - 1
REM
REM in /home/nfs/bkarasulu/CARBON/AIRSS/Generating-Clusters/LCBOP/Higher-Symm/SD-CG/FIRE-CG
REM
REM
REM
REM
REM
REM ./C.cell (b20cbc046b6831c77cfcea5457e17084)
REM AIRSS Version 0.9.1 bugfix July 2018 build 013d7b7c2542+ Fri, 06 Jul 2018 19:26:36 +0100
REM compiler GCC version 9.2.1 20190827 (Red Hat 9.2.1-1)
REM options -cpp -mtune=generic -march=x86-64 -g -O0 -fpre-include=/usr/include/finclude/math-vector-fortran.h
REM seed 16746895 -1754280918 -1257993888 -697207532 -1998652175 -903115421 1215383883 1623491019 -29162391 -626149085 1259540609 -945954001 1328834460 805856809 -1800396622 -510019359 -1315021490 -1258264434 -1639316300 846534765 -712165427 403010217 -942395006 1180042758 -481551952 286078063 1523446659 69912187 -1970125493 -1971616433 1399413593 174204739 404256057
REM
CELL 1.54180   50.00000   50.00000   50.00000   90.00000   90.00000   90.00000
LATT -1
SFAC C  
C      1  0.3929610000000  0.4281870000000  0.4937750000000 1.0
C      1  0.6095960000000  0.4431580000000  0.5037590000000 1.0
C      1  0.4464600000000  0.5276690000000  0.4911530000000 1.0
C      1  0.5511340000000  0.5400590000000  0.5102140000000 1.0
C      1  0.5140650000000  0.4730180000000  0.5181740000000 1.0
C      1  0.4821270000000  0.4780960000000  0.4759280000000 1.0
C      1  0.5850750000000  0.5156130000000  0.4699690000000 1.0
C      1  0.4106320000000  0.5045680000000  0.5269060000000 1.0
C      1  0.4922490000000  0.5870340000000  0.4192300000000 1.0
C      1  0.5074940000000  0.5908220000000  0.5855960000000 1.0
C      1  0.6013930000000  0.5684730000000  0.5055340000000 1.0
C      1  0.4036930000000  0.5651510000000  0.5026340000000 1.0
C      1  0.4100420000000  0.4989760000000  0.4984100000000 1.0
C      1  0.5901810000000  0.5133900000000  0.4977070000000 1.0
C      1  0.5437290000000  0.4022720000000  0.5129640000000 1.0
C      1  0.4669890000000  0.3907310000000  0.4996460000000 1.0
C      1  0.4334030000000  0.5179020000000  0.5366540000000 1.0
C      1  0.5601040000000  0.5268800000000  0.4645770000000 1.0
C      1  0.4363620000000  0.4958660000000  0.4522420000000 1.0
C      1  0.5626850000000  0.4947410000000  0.5324820000000 1.0
C      1  0.3558670000000  0.5625550000000  0.5032160000000 1.0
C      1  0.6477310000000  0.5728170000000  0.5167450000000 1.0
C      1  0.3677060000000  0.5013820000000  0.4856470000000 1.0
C      1  0.6310500000000  0.5073360000000  0.5174620000000 1.0
C      1  0.3809140000000  0.5279390000000  0.4480930000000 1.0
C      1  0.6209580000000  0.5287040000000  0.5589410000000 1.0
C      1  0.4988300000000  0.4895370000000  0.3827050000000 1.0
C      1  0.4946690000000  0.4798060000000  0.6165280000000 1.0
C      1  0.5741640000000  0.4241890000000  0.4786400000000 1.0
C      1  0.4256080000000  0.4111910000000  0.5285460000000 1.0
C      1  0.4293550000000  0.5082820000000  0.4777940000000 1.0
C      1  0.5697390000000  0.5182830000000  0.5177970000000 1.0
C      1  0.4774580000000  0.5030170000000  0.5712910000000 1.0
C      1  0.5340990000000  0.4940470000000  0.4478560000000 1.0
C      1  0.4927170000000  0.5052830000000  0.4743550000000 1.0
C      1  0.4946500000000  0.4907050000000  0.5296950000000 1.0
C      1  0.5319790000000  0.5892300000000  0.5146850000000 1.0
C      1  0.4465790000000  0.5650810000000  0.4592230000000 1.0
C      1  0.4313690000000  0.4967630000000  0.5811530000000 1.0
C      1  0.5636680000000  0.5029980000000  0.4139990000000 1.0
C      1  0.5176180000000  0.5104360000000  0.4887760000000 1.0
C      1  0.4694670000000  0.4933950000000  0.5173110000000 1.0
C      1  0.3940840000000  0.4556970000000  0.5043380000000 1.0
C      1  0.6022790000000  0.4687560000000  0.4934700000000 1.0
C      1  0.4221450000000  0.4553310000000  0.5156010000000 1.0
C      1  0.5768270000000  0.4700560000000  0.4726600000000 1.0
C      1  0.4637780000000  0.4744640000000  0.4970200000000 1.0
C      1  0.5284780000000  0.4840910000000  0.4962040000000 1.0
C      1  0.5030330000000  0.5907110000000  0.5146060000000 1.0
C      1  0.6106800000000  0.6212670000000  0.4493660000000 1.0
C      1  0.4944540000000  0.3872680000000  0.5042840000000 1.0
C      1  0.5203780000000  0.3926860000000  0.5007630000000 1.0
C      1  0.5504360000000  0.5186180000000  0.4373280000000 1.0
C      1  0.4363090000000  0.5206060000000  0.5652490000000 1.0
C      1  0.5972720000000  0.4397560000000  0.5291840000000 1.0
C      1  0.4093740000000  0.4293630000000  0.4701010000000 1.0
C      1  0.4602580000000  0.3936130000000  0.4724110000000 1.0
C      1  0.5462140000000  0.3950340000000  0.5403990000000 1.0
C      1  0.4915290000000  0.5165760000000  0.4479700000000 1.0
C      1  0.5185230000000  0.5204590000000  0.5626910000000 1.0
C      1  0.4861160000000  0.4521970000000  0.5798880000000 1.0
C      1  0.5107540000000  0.4551790000000  0.4119420000000 1.0
C      1  0.5640950000000  0.4556170000000  0.4296690000000 1.0
C      1  0.4341110000000  0.4526120000000  0.5623080000000 1.0
C      1  0.4010570000000  0.4084840000000  0.5131830000000 1.0
C      1  0.6023000000000  0.4220580000000  0.4857610000000 1.0
C      1  0.4509190000000  0.4814200000000  0.5962590000000 1.0
C      1  0.5448070000000  0.4874420000000  0.3978080000000 1.0
C      1  0.5137290000000  0.4473730000000  0.5291730000000 1.0
C      1  0.4907740000000  0.4550890000000  0.4626150000000 1.0
C      1  0.6103730000000  0.4943200000000  0.5035570000000 1.0
C      1  0.3871070000000  0.4817430000000  0.4935060000000 1.0
C      1  0.5260240000000  0.4969880000000  0.3785180000000 1.0
C      1  0.4670650000000  0.4868190000000  0.6191720000000 1.0
C      1  0.5396710000000  0.5292400000000  0.4858000000000 1.0
C      1  0.4542260000000  0.5174740000000  0.5172540000000 1.0
C      1  0.5089560000000  0.4988640000000  0.4345350000000 1.0
C      1  0.4978480000000  0.5040130000000  0.5536750000000 1.0
C      1  0.5801930000000  0.4720560000000  0.5861160000000 1.0
C      1  0.4115860000000  0.4722510000000  0.4056390000000 1.0
C      1  0.6248100000000  0.5575420000000  0.5179540000000 1.0
C      1  0.3794340000000  0.5514580000000  0.4935710000000 1.0
C      1  0.5100030000000  0.6059180000000  0.4266470000000 1.0
C      1  0.4864730000000  0.6065000000000  0.5797120000000 1.0
C      1  0.5334800000000  0.5083550000000  0.5838800000000 1.0
C      1  0.4511180000000  0.5028170000000  0.4271130000000 1.0
C      1  0.4363140000000  0.4598170000000  0.4180370000000 1.0
C      1  0.5560100000000  0.4676800000000  0.5718260000000 1.0
C      1  0.3947510000000  0.4926140000000  0.4112650000000 1.0
C      1  0.5997120000000  0.4904000000000  0.5873310000000 1.0
C      1  0.4611310000000  0.4780760000000  0.4132170000000 1.0
C      1  0.5323290000000  0.4791320000000  0.5840560000000 1.0
C      1  0.5529450000000  0.5692150000000  0.5102950000000 1.0
C      1  0.4448610000000  0.5551720000000  0.4845820000000 1.0
C      1  0.4909930000000  0.5445120000000  0.4440590000000 1.0
C      1  0.5119040000000  0.5482000000000  0.5614190000000 1.0
C      1  0.4609760000000  0.5496640000000  0.4075290000000 1.0
C      1  0.5371830000000  0.5535420000000  0.6017120000000 1.0
C      1  0.5328990000000  0.5638900000000  0.4508380000000 1.0
C      1  0.4646760000000  0.5607570000000  0.5548060000000 1.0
C      1  0.4410310000000  0.4312740000000  0.4135410000000 1.0
C      1  0.5272760000000  0.3951870000000  0.6118120000000 1.0
C      1  0.5076140000000  0.5576520000000  0.4630990000000 1.0
C      1  0.4905150000000  0.5546770000000  0.5435360000000 1.0
C      1  0.5433130000000  0.5270430000000  0.6026110000000 1.0
C      1  0.4485620000000  0.5264770000000  0.4123820000000 1.0
C      1  0.4963030000000  0.5619890000000  0.5167400000000 1.0
C      1  0.4994230000000  0.5537520000000  0.4899180000000 1.0
C      1  0.5287210000000  0.4002780000000  0.5862940000000 1.0
C      1  0.4529500000000  0.4112310000000  0.4268000000000 1.0
C      1  0.6123850000000  0.5119660000000  0.5779480000000 1.0
C      1  0.3858240000000  0.5131100000000  0.4261880000000 1.0
C      1  0.5684760000000  0.4439760000000  0.5274960000000 1.0
C      1  0.4302140000000  0.4490010000000  0.4691230000000 1.0
C      1  0.4321530000000  0.5725460000000  0.5038950000000 1.0
C      1  0.5762280000000  0.5779860000000  0.4956700000000 1.0
C      1  0.5400460000000  0.5455090000000  0.4293740000000 1.0
C      1  0.4500350000000  0.5440550000000  0.5720110000000 1.0
C      1  0.4866420000000  0.4298390000000  0.4552260000000 1.0
C      1  0.5152810000000  0.4290610000000  0.5485370000000 1.0
C      1  0.3992920000000  0.4870570000000  0.5463690000000 1.0
C      1  0.5888560000000  0.4915310000000  0.4538990000000 1.0
C      1  0.4637510000000  0.6067390000000  0.5650290000000 1.0
C      1  0.5324330000000  0.6093030000000  0.4416070000000 1.0
C      1  0.4290940000000  0.4384530000000  0.5381330000000 1.0
C      1  0.5708590000000  0.4437200000000  0.4568190000000 1.0
C      1  0.5463520000000  0.5885300000000  0.4552520000000 1.0
C      1  0.4542630000000  0.5864310000000  0.5476510000000 1.0
C      1  0.5585650000000  0.4255570000000  0.5046830000000 1.0
C      1  0.4480420000000  0.3962640000000  0.5198550000000 1.0
C      1  0.5200270000000  0.5658160000000  0.5827050000000 1.0
C      1  0.4817890000000  0.5609600000000  0.4224160000000 1.0
C      1  0.5071450000000  0.4673730000000  0.5936410000000 1.0
C      1  0.4877460000000  0.4718580000000  0.4026380000000 1.0
C      1  0.5395660000000  0.4610760000000  0.4117540000000 1.0
C      1  0.4576820000000  0.4570890000000  0.5798580000000 1.0
C      1  0.4765410000000  0.6021640000000  0.5093320000000 1.0
C      1  0.5914060000000  0.6068140000000  0.4593010000000 1.0
C      1  0.3754190000000  0.5280260000000  0.4760120000000 1.0
C      1  0.6269450000000  0.5320610000000  0.5315920000000 1.0
C      1  0.5456660000000  0.4798940000000  0.4732530000000 1.0
C      1  0.4412370000000  0.4579250000000  0.4944660000000 1.0
C      1  0.5710280000000  0.5909540000000  0.4702230000000 1.0
C      1  0.4508290000000  0.5902380000000  0.5190300000000 1.0
C      1  0.4678210000000  0.4094030000000  0.4505110000000 1.0
C      1  0.5299000000000  0.4077310000000  0.5596280000000 1.0
C      1  0.4569820000000  0.4978650000000  0.6419670000000 1.0
C      1  0.5336250000000  0.5123650000000  0.3573010000000 1.0
C      1  0.4317060000000  0.4670690000000  0.4480260000000 1.0
C      1  0.5598080000000  0.4678180000000  0.5428050000000 1.0
C      1  0.5799370000000  0.4826420000000  0.4279080000000 1.0
C      1  0.4163610000000  0.4762350000000  0.5662520000000 1.0
END
