TITL C-3623282-6910-1978 9155.38686994214 125000 -1176.79199345057 0 0 193 (C1) n - 1
REM
REM in /home/nfs/bkarasulu/CARBON/AIRSS/Generating-Clusters/LCBOP/Higher-Symm/SD-CG/FIRE-CG
REM
REM
REM
REM
REM
REM ./C.cell (b20cbc046b6831c77cfcea5457e17084)
REM AIRSS Version 0.9.1 bugfix July 2018 build 013d7b7c2542+ Fri, 06 Jul 2018 19:26:36 +0100
REM compiler GCC version 9.2.1 20190827 (Red Hat 9.2.1-1)
REM options -cpp -mtune=generic -march=x86-64 -g -O0 -fpre-include=/usr/include/finclude/math-vector-fortran.h
REM seed -171841161 65247617 -795608533 -495993136 751144840 -2129064395 -1813021578 -1995286295 -1759463875 -641063826 1599428421 -2013589512 -384769675 676232187 1511245014 146784162 -164580378 181164560 560412005 -1173142059 -1372380882 2016538923 595828792 1332877725 -1323220053 -1885412909 -754484664 1541337773 1958266302 -241953911 841202766 1489322978 1848708455
REM
CELL 1.54180   50.00000   50.00000   50.00000   90.00000   90.00000   90.00000
LATT -1
SFAC C  
C      1  0.5171590000000  0.5814140000000  0.3917370000000 1.0
C      1  0.5023450000000  0.4201790000000  0.6026670000000 1.0
C      1  0.4994920000000  0.5225030000000  0.4612120000000 1.0
C      1  0.4887280000000  0.4986240000000  0.5657400000000 1.0
C      1  0.5163890000000  0.4664070000000  0.5801330000000 1.0
C      1  0.4726160000000  0.5503120000000  0.4278440000000 1.0
C      1  0.5029160000000  0.4586130000000  0.3937690000000 1.0
C      1  0.4980410000000  0.5642460000000  0.6017790000000 1.0
C      1  0.5255990000000  0.4993130000000  0.3810220000000 1.0
C      1  0.4785020000000  0.5341330000000  0.6318330000000 1.0
C      1  0.5295390000000  0.4170680000000  0.4467050000000 1.0
C      1  0.4668140000000  0.5824610000000  0.5325960000000 1.0
C      1  0.5084350000000  0.6702400000000  0.4771710000000 1.0
C      1  0.4723870000000  0.3684860000000  0.5091790000000 1.0
C      1  0.5617150000000  0.5067070000000  0.4693670000000 1.0
C      1  0.4362020000000  0.4850080000000  0.5437440000000 1.0
C      1  0.3795210000000  0.4613920000000  0.5862240000000 1.0
C      1  0.6122030000000  0.4851190000000  0.4082900000000 1.0
C      1  0.5853480000000  0.4123810000000  0.4099340000000 1.0
C      1  0.4249310000000  0.5697910000000  0.5800840000000 1.0
C      1  0.4603330000000  0.3735770000000  0.5326870000000 1.0
C      1  0.5105830000000  0.6610440000000  0.4524010000000 1.0
C      1  0.4558190000000  0.4750710000000  0.5901770000000 1.0
C      1  0.5445210000000  0.5368930000000  0.4338470000000 1.0
C      1  0.3913380000000  0.4770590000000  0.4707330000000 1.0
C      1  0.6297960000000  0.5217630000000  0.5159170000000 1.0
C      1  0.5336200000000  0.5418630000000  0.5226660000000 1.0
C      1  0.4882980000000  0.4749760000000  0.4804780000000 1.0
C      1  0.5740470000000  0.3974010000000  0.4298710000000 1.0
C      1  0.4263180000000  0.5876140000000  0.5593320000000 1.0
C      1  0.4915970000000  0.4475350000000  0.6132020000000 1.0
C      1  0.5143380000000  0.5543430000000  0.3984870000000 1.0
C      1  0.3860710000000  0.4950730000000  0.4928870000000 1.0
C      1  0.6309240000000  0.4960240000000  0.5035510000000 1.0
C      1  0.5192500000000  0.5830110000000  0.4869130000000 1.0
C      1  0.4862160000000  0.4227560000000  0.5234740000000 1.0
C      1  0.4874690000000  0.5603360000000  0.6283580000000 1.0
C      1  0.5200690000000  0.4714490000000  0.3728070000000 1.0
C      1  0.5438650000000  0.5230230000000  0.5423690000000 1.0
C      1  0.4614810000000  0.4842100000000  0.4706700000000 1.0
C      1  0.6182300000000  0.4844940000000  0.4571080000000 1.0
C      1  0.3804420000000  0.4660500000000  0.5365580000000 1.0
C      1  0.4949000000000  0.4471000000000  0.4703510000000 1.0
C      1  0.5158700000000  0.5649850000000  0.5301120000000 1.0
C      1  0.5609330000000  0.5328810000000  0.4579610000000 1.0
C      1  0.4468820000000  0.4673210000000  0.5637770000000 1.0
C      1  0.4873560000000  0.5440770000000  0.4037580000000 1.0
C      1  0.5098320000000  0.4709170000000  0.6082430000000 1.0
C      1  0.6618910000000  0.4677560000000  0.3948170000000 1.0
C      1  0.4053770000000  0.4187150000000  0.5440200000000 1.0
C      1  0.5591320000000  0.4101960000000  0.4502430000000 1.0
C      1  0.4372020000000  0.5792260000000  0.5339670000000 1.0
C      1  0.4021070000000  0.5894350000000  0.4991350000000 1.0
C      1  0.5899840000000  0.4233970000000  0.4990390000000 1.0
C      1  0.4062180000000  0.4403560000000  0.4439660000000 1.0
C      1  0.6105760000000  0.5475120000000  0.5548870000000 1.0
C      1  0.5365930000000  0.5192410000000  0.6119340000000 1.0
C      1  0.4547840000000  0.5037930000000  0.4007800000000 1.0
C      1  0.5426970000000  0.5439020000000  0.5964430000000 1.0
C      1  0.4533330000000  0.4747490000000  0.3978590000000 1.0
C      1  0.4177030000000  0.6134680000000  0.5622340000000 1.0
C      1  0.5768950000000  0.3701700000000  0.4303650000000 1.0
C      1  0.4158900000000  0.5703660000000  0.5145470000000 1.0
C      1  0.5706220000000  0.4177830000000  0.4764390000000 1.0
C      1  0.4645370000000  0.3905180000000  0.5788230000000 1.0
C      1  0.5157490000000  0.6303050000000  0.4099440000000 1.0
C      1  0.5141430000000  0.5250760000000  0.5075850000000 1.0
C      1  0.4962520000000  0.4803840000000  0.5093400000000 1.0
C      1  0.5576060000000  0.5103650000000  0.6286680000000 1.0
C      1  0.4314640000000  0.5173720000000  0.4140240000000 1.0
C      1  0.5069210000000  0.4925180000000  0.4623390000000 1.0
C      1  0.4859110000000  0.5164680000000  0.5452970000000 1.0
C      1  0.4220040000000  0.4202520000000  0.4312400000000 1.0
C      1  0.6280840000000  0.5653280000000  0.5657980000000 1.0
C      1  0.5099190000000  0.4427780000000  0.5650120000000 1.0
C      1  0.4611650000000  0.5761630000000  0.4310740000000 1.0
C      1  0.4859170000000  0.3712550000000  0.4860840000000 1.0
C      1  0.5065190000000  0.6774750000000  0.5021440000000 1.0
C      1  0.5002710000000  0.3805470000000  0.4653360000000 1.0
C      1  0.4688970000000  0.6151940000000  0.4962770000000 1.0
C      1  0.4507670000000  0.5230680000000  0.5218600000000 1.0
C      1  0.5542400000000  0.4735910000000  0.5011050000000 1.0
C      1  0.3946630000000  0.5019880000000  0.5646560000000 1.0
C      1  0.5755660000000  0.4709460000000  0.4371620000000 1.0
C      1  0.4758330000000  0.3871100000000  0.3763570000000 1.0
C      1  0.5151060000000  0.6320600000000  0.5738640000000 1.0
C      1  0.4618890000000  0.4998260000000  0.4468350000000 1.0
C      1  0.5381670000000  0.5002610000000  0.5560550000000 1.0
C      1  0.3937470000000  0.4841300000000  0.4424050000000 1.0
C      1  0.5904570000000  0.5054330000000  0.5661730000000 1.0
C      1  0.3811650000000  0.4773420000000  0.5631850000000 1.0
C      1  0.6023580000000  0.4793150000000  0.4343990000000 1.0
C      1  0.4528500000000  0.5993140000000  0.4460670000000 1.0
C      1  0.5234710000000  0.4225740000000  0.5809680000000 1.0
C      1  0.5873110000000  0.4361860000000  0.5278460000000 1.0
C      1  0.3970160000000  0.6050140000000  0.4781690000000 1.0
C      1  0.4062720000000  0.6148260000000  0.4550970000000 1.0
C      1  0.5669180000000  0.4210830000000  0.5456670000000 1.0
C      1  0.4882340000000  0.5638510000000  0.5408980000000 1.0
C      1  0.5164560000000  0.4432270000000  0.4509910000000 1.0
C      1  0.6214520000000  0.4732790000000  0.5176660000000 1.0
C      1  0.3953470000000  0.5237470000000  0.4895430000000 1.0
C      1  0.4614800000000  0.4451960000000  0.5554750000000 1.0
C      1  0.5595440000000  0.5550430000000  0.4775280000000 1.0
C      1  0.5187420000000  0.5374330000000  0.4453660000000 1.0
C      1  0.4717330000000  0.4978430000000  0.5888970000000 1.0
C      1  0.5601550000000  0.5756340000000  0.5664700000000 1.0
C      1  0.4379970000000  0.4312040000000  0.4102500000000 1.0
C      1  0.5091810000000  0.4765580000000  0.4163870000000 1.0
C      1  0.4863090000000  0.5424640000000  0.5861110000000 1.0
C      1  0.4836240000000  0.5420720000000  0.5577040000000 1.0
C      1  0.5230800000000  0.4731500000000  0.4428670000000 1.0
C      1  0.4787420000000  0.6074120000000  0.5224840000000 1.0
C      1  0.5098850000000  0.3958680000000  0.4434840000000 1.0
C      1  0.5514570000000  0.4205010000000  0.5712520000000 1.0
C      1  0.4290350000000  0.6131640000000  0.4409890000000 1.0
C      1  0.4968460000000  0.5664010000000  0.4808030000000 1.0
C      1  0.5084400000000  0.4120400000000  0.5115090000000 1.0
C      1  0.6373860000000  0.4933120000000  0.4758320000000 1.0
C      1  0.3711470000000  0.4835950000000  0.5151360000000 1.0
C      1  0.4523210000000  0.5488360000000  0.4827810000000 1.0
C      1  0.5540890000000  0.4785340000000  0.5472290000000 1.0
C      1  0.4738570000000  0.5260950000000  0.4449670000000 1.0
C      1  0.5150300000000  0.4905200000000  0.5673370000000 1.0
C      1  0.5053210000000  0.5015690000000  0.4026070000000 1.0
C      1  0.4847950000000  0.5176610000000  0.6071730000000 1.0
C      1  0.6861940000000  0.4597070000000  0.3899030000000 1.0
C      1  0.4246930000000  0.4015650000000  0.5515750000000 1.0
C      1  0.4081080000000  0.4649040000000  0.4265010000000 1.0
C      1  0.5898090000000  0.5340920000000  0.5702300000000 1.0
C      1  0.4378070000000  0.4267150000000  0.4998200000000 1.0
C      1  0.5628790000000  0.5498510000000  0.5051910000000 1.0
C      1  0.5246410000000  0.5681100000000  0.5937100000000 1.0
C      1  0.4747970000000  0.4538300000000  0.3927020000000 1.0
C      1  0.3906980000000  0.4396060000000  0.5353580000000 1.0
C      1  0.6373390000000  0.4760630000000  0.4003020000000 1.0
C      1  0.5389840000000  0.5388130000000  0.4050630000000 1.0
C      1  0.4629820000000  0.4545420000000  0.6098360000000 1.0
C      1  0.3922150000000  0.4482120000000  0.6056830000000 1.0
C      1  0.5960100000000  0.4998460000000  0.3907960000000 1.0
C      1  0.4109190000000  0.5275710000000  0.4638710000000 1.0
C      1  0.5982610000000  0.4640710000000  0.5316010000000 1.0
C      1  0.4367700000000  0.5267150000000  0.4748420000000 1.0
C      1  0.5821160000000  0.4878120000000  0.5425550000000 1.0
C      1  0.5205040000000  0.5890150000000  0.5147370000000 1.0
C      1  0.4623750000000  0.4234680000000  0.5088570000000 1.0
C      1  0.5144870000000  0.4627380000000  0.5214830000000 1.0
C      1  0.4967140000000  0.5366040000000  0.4877190000000 1.0
C      1  0.5650200000000  0.4986260000000  0.4961870000000 1.0
C      1  0.4470400000000  0.4938550000000  0.5171860000000 1.0
C      1  0.4870330000000  0.4361190000000  0.5485360000000 1.0
C      1  0.5432660000000  0.5779270000000  0.4727480000000 1.0
C      1  0.5466350000000  0.5177690000000  0.3865650000000 1.0
C      1  0.4408610000000  0.4417740000000  0.6215860000000 1.0
C      1  0.4142630000000  0.4405640000000  0.6186800000000 1.0
C      1  0.5734570000000  0.5113030000000  0.3826410000000 1.0
C      1  0.4149920000000  0.4366640000000  0.4909110000000 1.0
C      1  0.5848860000000  0.5366080000000  0.5165040000000 1.0
C      1  0.5517260000000  0.4755570000000  0.4533820000000 1.0
C      1  0.4179120000000  0.5073630000000  0.5504150000000 1.0
C      1  0.4438480000000  0.4943080000000  0.4890060000000 1.0
C      1  0.5754710000000  0.5097300000000  0.5208440000000 1.0
C      1  0.6627890000000  0.4991790000000  0.4673620000000 1.0
C      1  0.3442140000000  0.4899690000000  0.5158430000000 1.0
C      1  0.4143880000000  0.5253360000000  0.4346860000000 1.0
C      1  0.5778540000000  0.5015940000000  0.6425260000000 1.0
C      1  0.5419730000000  0.4663430000000  0.5249140000000 1.0
C      1  0.4683370000000  0.5357730000000  0.5032960000000 1.0
C      1  0.4622830000000  0.5991040000000  0.4734480000000 1.0
C      1  0.5523450000000  0.4044930000000  0.5268790000000 1.0
C      1  0.4241550000000  0.5288820000000  0.5326150000000 1.0
C      1  0.5497480000000  0.4578950000000  0.4792330000000 1.0
C      1  0.4006910000000  0.4491540000000  0.4708170000000 1.0
C      1  0.6108310000000  0.5398370000000  0.5271850000000 1.0
C      1  0.5471720000000  0.4308280000000  0.4872360000000 1.0
C      1  0.4071180000000  0.5418450000000  0.5130490000000 1.0
C      1  0.4300880000000  0.4602320000000  0.4083480000000 1.0
C      1  0.5667850000000  0.5494360000000  0.5790570000000 1.0
C      1  0.4493580000000  0.3876750000000  0.5548670000000 1.0
C      1  0.5131890000000  0.6481330000000  0.4293990000000 1.0
C      1  0.4686400000000  0.5719310000000  0.4776680000000 1.0
C      1  0.5352580000000  0.4147840000000  0.5070600000000 1.0
C      1  0.5337280000000  0.5868630000000  0.5724550000000 1.0
C      1  0.4640800000000  0.4276520000000  0.3994780000000 1.0
C      1  0.5173850000000  0.6075050000000  0.3964980000000 1.0
C      1  0.4823820000000  0.4002640000000  0.5965730000000 1.0
C      1  0.4816080000000  0.5163060000000  0.3982920000000 1.0
C      1  0.5118920000000  0.5020600000000  0.6130320000000 1.0
C      1  0.5075020000000  0.6088720000000  0.5314550000000 1.0
C      1  0.4953400000000  0.3957790000000  0.4193710000000 1.0
C      1  0.5188270000000  0.6089440000000  0.5590910000000 1.0
C      1  0.4784050000000  0.4033460000000  0.3982490000000 1.0
C      1  0.4976050000000  0.5064950000000  0.5211480000000 1.0
END
