TITL C-3623287-7182-741 0.000421551229888503 125000 -372.134531376311 0 0 62 (C1) n - 1
REM
REM in /home/nfs/bkarasulu/CARBON/AIRSS/Generating-Clusters/LCBOP/Higher-Symm/SD-CG/FIRE-CG
REM
REM
REM
REM
REM
REM ./C.cell (b20cbc046b6831c77cfcea5457e17084)
REM AIRSS Version 0.9.1 bugfix July 2018 build 013d7b7c2542+ Fri, 06 Jul 2018 19:26:36 +0100
REM compiler GCC version 9.2.1 20190827 (Red Hat 9.2.1-1)
REM options -cpp -mtune=generic -march=x86-64 -g -O0 -fpre-include=/usr/include/finclude/math-vector-fortran.h
REM seed -189768746 2103464721 -133336371 503588828 1459375946 1189483589 1509389483 -726538069 -2076216568 1120722341 723021151 -2063146358 267346353 -269266965 430708567 -831980447 -596821842 -530818743 552096601 1941367903 330649917 1948243043 1296881831 345012002 -768581428 -1945726875 583381744 753080168 -2001912304 1967418388 2122943435 -294533366 -1686244959
REM
CELL 1.54180   50.00000   50.00000   50.00000   90.00000   90.00000   90.00000
LATT -1
SFAC C  
C      1  0.5055980000000  0.4524250000000  0.5584170000000 1.0
C      1  0.4833320000000  0.5631060000000  0.5580920000000 1.0
C      1  0.4732900000000  0.5355190000000  0.4518000000000 1.0
C      1  0.4772220000000  0.4735550000000  0.4508450000000 1.0
C      1  0.5026580000000  0.4960290000000  0.5830870000000 1.0
C      1  0.4967420000000  0.5222380000000  0.5826570000000 1.0
C      1  0.4918830000000  0.5337620000000  0.4732230000000 1.0
C      1  0.4991570000000  0.4815140000000  0.4722620000000 1.0
C      1  0.5987630000000  0.4881520000000  0.5753860000000 1.0
C      1  0.6317310000000  0.4614570000000  0.5218260000000 1.0
C      1  0.4760810000000  0.5183760000000  0.4295070000000 1.0
C      1  0.4807570000000  0.4916600000000  0.4273500000000 1.0
C      1  0.6131840000000  0.4619680000000  0.5026390000000 1.0
C      1  0.5740700000000  0.4939790000000  0.5672350000000 1.0
C      1  0.4734250000000  0.4782410000000  0.5178170000000 1.0
C      1  0.4626740000000  0.5260350000000  0.5158040000000 1.0
C      1  0.4217070000000  0.4793450000000  0.5672170000000 1.0
C      1  0.4158220000000  0.5057440000000  0.5660790000000 1.0
C      1  0.4316270000000  0.5213400000000  0.4759730000000 1.0
C      1  0.4442340000000  0.4628870000000  0.4819340000000 1.0
C      1  0.4341830000000  0.5231540000000  0.5566280000000 1.0
C      1  0.4458550000000  0.4706150000000  0.5588540000000 1.0
C      1  0.4809770000000  0.5356050000000  0.5635610000000 1.0
C      1  0.4935090000000  0.4771950000000  0.5643680000000 1.0
C      1  0.5211030000000  0.4976830000000  0.4616360000000 1.0
C      1  0.5176000000000  0.5260670000000  0.4638800000000 1.0
C      1  0.5464350000000  0.4895960000000  0.5220060000000 1.0
C      1  0.5644410000000  0.4783860000000  0.5036550000000 1.0
C      1  0.5106090000000  0.5227730000000  0.5154670000000 1.0
C      1  0.5199700000000  0.4962570000000  0.5144450000000 1.0
C      1  0.4775220000000  0.4428150000000  0.4547600000000 1.0
C      1  0.4551630000000  0.5571450000000  0.4542380000000 1.0
C      1  0.5255630000000  0.4378780000000  0.4393640000000 1.0
C      1  0.4953960000000  0.5839730000000  0.4437250000000 1.0
C      1  0.6225020000000  0.4781910000000  0.5683410000000 1.0
C      1  0.6355710000000  0.4677310000000  0.5475140000000 1.0
C      1  0.5530880000000  0.5337210000000  0.4332540000000 1.0
C      1  0.5575830000000  0.5069080000000  0.4321550000000 1.0
C      1  0.5120580000000  0.4393690000000  0.5357430000000 1.0
C      1  0.4871120000000  0.5771080000000  0.5354540000000 1.0
C      1  0.4686300000000  0.5814020000000  0.4482610000000 1.0
C      1  0.5006270000000  0.4299760000000  0.4455200000000 1.0
C      1  0.4698830000000  0.4859700000000  0.5473570000000 1.0
C      1  0.4627000000000  0.5183090000000  0.5462620000000 1.0
C      1  0.4495800000000  0.4821090000000  0.5023780000000 1.0
C      1  0.4441300000000  0.5108590000000  0.4996400000000 1.0
C      1  0.5415550000000  0.4870820000000  0.4445600000000 1.0
C      1  0.5315120000000  0.5452640000000  0.4474620000000 1.0
C      1  0.5880800000000  0.4684810000000  0.4965180000000 1.0
C      1  0.5556370000000  0.4944680000000  0.5480550000000 1.0
C      1  0.4878300000000  0.5384700000000  0.5029220000000 1.0
C      1  0.5004570000000  0.4756790000000  0.5028190000000 1.0
C      1  0.4520190000000  0.4137350000000  0.4867620000000 1.0
C      1  0.4111020000000  0.5661390000000  0.4742430000000 1.0
C      1  0.4316220000000  0.5492110000000  0.4683530000000 1.0
C      1  0.4574200000000  0.4378500000000  0.4754470000000 1.0
C      1  0.4308140000000  0.5016300000000  0.4553750000000 1.0
C      1  0.4470440000000  0.4787900000000  0.4573210000000 1.0
C      1  0.5099920000000  0.4481010000000  0.5101600000000 1.0
C      1  0.4892810000000  0.5671350000000  0.5104500000000 1.0
C      1  0.5412020000000  0.4596510000000  0.4388220000000 1.0
C      1  0.5186840000000  0.5701880000000  0.4431140000000 1.0
END
