TITL C-3623283-6828-1385 -5.40364892244586e-07 125000 -366.282330399901 0 0 61 (C1) n - 1
REM
REM in /home/nfs/bkarasulu/CARBON/AIRSS/Generating-Clusters/LCBOP/Higher-Symm/SD-CG/FIRE-CG
REM
REM
REM
REM
REM
REM ./C.cell (b20cbc046b6831c77cfcea5457e17084)
REM AIRSS Version 0.9.1 bugfix July 2018 build 013d7b7c2542+ Fri, 06 Jul 2018 19:26:36 +0100
REM compiler GCC version 9.2.1 20190827 (Red Hat 9.2.1-1)
REM options -cpp -mtune=generic -march=x86-64 -g -O0 -fpre-include=/usr/include/finclude/math-vector-fortran.h
REM seed 269024000 84839847 1784649609 1988466589 -644041024 276483608 -942502810 612915227 1017098541 636926850 2064282829 1642626609 -1271313553 2107842964 -1807498233 1111461759 1421031647 565157390 752332947 1271873943 1316166861 -1077008072 -1163996312 1894597042 -1250889920 -825144185 -810354988 1131444651 383860798 1642624244 -1278589966 564289926 -728613475
REM
CELL 1.54180   50.00000   50.00000   50.00000   90.00000   90.00000   90.00000
LATT -1
SFAC C  
C      1  0.4593030000000  0.5231980000000  0.4377850000000 1.0
C      1  0.5387110000000  0.5328470000000  0.5566970000000 1.0
C      1  0.4859380000000  0.4832460000000  0.4377770000000 1.0
C      1  0.5163010000000  0.4908780000000  0.5599470000000 1.0
C      1  0.5123280000000  0.5239120000000  0.4262620000000 1.0
C      1  0.4867000000000  0.5303500000000  0.5695710000000 1.0
C      1  0.5347840000000  0.4837240000000  0.4469540000000 1.0
C      1  0.4673270000000  0.4872390000000  0.5536340000000 1.0
C      1  0.4339580000000  0.4866680000000  0.5133650000000 1.0
C      1  0.5702380000000  0.4750270000000  0.4829560000000 1.0
C      1  0.4264140000000  0.5153870000000  0.5512820000000 1.0
C      1  0.5674860000000  0.5188390000000  0.4662530000000 1.0
C      1  0.5882900000000  0.4566860000000  0.5230030000000 1.0
C      1  0.4401470000000  0.4881570000000  0.4644430000000 1.0
C      1  0.5607840000000  0.5002530000000  0.5288220000000 1.0
C      1  0.4178570000000  0.5279000000000  0.4915100000000 1.0
C      1  0.4074010000000  0.5398080000000  0.5133780000000 1.0
C      1  0.5717340000000  0.5237630000000  0.5159280000000 1.0
C      1  0.4287160000000  0.4625900000000  0.4729460000000 1.0
C      1  0.5994150000000  0.4432770000000  0.5014590000000 1.0
C      1  0.5751770000000  0.5301450000000  0.4897590000000 1.0
C      1  0.4112030000000  0.5343520000000  0.5395450000000 1.0
C      1  0.5893410000000  0.4534800000000  0.4777400000000 1.0
C      1  0.4253400000000  0.4616980000000  0.5007660000000 1.0
C      1  0.4808280000000  0.4633020000000  0.5448080000000 1.0
C      1  0.5221510000000  0.4593240000000  0.4565950000000 1.0
C      1  0.4931470000000  0.5463010000000  0.5473860000000 1.0
C      1  0.5033400000000  0.5412740000000  0.4464150000000 1.0
C      1  0.5093230000000  0.4651230000000  0.5493660000000 1.0
C      1  0.4937890000000  0.4593350000000  0.4515790000000 1.0
C      1  0.5208230000000  0.5478960000000  0.5408820000000 1.0
C      1  0.4755690000000  0.5406650000000  0.4527180000000 1.0
C      1  0.5364400000000  0.4275630000000  0.4947930000000 1.0
C      1  0.4674590000000  0.4274520000000  0.5104630000000 1.0
C      1  0.5329240000000  0.5706570000000  0.4734680000000 1.0
C      1  0.4609490000000  0.5692750000000  0.5174100000000 1.0
C      1  0.4702960000000  0.4266610000000  0.4830700000000 1.0
C      1  0.5344830000000  0.4301300000000  0.5221280000000 1.0
C      1  0.4575620000000  0.5686590000000  0.4901480000000 1.0
C      1  0.5363100000000  0.5733060000000  0.5005960000000 1.0
C      1  0.4684590000000  0.5441830000000  0.4796480000000 1.0
C      1  0.5273690000000  0.5493130000000  0.5136770000000 1.0
C      1  0.4783560000000  0.4525300000000  0.4736640000000 1.0
C      1  0.5251520000000  0.4564570000000  0.5283900000000 1.0
C      1  0.5209290000000  0.5451420000000  0.4678430000000 1.0
C      1  0.4750680000000  0.5456800000000  0.5258830000000 1.0
C      1  0.5291200000000  0.4523740000000  0.4825610000000 1.0
C      1  0.4732880000000  0.4539070000000  0.5197830000000 1.0
C      1  0.5206410000000  0.5286970000000  0.4928170000000 1.0
C      1  0.4789800000000  0.4715400000000  0.4965050000000 1.0
C      1  0.5229560000000  0.4725000000000  0.5036050000000 1.0
C      1  0.4769650000000  0.5268240000000  0.5027280000000 1.0
C      1  0.4426330000000  0.4948920000000  0.5401580000000 1.0
C      1  0.5579870000000  0.4922580000000  0.4629000000000 1.0
C      1  0.4598880000000  0.4954990000000  0.4441830000000 1.0
C      1  0.5407440000000  0.5048570000000  0.5506740000000 1.0
C      1  0.5698850000000  0.4774630000000  0.5138870000000 1.0
C      1  0.4338420000000  0.5047480000000  0.4889760000000 1.0
C      1  0.4893140000000  0.5026640000000  0.5662890000000 1.0
C      1  0.5123660000000  0.4965100000000  0.4320560000000 1.0
C      1  0.5001640000000  0.5002210000000  0.4988750000000 1.0
END
