TITL C-3623284-6838-895 -1.02131872394861e-07 125000 -88.0689778247383 0 0 16 (C3v) n - 1
REM
REM in /home/nfs/bkarasulu/CARBON/AIRSS/Generating-Clusters/LCBOP/Higher-Symm/SD-CG/FIRE-CG
REM
REM
REM
REM
REM
REM ./C.cell (b20cbc046b6831c77cfcea5457e17084)
REM AIRSS Version 0.9.1 bugfix July 2018 build 013d7b7c2542+ Fri, 06 Jul 2018 19:26:36 +0100
REM compiler GCC version 9.2.1 20190827 (Red Hat 9.2.1-1)
REM options -cpp -mtune=generic -march=x86-64 -g -O0 -fpre-include=/usr/include/finclude/math-vector-fortran.h
REM seed 1396186735 -2113085456 -558768113 -581049201 -677806987 -323539610 -1368278479 40762065 703214634 -472320713 865100954 -1147285182 381940242 1882342617 -524082211 1849901552 836624578 -1973589531 -85932737 -537207620 1838048670 -2108504525 1083425269 765294482 615964322 366924881 -1183942368 683359240 648651066 429494524 -322722238 -957794321 -11103004
REM
CELL 1.54180   50.00000   50.00000   50.00000   90.00000   90.00000   90.00000
LATT -1
SFAC C  
C      1  0.5196350000000  0.4994010000000  0.5281320000000 1.0
C      1  0.5196360000000  0.4787380000000  0.4830780000000 1.0
C      1  0.5196360000000  0.5280880000000  0.4877110000000 1.0
C      1  0.5419320000000  0.5424080000000  0.4811430000000 1.0
C      1  0.5419310000000  0.4979280000000  0.5438180000000 1.0
C      1  0.5419320000000  0.4658900000000  0.4739600000000 1.0
C      1  0.4605020000000  0.4771270000000  0.5110820000000 1.0
C      1  0.4605020000000  0.5046410000000  0.4723120000000 1.0
C      1  0.4605020000000  0.5244600000000  0.5155250000000 1.0
C      1  0.4677500000000  0.4994400000000  0.5277210000000 1.0
C      1  0.4677510000000  0.4790750000000  0.4833160000000 1.0
C      1  0.4677510000000  0.5277130000000  0.4878820000000 1.0
C      1  0.4935600000000  0.4983710000000  0.5391030000000 1.0
C      1  0.4935610000000  0.4697520000000  0.4767000000000 1.0
C      1  0.4935610000000  0.5381040000000  0.4831170000000 1.0
C      1  0.5215500000000  0.5020760000000  0.4996400000000 1.0
END
