TITL C-3623287-7182-535 -8.62354961141598e-07 125000 -497.37478280942 0 0 80 (D2d) n - 1
REM
REM in /home/nfs/bkarasulu/CARBON/AIRSS/Generating-Clusters/LCBOP/Higher-Symm/SD-CG/FIRE-CG
REM
REM
REM
REM
REM
REM ./C.cell (b20cbc046b6831c77cfcea5457e17084)
REM AIRSS Version 0.9.1 bugfix July 2018 build 013d7b7c2542+ Fri, 06 Jul 2018 19:26:36 +0100
REM compiler GCC version 9.2.1 20190827 (Red Hat 9.2.1-1)
REM options -cpp -mtune=generic -march=x86-64 -g -O0 -fpre-include=/usr/include/finclude/math-vector-fortran.h
REM seed -1618105506 2111778377 -1324890076 1411772753 330424701 -1710569226 744448703 465011227 -2085326868 175592722 -1903697547 -1504066703 2005949579 792337318 1080406338 2144775346 -345450895 299739949 -1335527256 -343279548 2040743353 1860018262 249025244 -1139473242 -2009626887 -474979093 -1245368970 1849742409 1156292157 -92304041 1630831257 -2003557365 -1822460671
REM
CELL 1.54180   50.00000   50.00000   50.00000   90.00000   90.00000   90.00000
LATT -1
SFAC C  
C      1  0.4421740000000  0.4614270000000  0.5609580000000 1.0
C      1  0.5578290000000  0.5385720000000  0.5609560000000 1.0
C      1  0.5578260000000  0.4614280000000  0.4390410000000 1.0
C      1  0.4421710000000  0.5385730000000  0.4390450000000 1.0
C      1  0.4614290000000  0.4421720000000  0.5609580000000 1.0
C      1  0.5385740000000  0.5578270000000  0.5609570000000 1.0
C      1  0.4614260000000  0.5578280000000  0.4390440000000 1.0
C      1  0.5385710000000  0.4421730000000  0.4390420000000 1.0
C      1  0.4915700000000  0.4723030000000  0.6647030000000 1.0
C      1  0.5084380000000  0.5276950000000  0.6647030000000 1.0
C      1  0.5084300000000  0.4723050000000  0.3352960000000 1.0
C      1  0.4915620000000  0.5276970000000  0.3352970000000 1.0
C      1  0.4723080000000  0.4915650000000  0.6647040000000 1.0
C      1  0.5277000000000  0.5084330000000  0.6647030000000 1.0
C      1  0.4723000000000  0.5084350000000  0.3352970000000 1.0
C      1  0.5276920000000  0.4915680000000  0.3352960000000 1.0
C      1  0.4884940000000  0.5513250000000  0.4453140000000 1.0
C      1  0.5115040000000  0.4486760000000  0.4453120000000 1.0
C      1  0.5115060000000  0.5513250000000  0.5546870000000 1.0
C      1  0.4884970000000  0.4486750000000  0.5546870000000 1.0
C      1  0.5513240000000  0.4884960000000  0.4453120000000 1.0
C      1  0.4486740000000  0.5115050000000  0.4453140000000 1.0
C      1  0.5513260000000  0.5115050000000  0.5546860000000 1.0
C      1  0.4486760000000  0.4884950000000  0.5546880000000 1.0
C      1  0.5576380000000  0.4910890000000  0.5728340000000 1.0
C      1  0.4423660000000  0.5089100000000  0.5728370000000 1.0
C      1  0.4423620000000  0.4910900000000  0.4271660000000 1.0
C      1  0.5576340000000  0.5089110000000  0.4271630000000 1.0
C      1  0.4910910000000  0.5576360000000  0.5728360000000 1.0
C      1  0.5089130000000  0.4423630000000  0.5728350000000 1.0
C      1  0.4910880000000  0.4423640000000  0.4271640000000 1.0
C      1  0.5089090000000  0.5576370000000  0.4271650000000 1.0
C      1  0.4883690000000  0.5319730000000  0.6444250000000 1.0
C      1  0.5116380000000  0.4680250000000  0.6444240000000 1.0
C      1  0.5116310000000  0.5319750000000  0.3555750000000 1.0
C      1  0.4883620000000  0.4680270000000  0.3555750000000 1.0
C      1  0.5319770000000  0.4883650000000  0.6444240000000 1.0
C      1  0.4680300000000  0.5116330000000  0.6444250000000 1.0
C      1  0.5319700000000  0.5116350000000  0.3555750000000 1.0
C      1  0.4680230000000  0.4883670000000  0.3555760000000 1.0
C      1  0.4544150000000  0.5266380000000  0.3806040000000 1.0
C      1  0.5455790000000  0.4733630000000  0.3806020000000 1.0
C      1  0.5455850000000  0.5266370000000  0.6193960000000 1.0
C      1  0.4544210000000  0.4733610000000  0.6193980000000 1.0
C      1  0.5266350000000  0.4544190000000  0.3806020000000 1.0
C      1  0.4733590000000  0.5455830000000  0.3806040000000 1.0
C      1  0.5266410000000  0.5455810000000  0.6193970000000 1.0
C      1  0.4733650000000  0.4544170000000  0.6193970000000 1.0
C      1  0.4445130000000  0.5150500000000  0.5988930000000 1.0
C      1  0.5554920000000  0.4849490000000  0.5988900000000 1.0
C      1  0.5554870000000  0.5150510000000  0.4011070000000 1.0
C      1  0.4445080000000  0.4849500000000  0.4011100000000 1.0
C      1  0.5150530000000  0.4445100000000  0.5988910000000 1.0
C      1  0.4849520000000  0.5554890000000  0.5988920000000 1.0
C      1  0.5150480000000  0.5554900000000  0.4011080000000 1.0
C      1  0.4849470000000  0.4445110000000  0.4011080000000 1.0
C      1  0.5302690000000  0.5094600000000  0.5357050000000 1.0
C      1  0.4697330000000  0.4905390000000  0.5357060000000 1.0
C      1  0.4697310000000  0.5094610000000  0.4642950000000 1.0
C      1  0.5302670000000  0.4905400000000  0.4642940000000 1.0
C      1  0.5094610000000  0.5302680000000  0.5357060000000 1.0
C      1  0.4905400000000  0.4697320000000  0.5357060000000 1.0
C      1  0.5094600000000  0.4697320000000  0.4642940000000 1.0
C      1  0.4905380000000  0.5302680000000  0.4642950000000 1.0
C      1  0.4982950000000  0.4537120000000  0.3782430000000 1.0
C      1  0.5016990000000  0.5462900000000  0.3782440000000 1.0
C      1  0.5017050000000  0.4537100000000  0.6217560000000 1.0
C      1  0.4983010000000  0.5462880000000  0.6217570000000 1.0
C      1  0.4537080000000  0.4982990000000  0.3782450000000 1.0
C      1  0.5462860000000  0.5017030000000  0.3782420000000 1.0
C      1  0.4537140000000  0.5017010000000  0.6217580000000 1.0
C      1  0.5462920000000  0.4982970000000  0.6217550000000 1.0
C      1  0.5281230000000  0.5073960000000  0.4872010000000 1.0
C      1  0.4718770000000  0.4926040000000  0.4872020000000 1.0
C      1  0.4718770000000  0.5073960000000  0.5127990000000 1.0
C      1  0.5281230000000  0.4926040000000  0.5127970000000 1.0
C      1  0.5073960000000  0.5281230000000  0.4872020000000 1.0
C      1  0.4926040000000  0.4718770000000  0.4872020000000 1.0
C      1  0.5073970000000  0.4718770000000  0.5127980000000 1.0
C      1  0.4926040000000  0.5281230000000  0.5127990000000 1.0
END
