TITL C-3623289-7120-756 -1.6443606016298e-05 125000 -267.444128338057 0 0 44 (C1) n - 1
REM
REM in /home/nfs/bkarasulu/CARBON/AIRSS/Generating-Clusters/LCBOP/Higher-Symm/SD-CG/FIRE-CG
REM
REM
REM
REM
REM
REM ./C.cell (b20cbc046b6831c77cfcea5457e17084)
REM AIRSS Version 0.9.1 bugfix July 2018 build 013d7b7c2542+ Fri, 06 Jul 2018 19:26:36 +0100
REM compiler GCC version 9.2.1 20190827 (Red Hat 9.2.1-1)
REM options -cpp -mtune=generic -march=x86-64 -g -O0 -fpre-include=/usr/include/finclude/math-vector-fortran.h
REM seed -90300171 -1972956762 259133682 2110901525 764413617 -1842694454 -138926292 221187231 -1209234389 -1346744456 -1099072133 1240926983 1853239102 -187480490 -2027006742 -1135134835 1415065865 297217124 -1097343778 -1763302109 -1952731786 1055013031 -1984667031 -699823060 380323869 1962174863 -2068187849 -187960404 -152728493 -1148638619 -75822433 -1475990578 -1911911334
REM
CELL 1.54180   50.00000   50.00000   50.00000   90.00000   90.00000   90.00000
LATT -1
SFAC C  
C      1  0.5277460000000  0.4520100000000  0.5744550000000 1.0
C      1  0.5321970000000  0.4928190000000  0.4338050000000 1.0
C      1  0.5362600000000  0.5496970000000  0.5046570000000 1.0
C      1  0.4639790000000  0.4552890000000  0.5609710000000 1.0
C      1  0.4686680000000  0.4800410000000  0.4322710000000 1.0
C      1  0.4750790000000  0.5609330000000  0.5231770000000 1.0
C      1  0.5294970000000  0.4647940000000  0.4298430000000 1.0
C      1  0.5227650000000  0.4724030000000  0.5558380000000 1.0
C      1  0.5230460000000  0.5644760000000  0.4843520000000 1.0
C      1  0.4686470000000  0.4636320000000  0.4556770000000 1.0
C      1  0.4596470000000  0.4780770000000  0.5453200000000 1.0
C      1  0.4594640000000  0.5609620000000  0.4987480000000 1.0
C      1  0.5641740000000  0.5482880000000  0.5042550000000 1.0
C      1  0.5531410000000  0.4469180000000  0.5845480000000 1.0
C      1  0.5569330000000  0.5055370000000  0.4328500000000 1.0
C      1  0.4177960000000  0.5321250000000  0.4932300000000 1.0
C      1  0.4155730000000  0.4966490000000  0.5253200000000 1.0
C      1  0.4277620000000  0.4849000000000  0.4808960000000 1.0
C      1  0.5842880000000  0.5409140000000  0.4883410000000 1.0
C      1  0.5781270000000  0.5171430000000  0.4439330000000 1.0
C      1  0.5769780000000  0.4421880000000  0.5939630000000 1.0
C      1  0.4322240000000  0.5545180000000  0.4968000000000 1.0
C      1  0.4463190000000  0.4676200000000  0.4722480000000 1.0
C      1  0.4333920000000  0.4874360000000  0.5428520000000 1.0
C      1  0.5124800000000  0.4471440000000  0.4414480000000 1.0
C      1  0.4994860000000  0.5634990000000  0.4712090000000 1.0
C      1  0.5091690000000  0.4869410000000  0.5365490000000 1.0
C      1  0.4948090000000  0.4532200000000  0.4630260000000 1.0
C      1  0.4764410000000  0.5487450000000  0.4785640000000 1.0
C      1  0.4807340000000  0.4913540000000  0.5316750000000 1.0
C      1  0.5052130000000  0.4370950000000  0.5821560000000 1.0
C      1  0.5202890000000  0.5313450000000  0.5196180000000 1.0
C      1  0.5083060000000  0.5057290000000  0.4434770000000 1.0
C      1  0.4793430000000  0.4392710000000  0.5756800000000 1.0
C      1  0.4922240000000  0.5381420000000  0.5260190000000 1.0
C      1  0.4850220000000  0.5011630000000  0.4278790000000 1.0
C      1  0.5037070000000  0.5081600000000  0.4716760000000 1.0
C      1  0.4811140000000  0.5205930000000  0.4845360000000 1.0
C      1  0.5231540000000  0.5019160000000  0.5159770000000 1.0
C      1  0.4778410000000  0.5143200000000  0.5140000000000 1.0
C      1  0.5174570000000  0.4905560000000  0.4897970000000 1.0
C      1  0.5088100000000  0.4635690000000  0.4858210000000 1.0
C      1  0.4174790000000  0.5044590000000  0.4983840000000 1.0
C      1  0.5892250000000  0.5295020000000  0.4647490000000 1.0
END
