TITL C-3623285-6872-659 1.67119566982309e-07 125000 -783.943095780908 0 0 126 (C1) n - 1
REM
REM in /home/nfs/bkarasulu/CARBON/AIRSS/Generating-Clusters/LCBOP/Higher-Symm/SD-CG/FIRE-CG
REM
REM
REM
REM
REM
REM ./C.cell (b20cbc046b6831c77cfcea5457e17084)
REM AIRSS Version 0.9.1 bugfix July 2018 build 013d7b7c2542+ Fri, 06 Jul 2018 19:26:36 +0100
REM compiler GCC version 9.2.1 20190827 (Red Hat 9.2.1-1)
REM options -cpp -mtune=generic -march=x86-64 -g -O0 -fpre-include=/usr/include/finclude/math-vector-fortran.h
REM seed -654282057 -455374429 -1485194068 -846185782 -1049330093 -2146694697 269852039 627146606 -515624731 -1419303634 1557048896 -453643905 -1676234038 -464984775 -1965150432 1466045960 -1812738959 -1419705406 -1333368828 -896558598 2072531006 -1569525161 -1289543587 -46787574 815945263 1669844067 1603560457 -1631310779 1325168443 -825407633 -423585528 -1469568093 -2072393222
REM
CELL 1.54180   50.00000   50.00000   50.00000   90.00000   90.00000   90.00000
LATT -1
SFAC C  
C      1  0.4987100000000  0.4375380000000  0.4246980000000 1.0
C      1  0.4937910000000  0.4405800000000  0.5832880000000 1.0
C      1  0.5019090000000  0.5633450000000  0.4244700000000 1.0
C      1  0.4993760000000  0.5574870000000  0.5760020000000 1.0
C      1  0.4703620000000  0.5594950000000  0.5681860000000 1.0
C      1  0.5311890000000  0.5607730000000  0.4324140000000 1.0
C      1  0.5217510000000  0.4465620000000  0.5808510000000 1.0
C      1  0.4706130000000  0.4361870000000  0.4326030000000 1.0
C      1  0.5379070000000  0.4882140000000  0.4780820000000 1.0
C      1  0.4669790000000  0.4960810000000  0.5005390000000 1.0
C      1  0.4308680000000  0.5176390000000  0.4665480000000 1.0
C      1  0.5381100000000  0.5064800000000  0.5205870000000 1.0
C      1  0.5824310000000  0.5333840000000  0.4681700000000 1.0
C      1  0.4168600000000  0.5520740000000  0.5296740000000 1.0
C      1  0.4196070000000  0.4481530000000  0.4652330000000 1.0
C      1  0.5857820000000  0.4767020000000  0.5273590000000 1.0
C      1  0.4157000000000  0.5262530000000  0.4868510000000 1.0
C      1  0.5604810000000  0.5195340000000  0.5105470000000 1.0
C      1  0.5632430000000  0.4818190000000  0.4846380000000 1.0
C      1  0.4509210000000  0.4746040000000  0.4911750000000 1.0
C      1  0.6000800000000  0.5427790000000  0.5116850000000 1.0
C      1  0.4037320000000  0.5721770000000  0.4878130000000 1.0
C      1  0.4145790000000  0.4470400000000  0.5118810000000 1.0
C      1  0.6024250000000  0.4602190000000  0.4838710000000 1.0
C      1  0.4247780000000  0.4620420000000  0.4904360000000 1.0
C      1  0.5906350000000  0.4863720000000  0.4966760000000 1.0
C      1  0.5884770000000  0.5188090000000  0.4966140000000 1.0
C      1  0.4073510000000  0.5481790000000  0.5025750000000 1.0
C      1  0.4971920000000  0.5262510000000  0.5242570000000 1.0
C      1  0.4895770000000  0.5339670000000  0.4692020000000 1.0
C      1  0.4936940000000  0.4625290000000  0.5356780000000 1.0
C      1  0.4989010000000  0.4660610000000  0.4726110000000 1.0
C      1  0.4502020000000  0.5795220000000  0.5590420000000 1.0
C      1  0.5567330000000  0.5721860000000  0.4428950000000 1.0
C      1  0.5640360000000  0.4392750000000  0.5526690000000 1.0
C      1  0.4512030000000  0.4163790000000  0.4423790000000 1.0
C      1  0.5022810000000  0.6085380000000  0.4451280000000 1.0
C      1  0.5127800000000  0.6018000000000  0.5578830000000 1.0
C      1  0.5103310000000  0.3931540000000  0.4451170000000 1.0
C      1  0.5030320000000  0.3966370000000  0.5611110000000 1.0
C      1  0.5003170000000  0.4890240000000  0.4545320000000 1.0
C      1  0.4827930000000  0.4860580000000  0.5471610000000 1.0
C      1  0.4810800000000  0.5099670000000  0.4563430000000 1.0
C      1  0.5005660000000  0.5076330000000  0.5473200000000 1.0
C      1  0.4441780000000  0.5161870000000  0.5543330000000 1.0
C      1  0.5452920000000  0.5145600000000  0.4419300000000 1.0
C      1  0.5492320000000  0.4824350000000  0.5584540000000 1.0
C      1  0.4443250000000  0.4804720000000  0.4389550000000 1.0
C      1  0.4757720000000  0.4625820000000  0.5906750000000 1.0
C      1  0.5113250000000  0.4628340000000  0.4145290000000 1.0
C      1  0.5135310000000  0.5329150000000  0.5856360000000 1.0
C      1  0.4833500000000  0.5395830000000  0.4159620000000 1.0
C      1  0.4630140000000  0.5376690000000  0.5510680000000 1.0
C      1  0.5306000000000  0.5369950000000  0.4480530000000 1.0
C      1  0.5387820000000  0.4544530000000  0.5576920000000 1.0
C      1  0.4627870000000  0.4595530000000  0.4473130000000 1.0
C      1  0.5210060000000  0.4551740000000  0.5325170000000 1.0
C      1  0.4712830000000  0.4571520000000  0.4767970000000 1.0
C      1  0.4731250000000  0.5424470000000  0.5250520000000 1.0
C      1  0.5169140000000  0.5396830000000  0.4719720000000 1.0
C      1  0.4278780000000  0.5866470000000  0.4825610000000 1.0
C      1  0.5787230000000  0.5620070000000  0.5182260000000 1.0
C      1  0.5810190000000  0.4387710000000  0.4797450000000 1.0
C      1  0.4280050000000  0.4224270000000  0.5184730000000 1.0
C      1  0.4333680000000  0.4455560000000  0.5654540000000 1.0
C      1  0.5606340000000  0.4550300000000  0.4333010000000 1.0
C      1  0.5661570000000  0.5290060000000  0.5584500000000 1.0
C      1  0.4362810000000  0.5590430000000  0.4352920000000 1.0
C      1  0.5151190000000  0.6159060000000  0.4676160000000 1.0
C      1  0.5023940000000  0.6148810000000  0.5368410000000 1.0
C      1  0.5028310000000  0.3815990000000  0.4682840000000 1.0
C      1  0.5162870000000  0.3887910000000  0.5389910000000 1.0
C      1  0.5784490000000  0.4466070000000  0.5288550000000 1.0
C      1  0.4328070000000  0.4209410000000  0.4652470000000 1.0
C      1  0.4325200000000  0.5774830000000  0.5345650000000 1.0
C      1  0.5727160000000  0.5620200000000  0.4671400000000 1.0
C      1  0.4194830000000  0.5282780000000  0.5459500000000 1.0
C      1  0.5730620000000  0.5171220000000  0.4466980000000 1.0
C      1  0.5738690000000  0.4943000000000  0.5494140000000 1.0
C      1  0.4189660000000  0.4668880000000  0.4431870000000 1.0
C      1  0.5192570000000  0.4482010000000  0.4807270000000 1.0
C      1  0.4775690000000  0.4423190000000  0.5259470000000 1.0
C      1  0.4749070000000  0.5556570000000  0.4777320000000 1.0
C      1  0.5189600000000  0.5467770000000  0.5208900000000 1.0
C      1  0.5655830000000  0.5740140000000  0.4935030000000 1.0
C      1  0.4417260000000  0.5925770000000  0.5091480000000 1.0
C      1  0.4411660000000  0.4094090000000  0.4928990000000 1.0
C      1  0.5705180000000  0.4292470000000  0.5057780000000 1.0
C      1  0.5617780000000  0.4386330000000  0.4570950000000 1.0
C      1  0.4393000000000  0.4247340000000  0.5455950000000 1.0
C      1  0.4410200000000  0.5789580000000  0.4567630000000 1.0
C      1  0.5625550000000  0.5539790000000  0.5418990000000 1.0
C      1  0.4732620000000  0.5619020000000  0.5049100000000 1.0
C      1  0.5241660000000  0.5550750000000  0.4944790000000 1.0
C      1  0.5269510000000  0.4430310000000  0.5074680000000 1.0
C      1  0.4760100000000  0.4361430000000  0.4985940000000 1.0
C      1  0.5293290000000  0.5032160000000  0.5504610000000 1.0
C      1  0.4521410000000  0.5101900000000  0.4454260000000 1.0
C      1  0.4556170000000  0.4898330000000  0.5574990000000 1.0
C      1  0.5302700000000  0.4904930000000  0.4492600000000 1.0
C      1  0.4968920000000  0.3932810000000  0.4935170000000 1.0
C      1  0.5205630000000  0.3972660000000  0.5120400000000 1.0
C      1  0.5180610000000  0.6026650000000  0.4923800000000 1.0
C      1  0.4957010000000  0.6049600000000  0.5112730000000 1.0
C      1  0.4854730000000  0.4181130000000  0.5667730000000 1.0
C      1  0.5163840000000  0.4202930000000  0.4404980000000 1.0
C      1  0.5176590000000  0.5743820000000  0.5609980000000 1.0
C      1  0.4886780000000  0.5844280000000  0.4398490000000 1.0
C      1  0.4676640000000  0.4242270000000  0.5454160000000 1.0
C      1  0.5330520000000  0.4325780000000  0.4608220000000 1.0
C      1  0.5338010000000  0.5607150000000  0.5414000000000 1.0
C      1  0.4693790000000  0.5764250000000  0.4592650000000 1.0
C      1  0.4877630000000  0.4869630000000  0.6012720000000 1.0
C      1  0.4986340000000  0.4869760000000  0.4036350000000 1.0
C      1  0.4997660000000  0.5113700000000  0.5992710000000 1.0
C      1  0.4933520000000  0.5140590000000  0.4047010000000 1.0
C      1  0.5381540000000  0.5249680000000  0.5702210000000 1.0
C      1  0.4546980000000  0.5368190000000  0.4274200000000 1.0
C      1  0.4508030000000  0.4667640000000  0.5747380000000 1.0
C      1  0.5362260000000  0.4694140000000  0.4284620000000 1.0
C      1  0.4712340000000  0.4082370000000  0.4944320000000 1.0
C      1  0.5422510000000  0.4181380000000  0.5085160000000 1.0
C      1  0.5369950000000  0.5808230000000  0.4937850000000 1.0
C      1  0.4709750000000  0.5902520000000  0.5089690000000 1.0
C      1  0.5213050000000  0.4968240000000  0.4993560000000 1.0
C      1  0.4940070000000  0.5051490000000  0.5028940000000 1.0
END
