TITL C-3623288-6813-1377 8.00172539517707e-07 125000 -339.93905365495 0 0 58 (D3) n - 1
REM
REM in /home/nfs/bkarasulu/CARBON/AIRSS/Generating-Clusters/LCBOP/Higher-Symm/SD-CG/FIRE-CG
REM
REM
REM
REM
REM
REM ./C.cell (b20cbc046b6831c77cfcea5457e17084)
REM AIRSS Version 0.9.1 bugfix July 2018 build 013d7b7c2542+ Fri, 06 Jul 2018 19:26:36 +0100
REM compiler GCC version 9.2.1 20190827 (Red Hat 9.2.1-1)
REM options -cpp -mtune=generic -march=x86-64 -g -O0 -fpre-include=/usr/include/finclude/math-vector-fortran.h
REM seed 1055099535 -2134363231 776370386 -1768630589 692555653 -1754759704 -1583355045 898018634 2126166169 417451634 1204973971 1190863689 581235203 -1422490046 -534826848 1678808251 1733952783 1983941860 -644798643 -986179194 -948666083 -1403771042 83389069 1043516095 2068063342 -3223324 -1115046155 1572580814 1634071951 1575079829 -2055320405 1853044395 778956898
REM
CELL 1.54180   50.00000   50.00000   50.00000   90.00000   90.00000   90.00000
LATT -1
SFAC C  
C      1  0.4414920000000  0.4205820000000  0.4532450000000 1.0
C      1  0.4599850000000  0.5907160000000  0.4535580000000 1.0
C      1  0.5990340000000  0.4881630000000  0.4531270000000 1.0
C      1  0.4402810000000  0.5797550000000  0.5502400000000 1.0
C      1  0.4605930000000  0.4095380000000  0.5500690000000 1.0
C      1  0.5986470000000  0.5106750000000  0.5498170000000 1.0
C      1  0.5543420000000  0.4621120000000  0.4907310000000 1.0
C      1  0.4402380000000  0.4725120000000  0.4906320000000 1.0
C      1  0.5063450000000  0.5661490000000  0.4908430000000 1.0
C      1  0.5541870000000  0.5385350000000  0.5125320000000 1.0
C      1  0.4400940000000  0.5280380000000  0.5126190000000 1.0
C      1  0.5061910000000  0.4344470000000  0.5126990000000 1.0
C      1  0.5315140000000  0.5280690000000  0.4712760000000 1.0
C      1  0.5087800000000  0.4592460000000  0.4714710000000 1.0
C      1  0.4606660000000  0.5134380000000  0.4715620000000 1.0
C      1  0.5314000000000  0.4726050000000  0.5317860000000 1.0
C      1  0.5086200000000  0.5412680000000  0.5320910000000 1.0
C      1  0.4604060000000  0.4871490000000  0.5318690000000 1.0
C      1  0.5052220000000  0.4562660000000  0.5338510000000 1.0
C      1  0.4592570000000  0.5179740000000  0.5339930000000 1.0
C      1  0.5358580000000  0.5267200000000  0.5336800000000 1.0
C      1  0.5052900000000  0.5443740000000  0.4696880000000 1.0
C      1  0.4596170000000  0.4825980000000  0.4694870000000 1.0
C      1  0.5360450000000  0.4736750000000  0.4693570000000 1.0
C      1  0.4778760000000  0.5758100000000  0.4404400000000 1.0
C      1  0.5771000000000  0.4803550000000  0.4399940000000 1.0
C      1  0.4456160000000  0.4434820000000  0.4400860000000 1.0
C      1  0.4783540000000  0.4245620000000  0.5632360000000 1.0
C      1  0.5767870000000  0.5187030000000  0.5629320000000 1.0
C      1  0.4444930000000  0.5568530000000  0.5633660000000 1.0
C      1  0.4853630000000  0.5226750000000  0.4779900000000 1.0
C      1  0.5274610000000  0.5019340000000  0.4769530000000 1.0
C      1  0.4884050000000  0.4760110000000  0.4775220000000 1.0
C      1  0.4851160000000  0.4778980000000  0.5258200000000 1.0
C      1  0.5270420000000  0.4986120000000  0.5253670000000 1.0
C      1  0.4880200000000  0.5246840000000  0.5264050000000 1.0
C      1  0.4405630000000  0.4063180000000  0.4757490000000 1.0
C      1  0.4479650000000  0.5986550000000  0.4759870000000 1.0
C      1  0.6118080000000  0.4945790000000  0.4756290000000 1.0
C      1  0.4394490000000  0.5940330000000  0.5277420000000 1.0
C      1  0.4487120000000  0.4016030000000  0.5275600000000 1.0
C      1  0.6115390000000  0.5042470000000  0.5273870000000 1.0
C      1  0.4394870000000  0.5258170000000  0.4857080000000 1.0
C      1  0.5527500000000  0.5401370000000  0.4856110000000 1.0
C      1  0.5085610000000  0.4348280000000  0.4857990000000 1.0
C      1  0.4393770000000  0.4747460000000  0.5175320000000 1.0
C      1  0.5527180000000  0.4604670000000  0.5176410000000 1.0
C      1  0.5084460000000  0.5656980000000  0.5177650000000 1.0
C      1  0.5512930000000  0.4737930000000  0.4440890000000 1.0
C      1  0.4525430000000  0.4691990000000  0.4441600000000 1.0
C      1  0.4968750000000  0.5571380000000  0.4444420000000 1.0
C      1  0.5511150000000  0.5258120000000  0.5589280000000 1.0
C      1  0.4517240000000  0.5312270000000  0.5592640000000 1.0
C      1  0.4971560000000  0.4434280000000  0.5591730000000 1.0
C      1  0.4417120000000  0.5998250000000  0.5018470000000 1.0
C      1  0.4426370000000  0.4004940000000  0.5016540000000 1.0
C      1  0.6156860000000  0.4994280000000  0.5015270000000 1.0
C      1  0.5003030000000  0.5004200000000  0.5016760000000 1.0
END
