TITL C-3623288-6813-725 -7.45021305570283e-07 125000 -765.481921503818 0 0 125 (C1) n - 1
REM
REM in /home/nfs/bkarasulu/CARBON/AIRSS/Generating-Clusters/LCBOP/Higher-Symm/SD-CG/FIRE-CG
REM
REM
REM
REM
REM
REM ./C.cell (b20cbc046b6831c77cfcea5457e17084)
REM AIRSS Version 0.9.1 bugfix July 2018 build 013d7b7c2542+ Fri, 06 Jul 2018 19:26:36 +0100
REM compiler GCC version 9.2.1 20190827 (Red Hat 9.2.1-1)
REM options -cpp -mtune=generic -march=x86-64 -g -O0 -fpre-include=/usr/include/finclude/math-vector-fortran.h
REM seed 1176237188 1618850716 -1294947291 -1966732009 71146165 -1687340110 2123639854 -1589044021 -598558978 292509242 -1372684009 -516103629 -1522208604 1405713437 -1931578628 -1770776518 2062663295 -2141169050 -861462179 592851145 -875066006 741435566 1585517978 1744310415 -480796372 1061214348 -408957788 159843829 -968076577 -325856886 1503952174 1903294886 1911223780
REM
CELL 1.54180   50.00000   50.00000   50.00000   90.00000   90.00000   90.00000
LATT -1
SFAC C  
C      1  0.5068370000000  0.4904020000000  0.4158710000000 1.0
C      1  0.5423650000000  0.5428440000000  0.5137470000000 1.0
C      1  0.4506270000000  0.5515650000000  0.4356680000000 1.0
C      1  0.4601290000000  0.5023840000000  0.5231430000000 1.0
C      1  0.4810520000000  0.4378010000000  0.5357700000000 1.0
C      1  0.5040130000000  0.3984330000000  0.5183310000000 1.0
C      1  0.4995460000000  0.3896170000000  0.5454120000000 1.0
C      1  0.5705590000000  0.5086480000000  0.6057380000000 1.0
C      1  0.4401420000000  0.4605190000000  0.5742440000000 1.0
C      1  0.5740210000000  0.5344410000000  0.5616230000000 1.0
C      1  0.5274060000000  0.4950140000000  0.6196340000000 1.0
C      1  0.4898990000000  0.4224720000000  0.5136770000000 1.0
C      1  0.5462060000000  0.4390570000000  0.5516750000000 1.0
C      1  0.3914750000000  0.4918740000000  0.4964870000000 1.0
C      1  0.5109100000000  0.5372640000000  0.4108180000000 1.0
C      1  0.5349540000000  0.5653190000000  0.5631370000000 1.0
C      1  0.4414270000000  0.5782110000000  0.4367910000000 1.0
C      1  0.4087390000000  0.4564990000000  0.4515280000000 1.0
C      1  0.4144570000000  0.5150360000000  0.5303530000000 1.0
C      1  0.5543130000000  0.4959440000000  0.6234690000000 1.0
C      1  0.4196240000000  0.4910580000000  0.4180380000000 1.0
C      1  0.4873930000000  0.3837670000000  0.4568660000000 1.0
C      1  0.4646220000000  0.4449880000000  0.5839710000000 1.0
C      1  0.4441490000000  0.4895780000000  0.5793460000000 1.0
C      1  0.4567090000000  0.5341880000000  0.4855820000000 1.0
C      1  0.3973440000000  0.5471460000000  0.4654890000000 1.0
C      1  0.5435440000000  0.4842900000000  0.5376930000000 1.0
C      1  0.5233460000000  0.4100010000000  0.4480000000000 1.0
C      1  0.4866020000000  0.3986200000000  0.5679350000000 1.0
C      1  0.5255580000000  0.5240110000000  0.4549840000000 1.0
C      1  0.4617190000000  0.5392890000000  0.4585340000000 1.0
C      1  0.5607760000000  0.5857530000000  0.4688090000000 1.0
C      1  0.4724360000000  0.4172860000000  0.5822220000000 1.0
C      1  0.4860160000000  0.4637550000000  0.5759990000000 1.0
C      1  0.4831450000000  0.4739980000000  0.4505510000000 1.0
C      1  0.4389230000000  0.5340230000000  0.4169260000000 1.0
C      1  0.5616100000000  0.5608550000000  0.5246260000000 1.0
C      1  0.4506200000000  0.4932510000000  0.3966480000000 1.0
C      1  0.5218780000000  0.3922570000000  0.4961910000000 1.0
C      1  0.5150870000000  0.5071810000000  0.5975700000000 1.0
C      1  0.3984400000000  0.5282050000000  0.4444890000000 1.0
C      1  0.4998220000000  0.4547010000000  0.5520180000000 1.0
C      1  0.6306030000000  0.5120610000000  0.5307200000000 1.0
C      1  0.5692430000000  0.5335190000000  0.4183480000000 1.0
C      1  0.5125100000000  0.3918460000000  0.4691410000000 1.0
C      1  0.4180340000000  0.5879220000000  0.4461010000000 1.0
C      1  0.5379820000000  0.5068960000000  0.4787500000000 1.0
C      1  0.4407500000000  0.4095800000000  0.5263990000000 1.0
C      1  0.5013300000000  0.5984980000000  0.5529610000000 1.0
C      1  0.4809200000000  0.5938390000000  0.5364670000000 1.0
C      1  0.4720910000000  0.5197950000000  0.5045540000000 1.0
C      1  0.5993390000000  0.4799180000000  0.4756470000000 1.0
C      1  0.5517380000000  0.4824120000000  0.4672130000000 1.0
C      1  0.5251790000000  0.5531130000000  0.4600810000000 1.0
C      1  0.5843780000000  0.5672160000000  0.5092160000000 1.0
C      1  0.4437160000000  0.4514050000000  0.4152280000000 1.0
C      1  0.4210220000000  0.4646720000000  0.4274090000000 1.0
C      1  0.4523040000000  0.4324050000000  0.5385210000000 1.0
C      1  0.5166350000000  0.5365500000000  0.5271980000000 1.0
C      1  0.4349530000000  0.5489560000000  0.4972660000000 1.0
C      1  0.4337490000000  0.4308220000000  0.4835360000000 1.0
C      1  0.5834290000000  0.5176650000000  0.5399540000000 1.0
C      1  0.4890650000000  0.5136710000000  0.5883400000000 1.0
C      1  0.5103130000000  0.4728100000000  0.5015710000000 1.0
C      1  0.4339890000000  0.4525260000000  0.5467670000000 1.0
C      1  0.5638820000000  0.4224200000000  0.5074640000000 1.0
C      1  0.4606480000000  0.4640750000000  0.4614350000000 1.0
C      1  0.5792440000000  0.5851320000000  0.4882190000000 1.0
C      1  0.5964800000000  0.5294410000000  0.4145490000000 1.0
C      1  0.5327410000000  0.5199460000000  0.5781070000000 1.0
C      1  0.6375720000000  0.5533790000000  0.4665510000000 1.0
C      1  0.4536600000000  0.5206030000000  0.3967590000000 1.0
C      1  0.4336550000000  0.4946790000000  0.5255290000000 1.0
C      1  0.5047250000000  0.5661390000000  0.4752130000000 1.0
C      1  0.5134700000000  0.4997570000000  0.4952840000000 1.0
C      1  0.5538190000000  0.5188400000000  0.5017770000000 1.0
C      1  0.5016560000000  0.4402110000000  0.4114260000000 1.0
C      1  0.4292080000000  0.5138260000000  0.5751800000000 1.0
C      1  0.4164550000000  0.5177390000000  0.4257420000000 1.0
C      1  0.5286170000000  0.4610200000000  0.5477680000000 1.0
C      1  0.6330610000000  0.5530430000000  0.4402390000000 1.0
C      1  0.4126950000000  0.4497800000000  0.4789000000000 1.0
C      1  0.4898920000000  0.5393120000000  0.5741960000000 1.0
C      1  0.5614350000000  0.5593100000000  0.5529370000000 1.0
C      1  0.4849890000000  0.4344430000000  0.4891580000000 1.0
C      1  0.5713080000000  0.4433990000000  0.4901300000000 1.0
C      1  0.4439460000000  0.5646780000000  0.5197790000000 1.0
C      1  0.5083480000000  0.4624590000000  0.4566020000000 1.0
C      1  0.3988940000000  0.5179540000000  0.5066230000000 1.0
C      1  0.5903300000000  0.5729410000000  0.4252790000000 1.0
C      1  0.6073880000000  0.5260900000000  0.5268490000000 1.0
C      1  0.4311760000000  0.4091790000000  0.5011880000000 1.0
C      1  0.4731340000000  0.5597880000000  0.5801790000000 1.0
C      1  0.5000120000000  0.5209650000000  0.5088630000000 1.0
C      1  0.6069850000000  0.5494990000000  0.5099920000000 1.0
C      1  0.4823460000000  0.3977610000000  0.4332740000000 1.0
C      1  0.5054820000000  0.4526700000000  0.4829880000000 1.0
C      1  0.4081460000000  0.5398420000000  0.4906930000000 1.0
C      1  0.4860080000000  0.5750010000000  0.4926400000000 1.0
C      1  0.5347660000000  0.4681840000000  0.4494770000000 1.0
C      1  0.5036250000000  0.4167990000000  0.4269730000000 1.0
C      1  0.5239420000000  0.5909790000000  0.5679120000000 1.0
C      1  0.4759280000000  0.4972720000000  0.5452720000000 1.0
C      1  0.4231520000000  0.4683280000000  0.5251290000000 1.0
C      1  0.5481640000000  0.5677860000000  0.4510820000000 1.0
C      1  0.5636060000000  0.4270330000000  0.5352260000000 1.0
C      1  0.4058040000000  0.4668550000000  0.5011180000000 1.0
C      1  0.6276120000000  0.5529680000000  0.4912380000000 1.0
C      1  0.5347850000000  0.6077200000000  0.5865700000000 1.0
C      1  0.4220160000000  0.5307010000000  0.5528700000000 1.0
C      1  0.5148120000000  0.5156620000000  0.4281440000000 1.0
C      1  0.3979520000000  0.5745010000000  0.4581880000000 1.0
C      1  0.4596170000000  0.4407130000000  0.4774870000000 1.0
C      1  0.4746940000000  0.4922240000000  0.5745760000000 1.0
C      1  0.5639530000000  0.5601620000000  0.4289150000000 1.0
C      1  0.5744210000000  0.4688010000000  0.4779450000000 1.0
C      1  0.4692260000000  0.5788150000000  0.5157630000000 1.0
C      1  0.5489230000000  0.4000630000000  0.4991820000000 1.0
C      1  0.6116490000000  0.5529910000000  0.4224850000000 1.0
C      1  0.5608330000000  0.5211880000000  0.5824240000000 1.0
C      1  0.5169150000000  0.5405950000000  0.5592970000000 1.0
C      1  0.4631090000000  0.4689980000000  0.4027270000000 1.0
C      1  0.4330150000000  0.5560160000000  0.5449830000000 1.0
C      1  0.5626950000000  0.5028940000000  0.5253690000000 1.0
C      1  0.4916640000000  0.4667940000000  0.4071460000000 1.0
END
