TITL C-3623285-6872-1815 -4.70865083971438e-07 125000 -894.116801421716 0 0 150 (C1) n - 1
REM
REM in /home/nfs/bkarasulu/CARBON/AIRSS/Generating-Clusters/LCBOP/Higher-Symm/SD-CG/FIRE-CG
REM
REM
REM
REM
REM
REM ./C.cell (b20cbc046b6831c77cfcea5457e17084)
REM AIRSS Version 0.9.1 bugfix July 2018 build 013d7b7c2542+ Fri, 06 Jul 2018 19:26:36 +0100
REM compiler GCC version 9.2.1 20190827 (Red Hat 9.2.1-1)
REM options -cpp -mtune=generic -march=x86-64 -g -O0 -fpre-include=/usr/include/finclude/math-vector-fortran.h
REM seed 561233682 -1941663943 -472629384 -162782975 56393934 606676488 -1238023198 1799574598 -1665843544 227996647 -1618012290 -1661351305 -347119038 2026781822 -971254502 -39834902 1111458400 -142913198 -1075447130 -432445159 617638925 -6203446 -1226755836 -361150456 1012072376 -105379949 184707460 -1809534807 -1856111436 1963137021 570734162 1465289793 1395692903
REM
CELL 1.54180   50.00000   50.00000   50.00000   90.00000   90.00000   90.00000
LATT -1
SFAC C  
C      1  0.3969370000000  0.5387820000000  0.4962350000000 1.0
C      1  0.5075090000000  0.6221580000000  0.4884840000000 1.0
C      1  0.5857660000000  0.4750270000000  0.5698540000000 1.0
C      1  0.5080360000000  0.5795400000000  0.5744160000000 1.0
C      1  0.5259630000000  0.6108890000000  0.4691620000000 1.0
C      1  0.4473050000000  0.5624160000000  0.5813460000000 1.0
C      1  0.4706970000000  0.5458270000000  0.5862130000000 1.0
C      1  0.5016550000000  0.4322370000000  0.5111330000000 1.0
C      1  0.4807500000000  0.4663680000000  0.4612940000000 1.0
C      1  0.3937910000000  0.5218470000000  0.4748700000000 1.0
C      1  0.5156280000000  0.4794280000000  0.5651360000000 1.0
C      1  0.4245450000000  0.5044980000000  0.5036380000000 1.0
C      1  0.5598820000000  0.4267550000000  0.4438930000000 1.0
C      1  0.5471650000000  0.4129610000000  0.5135530000000 1.0
C      1  0.5750330000000  0.5801420000000  0.5307310000000 1.0
C      1  0.4141890000000  0.4753990000000  0.4567190000000 1.0
C      1  0.4799630000000  0.5406720000000  0.5600650000000 1.0
C      1  0.5965070000000  0.5139670000000  0.4960150000000 1.0
C      1  0.4715990000000  0.5711330000000  0.4446100000000 1.0
C      1  0.5696640000000  0.4181720000000  0.5359290000000 1.0
C      1  0.5868830000000  0.4296420000000  0.4535160000000 1.0
C      1  0.5343620000000  0.5114160000000  0.4775060000000 1.0
C      1  0.5873470000000  0.5136310000000  0.4285550000000 1.0
C      1  0.4604520000000  0.4513370000000  0.4418550000000 1.0
C      1  0.4640000000000  0.4573820000000  0.5212670000000 1.0
C      1  0.4751620000000  0.4391180000000  0.3948530000000 1.0
C      1  0.5114580000000  0.6198880000000  0.5167930000000 1.0
C      1  0.5790470000000  0.5613700000000  0.4725580000000 1.0
C      1  0.5295030000000  0.5193710000000  0.6121550000000 1.0
C      1  0.5141600000000  0.4045330000000  0.4529160000000 1.0
C      1  0.4985010000000  0.3888180000000  0.4706580000000 1.0
C      1  0.4736300000000  0.5083790000000  0.6149270000000 1.0
C      1  0.4396490000000  0.5600970000000  0.4935440000000 1.0
C      1  0.4915350000000  0.4329980000000  0.5810670000000 1.0
C      1  0.4747900000000  0.5588230000000  0.4013730000000 1.0
C      1  0.4887590000000  0.5504270000000  0.5016100000000 1.0
C      1  0.4804810000000  0.3888320000000  0.5327880000000 1.0
C      1  0.4640460000000  0.5001980000000  0.5687710000000 1.0
C      1  0.5319290000000  0.5331080000000  0.4971230000000 1.0
C      1  0.4444380000000  0.4928250000000  0.4872110000000 1.0
C      1  0.5638650000000  0.4742650000000  0.4317460000000 1.0
C      1  0.4394830000000  0.4055460000000  0.4643890000000 1.0
C      1  0.5855830000000  0.5635970000000  0.5494600000000 1.0
C      1  0.5176330000000  0.4367660000000  0.5934840000000 1.0
C      1  0.5118600000000  0.4804870000000  0.4188320000000 1.0
C      1  0.4549470000000  0.5613520000000  0.4229240000000 1.0
C      1  0.4848410000000  0.5237160000000  0.5140560000000 1.0
C      1  0.5708180000000  0.5262310000000  0.4481790000000 1.0
C      1  0.5532350000000  0.4387880000000  0.5870740000000 1.0
C      1  0.4094650000000  0.4951090000000  0.5258940000000 1.0
C      1  0.4411260000000  0.4192040000000  0.5099570000000 1.0
C      1  0.5692860000000  0.5419410000000  0.5573410000000 1.0
C      1  0.5435560000000  0.5167680000000  0.5876480000000 1.0
C      1  0.3979450000000  0.5769470000000  0.5474690000000 1.0
C      1  0.4867490000000  0.5075570000000  0.4889700000000 1.0
C      1  0.4618480000000  0.4335130000000  0.5634580000000 1.0
C      1  0.5708710000000  0.4608800000000  0.5876920000000 1.0
C      1  0.4794750000000  0.4368740000000  0.4223650000000 1.0
C      1  0.5497050000000  0.5443050000000  0.5787630000000 1.0
C      1  0.5312380000000  0.5238370000000  0.5332380000000 1.0
C      1  0.5565890000000  0.4234440000000  0.5627860000000 1.0
C      1  0.4433690000000  0.4276170000000  0.4499040000000 1.0
C      1  0.5577320000000  0.4654750000000  0.4813550000000 1.0
C      1  0.4912460000000  0.4943890000000  0.5559320000000 1.0
C      1  0.4386710000000  0.5170270000000  0.5621550000000 1.0
C      1  0.4579290000000  0.5887760000000  0.5844780000000 1.0
C      1  0.5343600000000  0.5013140000000  0.5665310000000 1.0
C      1  0.5497520000000  0.5751920000000  0.5225200000000 1.0
C      1  0.4990430000000  0.4190810000000  0.4336000000000 1.0
C      1  0.5047090000000  0.4992690000000  0.4394590000000 1.0
C      1  0.5119610000000  0.4810360000000  0.5152650000000 1.0
C      1  0.4547150000000  0.4329740000000  0.5337450000000 1.0
C      1  0.4339600000000  0.5464630000000  0.4382430000000 1.0
C      1  0.4786360000000  0.5139530000000  0.4434960000000 1.0
C      1  0.3861770000000  0.4646260000000  0.4980510000000 1.0
C      1  0.3936440000000  0.4714960000000  0.5245280000000 1.0
C      1  0.5122840000000  0.5888460000000  0.4568750000000 1.0
C      1  0.5155300000000  0.4985050000000  0.3967000000000 1.0
C      1  0.5658830000000  0.4808650000000  0.4598100000000 1.0
C      1  0.5916040000000  0.4863720000000  0.5459300000000 1.0
C      1  0.4179160000000  0.5524390000000  0.5112150000000 1.0
C      1  0.3974710000000  0.4539740000000  0.5467020000000 1.0
C      1  0.5616510000000  0.5076740000000  0.4672750000000 1.0
C      1  0.5913900000000  0.5425610000000  0.4893880000000 1.0
C      1  0.4411160000000  0.4989020000000  0.4217980000000 1.0
C      1  0.5113000000000  0.5417450000000  0.6098350000000 1.0
C      1  0.4991680000000  0.4063030000000  0.5236890000000 1.0
C      1  0.4907480000000  0.5151790000000  0.3966730000000 1.0
C      1  0.5124020000000  0.4915930000000  0.4874200000000 1.0
C      1  0.4850580000000  0.5932500000000  0.5849650000000 1.0
C      1  0.4497300000000  0.4690190000000  0.5011710000000 1.0
C      1  0.4707410000000  0.4435360000000  0.3695550000000 1.0
C      1  0.5662700000000  0.4983210000000  0.4137480000000 1.0
C      1  0.4324380000000  0.5464420000000  0.5617540000000 1.0
C      1  0.4174050000000  0.5025030000000  0.5513370000000 1.0
C      1  0.5610930000000  0.4760330000000  0.5091400000000 1.0
C      1  0.4660700000000  0.5677870000000  0.5019550000000 1.0
C      1  0.5424160000000  0.4085900000000  0.4590990000000 1.0
C      1  0.5077020000000  0.4660250000000  0.4708570000000 1.0
C      1  0.5363630000000  0.4645900000000  0.5233200000000 1.0
C      1  0.4884650000000  0.5474290000000  0.4501960000000 1.0
C      1  0.4623340000000  0.4901140000000  0.5962290000000 1.0
C      1  0.4375770000000  0.4729390000000  0.4363600000000 1.0
C      1  0.4145000000000  0.4470040000000  0.5665580000000 1.0
C      1  0.4486040000000  0.4655500000000  0.5979730000000 1.0
C      1  0.4744180000000  0.5943050000000  0.5071920000000 1.0
C      1  0.5310150000000  0.4384220000000  0.5050880000000 1.0
C      1  0.5413520000000  0.5135950000000  0.4014510000000 1.0
C      1  0.5324230000000  0.4513620000000  0.4781370000000 1.0
C      1  0.5246160000000  0.4554760000000  0.4183320000000 1.0
C      1  0.5142090000000  0.5524660000000  0.4893800000000 1.0
C      1  0.4213060000000  0.4357460000000  0.4942400000000 1.0
C      1  0.5785020000000  0.5002270000000  0.5210430000000 1.0
C      1  0.4066590000000  0.5054720000000  0.4549860000000 1.0
C      1  0.4805950000000  0.6094750000000  0.4824860000000 1.0
C      1  0.5305990000000  0.5426000000000  0.4067200000000 1.0
C      1  0.5260080000000  0.4555290000000  0.5508150000000 1.0
C      1  0.5650120000000  0.5537560000000  0.4480130000000 1.0
C      1  0.4764080000000  0.3874380000000  0.4859160000000 1.0
C      1  0.4066630000000  0.4568250000000  0.4791980000000 1.0
C      1  0.5088310000000  0.5787390000000  0.5455320000000 1.0
C      1  0.4957360000000  0.5981460000000  0.5282010000000 1.0
C      1  0.5117970000000  0.5603510000000  0.4625200000000 1.0
C      1  0.6100540000000  0.5056770000000  0.4453360000000 1.0
C      1  0.4672040000000  0.4993420000000  0.4687000000000 1.0
C      1  0.5049540000000  0.5074190000000  0.5305120000000 1.0
C      1  0.4673310000000  0.5090920000000  0.4152830000000 1.0
C      1  0.6097860000000  0.4971250000000  0.4739050000000 1.0
C      1  0.5468990000000  0.5587920000000  0.4255440000000 1.0
C      1  0.4910380000000  0.4581980000000  0.5173900000000 1.0
C      1  0.6131520000000  0.4687120000000  0.4765240000000 1.0
C      1  0.4404040000000  0.4464680000000  0.5785210000000 1.0
C      1  0.4239130000000  0.5191490000000  0.4347260000000 1.0
C      1  0.6050240000000  0.4449440000000  0.4664530000000 1.0
C      1  0.4331620000000  0.5563580000000  0.4656840000000 1.0
C      1  0.4692230000000  0.5330460000000  0.5365990000000 1.0
C      1  0.4516580000000  0.4004660000000  0.4896400000000 1.0
C      1  0.5512990000000  0.4008370000000  0.4861130000000 1.0
C      1  0.4837700000000  0.5343680000000  0.6080900000000 1.0
C      1  0.5253550000000  0.4037910000000  0.5339760000000 1.0
C      1  0.4824090000000  0.5947330000000  0.4571090000000 1.0
C      1  0.5504860000000  0.4491830000000  0.4275620000000 1.0
C      1  0.5610730000000  0.5226840000000  0.5362300000000 1.0
C      1  0.5290890000000  0.4255530000000  0.5532320000000 1.0
C      1  0.5508890000000  0.6199360000000  0.4635520000000 1.0
C      1  0.4999230000000  0.5437050000000  0.3990230000000 1.0
C      1  0.4167080000000  0.5580500000000  0.5398710000000 1.0
C      1  0.5280700000000  0.5612570000000  0.5342420000000 1.0
C      1  0.5224410000000  0.5170290000000  0.4511520000000 1.0
C      1  0.5245720000000  0.5598410000000  0.5889270000000 1.0
END
