TITL C-3623285-6872-934 265.972137325202 125000 -698.82317993283 0 0 115 (C1) n - 1
REM
REM in /home/nfs/bkarasulu/CARBON/AIRSS/Generating-Clusters/LCBOP/Higher-Symm/SD-CG/FIRE-CG
REM
REM
REM
REM
REM
REM ./C.cell (b20cbc046b6831c77cfcea5457e17084)
REM AIRSS Version 0.9.1 bugfix July 2018 build 013d7b7c2542+ Fri, 06 Jul 2018 19:26:36 +0100
REM compiler GCC version 9.2.1 20190827 (Red Hat 9.2.1-1)
REM options -cpp -mtune=generic -march=x86-64 -g -O0 -fpre-include=/usr/include/finclude/math-vector-fortran.h
REM seed -1922596928 -1803960574 -360214106 -1933657776 897426046 -1778856565 -2044506086 -149492003 -40936554 108305076 2026322290 -1448071494 -248127024 -1453659569 678638571 1182146309 923773575 1344397245 644212204 -230428296 597569169 1015267712 -898442555 -1977924571 667732725 1079689882 -330552722 1474531235 -1314973136 -680879525 139655734 -1624839664 -65408148
REM
CELL 1.54180   50.00000   50.00000   50.00000   90.00000   90.00000   90.00000
LATT -1
SFAC C  
C      1  0.4750880000000  0.5054240000000  0.5876690000000 1.0
C      1  0.4870990000000  0.4782780000000  0.5873490000000 1.0
C      1  0.5163240000000  0.4811380000000  0.5861330000000 1.0
C      1  0.5226300000000  0.5096820000000  0.5854950000000 1.0
C      1  0.4975770000000  0.5249660000000  0.5870580000000 1.0
C      1  0.4843620000000  0.4773930000000  0.4826000000000 1.0
C      1  0.5064330000000  0.4637500000000  0.5008900000000 1.0
C      1  0.5292330000000  0.5199720000000  0.4809000000000 1.0
C      1  0.5072990000000  0.5316750000000  0.4981870000000 1.0
C      1  0.4773060000000  0.5124680000000  0.4892560000000 1.0
C      1  0.5236160000000  0.6009150000000  0.5330690000000 1.0
C      1  0.4173680000000  0.5495320000000  0.5262480000000 1.0
C      1  0.4268520000000  0.4350170000000  0.5283300000000 1.0
C      1  0.5377890000000  0.4029020000000  0.5340260000000 1.0
C      1  0.5957800000000  0.5091490000000  0.5261410000000 1.0
C      1  0.4284020000000  0.3802430000000  0.4487070000000 1.0
C      1  0.5830100000000  0.3999730000000  0.4411210000000 1.0
C      1  0.6209310000000  0.5554650000000  0.4436910000000 1.0
C      1  0.4897130000000  0.6368900000000  0.4466150000000 1.0
C      1  0.3744130000000  0.5348430000000  0.4427850000000 1.0
C      1  0.4908270000000  0.4365800000000  0.5586310000000 1.0
C      1  0.5533720000000  0.4721880000000  0.5540350000000 1.0
C      1  0.5431820000000  0.5456460000000  0.5567110000000 1.0
C      1  0.4719670000000  0.5552340000000  0.5571040000000 1.0
C      1  0.4391280000000  0.4891740000000  0.5555980000000 1.0
C      1  0.5668430000000  0.5181390000000  0.5231310000000 1.0
C      1  0.5073300000000  0.5753380000000  0.5301940000000 1.0
C      1  0.4373260000000  0.5268450000000  0.5244990000000 1.0
C      1  0.4549140000000  0.4458140000000  0.5256690000000 1.0
C      1  0.5357480000000  0.4330440000000  0.5296430000000 1.0
C      1  0.4500440000000  0.5518620000000  0.4809070000000 1.0
C      1  0.4341830000000  0.4650410000000  0.4791100000000 1.0
C      1  0.5112940000000  0.4167950000000  0.4859430000000 1.0
C      1  0.5713450000000  0.4917110000000  0.4787250000000 1.0
C      1  0.5328660000000  0.5733920000000  0.4840800000000 1.0
C      1  0.4892340000000  0.4015930000000  0.4959710000000 1.0
C      1  0.5749140000000  0.4648230000000  0.4884350000000 1.0
C      1  0.5602150000000  0.5727430000000  0.4929620000000 1.0
C      1  0.4588940000000  0.5771540000000  0.4913880000000 1.0
C      1  0.4133060000000  0.4818870000000  0.4892540000000 1.0
C      1  0.6021940000000  0.5648550000000  0.4599140000000 1.0
C      1  0.4784860000000  0.6177140000000  0.4610620000000 1.0
C      1  0.3850040000000  0.5158090000000  0.4578840000000 1.0
C      1  0.4494850000000  0.3833070000000  0.4644740000000 1.0
C      1  0.5798090000000  0.4212330000000  0.4566200000000 1.0
C      1  0.5821120000000  0.5713790000000  0.4759040000000 1.0
C      1  0.4689600000000  0.5974790000000  0.4752430000000 1.0
C      1  0.3975890000000  0.4981120000000  0.4730410000000 1.0
C      1  0.4699300000000  0.3895360000000  0.4801180000000 1.0
C      1  0.5753410000000  0.4426260000000  0.4715850000000 1.0
C      1  0.4102070000000  0.4812270000000  0.5172950000000 1.0
C      1  0.4881390000000  0.4020760000000  0.5242150000000 1.0
C      1  0.5803090000000  0.4617550000000  0.5159640000000 1.0
C      1  0.5630720000000  0.5722960000000  0.5210680000000 1.0
C      1  0.4556060000000  0.5808940000000  0.5192380000000 1.0
C      1  0.5516150000000  0.5952440000000  0.5336100000000 1.0
C      1  0.4294000000000  0.5751140000000  0.5283150000000 1.0
C      1  0.4068770000000  0.4551470000000  0.5279430000000 1.0
C      1  0.5117520000000  0.3911160000000  0.5362190000000 1.0
C      1  0.5988610000000  0.4808650000000  0.5260190000000 1.0
C      1  0.4413300000000  0.5523560000000  0.4542150000000 1.0
C      1  0.4314830000000  0.4576030000000  0.4521140000000 1.0
C      1  0.5174020000000  0.4143890000000  0.4587830000000 1.0
C      1  0.5800250000000  0.4956950000000  0.4521100000000 1.0
C      1  0.5292480000000  0.5779640000000  0.4566000000000 1.0
C      1  0.5614100000000  0.3895220000000  0.5352740000000 1.0
C      1  0.6164530000000  0.5267610000000  0.5282050000000 1.0
C      1  0.5124900000000  0.6256760000000  0.5344960000000 1.0
C      1  0.3904120000000  0.5455640000000  0.5254330000000 1.0
C      1  0.4213900000000  0.4083890000000  0.5303940000000 1.0
C      1  0.4246970000000  0.4998540000000  0.5327690000000 1.0
C      1  0.4763600000000  0.4252360000000  0.5358640000000 1.0
C      1  0.5598220000000  0.4526680000000  0.5332740000000 1.0
C      1  0.5610900000000  0.5469570000000  0.5338080000000 1.0
C      1  0.4771820000000  0.5750070000000  0.5365130000000 1.0
C      1  0.5375860000000  0.5357240000000  0.4341790000000 1.0
C      1  0.4806600000000  0.5446730000000  0.4276440000000 1.0
C      1  0.4543670000000  0.4897240000000  0.4235920000000 1.0
C      1  0.4906520000000  0.4493960000000  0.4395410000000 1.0
C      1  0.5423220000000  0.4763440000000  0.4306750000000 1.0
C      1  0.4521810000000  0.5105800000000  0.5708390000000 1.0
C      1  0.4755530000000  0.4578720000000  0.5709660000000 1.0
C      1  0.5315480000000  0.4628290000000  0.5705580000000 1.0
C      1  0.5429710000000  0.5190880000000  0.5679070000000 1.0
C      1  0.4958850000000  0.5495060000000  0.5724790000000 1.0
C      1  0.5201120000000  0.4385280000000  0.5027190000000 1.0
C      1  0.5555760000000  0.5116050000000  0.4932440000000 1.0
C      1  0.5128500000000  0.5618970000000  0.5020520000000 1.0
C      1  0.4544230000000  0.5272370000000  0.4958850000000 1.0
C      1  0.4572790000000  0.4612270000000  0.4938000000000 1.0
C      1  0.5680490000000  0.4845700000000  0.4305690000000 1.0
C      1  0.5363850000000  0.5626760000000  0.4356110000000 1.0
C      1  0.4559200000000  0.5542990000000  0.4317360000000 1.0
C      1  0.4365200000000  0.4704140000000  0.4290580000000 1.0
C      1  0.5048180000000  0.4267160000000  0.4385720000000 1.0
C      1  0.5063170000000  0.4776250000000  0.5250250000000 1.0
C      1  0.5242650000000  0.4988730000000  0.5294390000000 1.0
C      1  0.5077910000000  0.5219090000000  0.5257640000000 1.0
C      1  0.4820940000000  0.5146870000000  0.5357210000000 1.0
C      1  0.4807690000000  0.4861030000000  0.5344610000000 1.0
C      1  0.5500870000000  0.5006870000000  0.5444480000000 1.0
C      1  0.5181870000000  0.5589890000000  0.5560260000000 1.0
C      1  0.4589790000000  0.5300470000000  0.5477690000000 1.0
C      1  0.4595700000000  0.4687510000000  0.5472130000000 1.0
C      1  0.5187300000000  0.4410290000000  0.5563150000000 1.0
C      1  0.4927490000000  0.4759550000000  0.4523260000000 1.0
C      1  0.5215940000000  0.4864080000000  0.4468550000000 1.0
C      1  0.5212290000000  0.5168250000000  0.4506380000000 1.0
C      1  0.4925750000000  0.5219220000000  0.4385020000000 1.0
C      1  0.4776570000000  0.4973230000000  0.4370470000000 1.0
C      1  0.6388300000000  0.5452500000000  0.4277260000000 1.0
C      1  0.5013030000000  0.6553330000000  0.4322930000000 1.0
C      1  0.3649660000000  0.5540840000000  0.4279480000000 1.0
C      1  0.4075480000000  0.3781870000000  0.4332000000000 1.0
C      1  0.5854020000000  0.3790050000000  0.4258180000000 1.0
END
