TITL C-3623285-6872-85 -3.23234523597195e-07 125000 -617.270756153148 0 0 102 (C1) n - 1
REM
REM in /home/nfs/bkarasulu/CARBON/AIRSS/Generating-Clusters/LCBOP/Higher-Symm/SD-CG/FIRE-CG
REM
REM
REM
REM
REM
REM ./C.cell (b20cbc046b6831c77cfcea5457e17084)
REM AIRSS Version 0.9.1 bugfix July 2018 build 013d7b7c2542+ Fri, 06 Jul 2018 19:26:36 +0100
REM compiler GCC version 9.2.1 20190827 (Red Hat 9.2.1-1)
REM options -cpp -mtune=generic -march=x86-64 -g -O0 -fpre-include=/usr/include/finclude/math-vector-fortran.h
REM seed -35339594 -1710339922 -191019464 -1229151863 -287016917 -1106606733 -1569858306 279055215 907557751 -497661304 -652938922 -884188261 1832317937 -1163072940 456629470 259146523 155852777 1497251895 -272262661 465170916 -1818979571 -338503362 -1622082314 408644093 -962166088 1248868146 -1283762000 568081097 1298613200 507488546 1960336842 -738874891 -443244523
REM
CELL 1.54180   50.00000   50.00000   50.00000   90.00000   90.00000   90.00000
LATT -1
SFAC C  
C      1  0.5690340000000  0.5593190000000  0.4873420000000 1.0
C      1  0.5227060000000  0.4364580000000  0.4352640000000 1.0
C      1  0.4262790000000  0.5845600000000  0.4566870000000 1.0
C      1  0.4323160000000  0.4294640000000  0.5106260000000 1.0
C      1  0.4750530000000  0.5718020000000  0.5596690000000 1.0
C      1  0.5490640000000  0.4335160000000  0.5536760000000 1.0
C      1  0.4226670000000  0.4733710000000  0.4901860000000 1.0
C      1  0.4563850000000  0.5176980000000  0.5465690000000 1.0
C      1  0.5205690000000  0.4750240000000  0.5587440000000 1.0
C      1  0.5648870000000  0.5232370000000  0.5206660000000 1.0
C      1  0.5456430000000  0.4774000000000  0.4565730000000 1.0
C      1  0.4817120000000  0.5232850000000  0.4440180000000 1.0
C      1  0.5311630000000  0.5709570000000  0.4608690000000 1.0
C      1  0.4776860000000  0.4272590000000  0.4587410000000 1.0
C      1  0.4494030000000  0.5783870000000  0.5015110000000 1.0
C      1  0.4752180000000  0.4238620000000  0.5344570000000 1.0
C      1  0.5177080000000  0.5756610000000  0.5335750000000 1.0
C      1  0.5572130000000  0.4220800000000  0.5048460000000 1.0
C      1  0.5048820000000  0.5793700000000  0.5074050000000 1.0
C      1  0.5293220000000  0.4227710000000  0.5094400000000 1.0
C      1  0.5208390000000  0.5668040000000  0.4866940000000 1.0
C      1  0.4937560000000  0.4292770000000  0.4825990000000 1.0
C      1  0.4773420000000  0.5727330000000  0.4984650000000 1.0
C      1  0.4819020000000  0.4332450000000  0.5080330000000 1.0
C      1  0.5933210000000  0.5027110000000  0.4863410000000 1.0
C      1  0.5347300000000  0.4966120000000  0.4110740000000 1.0
C      1  0.4392670000000  0.5030920000000  0.4250090000000 1.0
C      1  0.3948440000000  0.5019440000000  0.5182740000000 1.0
C      1  0.4618420000000  0.4986830000000  0.5903320000000 1.0
C      1  0.5578580000000  0.5029940000000  0.5797410000000 1.0
C      1  0.4239500000000  0.4910890000000  0.4676360000000 1.0
C      1  0.4295680000000  0.5072710000000  0.5474140000000 1.0
C      1  0.5056330000000  0.4888130000000  0.5814270000000 1.0
C      1  0.5848110000000  0.5147520000000  0.5425630000000 1.0
C      1  0.5740710000000  0.4862220000000  0.4494370000000 1.0
C      1  0.4929720000000  0.5066590000000  0.3986630000000 1.0
C      1  0.4775840000000  0.5484100000000  0.4815870000000 1.0
C      1  0.4677320000000  0.4597160000000  0.5066300000000 1.0
C      1  0.5066280000000  0.5324760000000  0.5157050000000 1.0
C      1  0.5221400000000  0.4490350000000  0.5195960000000 1.0
C      1  0.5186850000000  0.5383510000000  0.4914070000000 1.0
C      1  0.5103200000000  0.4522260000000  0.4761550000000 1.0
C      1  0.5467480000000  0.5473250000000  0.5620350000000 1.0
C      1  0.5833770000000  0.4576240000000  0.4905100000000 1.0
C      1  0.5293220000000  0.5416660000000  0.4224620000000 1.0
C      1  0.4492480000000  0.4585430000000  0.4388380000000 1.0
C      1  0.4209550000000  0.5436820000000  0.5148280000000 1.0
C      1  0.4702280000000  0.4551230000000  0.5691360000000 1.0
C      1  0.4524000000000  0.5209220000000  0.4437500000000 1.0
C      1  0.4109270000000  0.4779510000000  0.5160430000000 1.0
C      1  0.4705710000000  0.5193950000000  0.5715350000000 1.0
C      1  0.5489030000000  0.4866290000000  0.5551070000000 1.0
C      1  0.5673310000000  0.5086230000000  0.4955560000000 1.0
C      1  0.5266490000000  0.4899370000000  0.4372900000000 1.0
C      1  0.4312850000000  0.4802650000000  0.4406980000000 1.0
C      1  0.4105690000000  0.5225630000000  0.5305610000000 1.0
C      1  0.4790930000000  0.4758050000000  0.5869580000000 1.0
C      1  0.5689610000000  0.5274920000000  0.5672850000000 1.0
C      1  0.5918820000000  0.4783380000000  0.4717440000000 1.0
C      1  0.5188690000000  0.5200080000000  0.4041330000000 1.0
C      1  0.5326680000000  0.4727260000000  0.5061610000000 1.0
C      1  0.5225440000000  0.5157100000000  0.4750740000000 1.0
C      1  0.4946340000000  0.4760420000000  0.4747180000000 1.0
C      1  0.4710810000000  0.5210540000000  0.4938000000000 1.0
C      1  0.4769860000000  0.4824020000000  0.5217670000000 1.0
C      1  0.5143070000000  0.5107970000000  0.5296670000000 1.0
C      1  0.5017280000000  0.4864190000000  0.5353420000000 1.0
C      1  0.5408800000000  0.5099470000000  0.5344980000000 1.0
C      1  0.5422520000000  0.4935130000000  0.4847340000000 1.0
C      1  0.5080990000000  0.5086120000000  0.4498940000000 1.0
C      1  0.4782590000000  0.4969500000000  0.4790260000000 1.0
C      1  0.4662510000000  0.5101220000000  0.5204990000000 1.0
C      1  0.5168900000000  0.5433610000000  0.5699350000000 1.0
C      1  0.5817250000000  0.4603890000000  0.5221910000000 1.0
C      1  0.5569670000000  0.5383690000000  0.4378170000000 1.0
C      1  0.4747140000000  0.4592590000000  0.4227940000000 1.0
C      1  0.4245090000000  0.5421560000000  0.4848430000000 1.0
C      1  0.4439110000000  0.4553030000000  0.5529870000000 1.0
C      1  0.4517480000000  0.4410820000000  0.4620480000000 1.0
C      1  0.4369760000000  0.5661970000000  0.5250950000000 1.0
C      1  0.4905340000000  0.4368090000000  0.5560880000000 1.0
C      1  0.5456130000000  0.5641930000000  0.5363830000000 1.0
C      1  0.5635650000000  0.4375470000000  0.4813640000000 1.0
C      1  0.5133380000000  0.5594460000000  0.4411150000000 1.0
C      1  0.4421430000000  0.4506390000000  0.4903350000000 1.0
C      1  0.4502560000000  0.5707360000000  0.5493750000000 1.0
C      1  0.5204310000000  0.4459870000000  0.5505990000000 1.0
C      1  0.5620360000000  0.5527590000000  0.5150330000000 1.0
C      1  0.5366500000000  0.4483920000000  0.4607470000000 1.0
C      1  0.4884360000000  0.5498880000000  0.4534540000000 1.0
C      1  0.5579330000000  0.5586430000000  0.4603170000000 1.0
C      1  0.4926790000000  0.4376740000000  0.4339730000000 1.0
C      1  0.4329120000000  0.5698990000000  0.4785370000000 1.0
C      1  0.4457800000000  0.4301690000000  0.5364560000000 1.0
C      1  0.5023180000000  0.5657840000000  0.5565180000000 1.0
C      1  0.5679750000000  0.4345420000000  0.5303080000000 1.0
C      1  0.5730000000000  0.5138000000000  0.4385520000000 1.0
C      1  0.4822670000000  0.4819800000000  0.4062130000000 1.0
C      1  0.4324110000000  0.5201940000000  0.4675860000000 1.0
C      1  0.4274450000000  0.4774230000000  0.5419420000000 1.0
C      1  0.5007860000000  0.5195050000000  0.5762240000000 1.0
C      1  0.5783420000000  0.4830920000000  0.5418840000000 1.0
END
