TITL C-3623286-7563-1479 -2.47279134819965e-08 125000 -37.2922764561808 0 0 7 (D(inf)h) n - 1
REM
REM in /home/nfs/bkarasulu/CARBON/AIRSS/Generating-Clusters/LCBOP/Higher-Symm/SD-CG/FIRE-CG
REM
REM
REM
REM
REM
REM ./C.cell (b20cbc046b6831c77cfcea5457e17084)
REM AIRSS Version 0.9.1 bugfix July 2018 build 013d7b7c2542+ Fri, 06 Jul 2018 19:26:36 +0100
REM compiler GCC version 9.2.1 20190827 (Red Hat 9.2.1-1)
REM options -cpp -mtune=generic -march=x86-64 -g -O0 -fpre-include=/usr/include/finclude/math-vector-fortran.h
REM seed 2026961536 1041451522 -529601430 -1140651595 -2055432677 276987823 -2071005189 -1137386663 1662052854 -1762240474 1487964528 -471959867 1916722225 -960126542 601156405 -1860180015 -1393473110 1850942651 -1003724863 357727180 -1134154877 -1274971338 -1740852477 89271931 1282321970 1054318012 249948160 -245023913 -871214570 1257115443 482518137 119657368 1133421001
REM
CELL 1.54180   50.00000   50.00000   50.00000   90.00000   90.00000   90.00000
LATT -1
SFAC C  
C      1  0.5014660000000  0.4983120000000  0.5347610000000 1.0
C      1  0.5014660000000  0.4983130000000  0.5873380000000 1.0
C      1  0.5014670000000  0.4983110000000  0.4817620000000 1.0
C      1  0.5014680000000  0.4983100000000  0.4291850000000 1.0
C      1  0.5014660000000  0.4983130000000  0.5612680000000 1.0
C      1  0.5014680000000  0.4983110000000  0.4552550000000 1.0
C      1  0.5014670000000  0.4983120000000  0.5082620000000 1.0
END
