TITL C-3623287-7182-324 -0.00182275202328001 125000 -555.318674321819 0 0 93 (C1) n - 1
REM
REM in /home/nfs/bkarasulu/CARBON/AIRSS/Generating-Clusters/LCBOP/Higher-Symm/SD-CG/FIRE-CG
REM
REM
REM
REM
REM
REM ./C.cell (b20cbc046b6831c77cfcea5457e17084)
REM AIRSS Version 0.9.1 bugfix July 2018 build 013d7b7c2542+ Fri, 06 Jul 2018 19:26:36 +0100
REM compiler GCC version 9.2.1 20190827 (Red Hat 9.2.1-1)
REM options -cpp -mtune=generic -march=x86-64 -g -O0 -fpre-include=/usr/include/finclude/math-vector-fortran.h
REM seed 267426532 -485043929 -1823395174 -1775727896 785609125 -1617000870 144952912 769552921 1054570639 -1478486912 1954632307 -226121861 1982748341 -192685540 546369385 -1101217236 -1462074267 1965603881 -1627082331 -1812925056 -1119075614 745438728 43265631 -2032192614 176290835 322866385 -1811240910 2020217283 155724574 -451960070 1798026689 -602904367 134403883
REM
CELL 1.54180   50.00000   50.00000   50.00000   90.00000   90.00000   90.00000
LATT -1
SFAC C  
C      1  0.4440150000000  0.4989930000000  0.4325310000000 1.0
C      1  0.5283800000000  0.4524940000000  0.4286690000000 1.0
C      1  0.5380730000000  0.5546310000000  0.4312620000000 1.0
C      1  0.4797520000000  0.5591590000000  0.5680360000000 1.0
C      1  0.4656280000000  0.4585440000000  0.5639860000000 1.0
C      1  0.5543410000000  0.4896890000000  0.5659950000000 1.0
C      1  0.4458120000000  0.5621570000000  0.4690660000000 1.0
C      1  0.4682250000000  0.4156050000000  0.4693510000000 1.0
C      1  0.5917420000000  0.5187550000000  0.4646440000000 1.0
C      1  0.5055730000000  0.5503220000000  0.4917480000000 1.0
C      1  0.4481070000000  0.4795670000000  0.4938700000000 1.0
C      1  0.5565790000000  0.4700500000000  0.4831280000000 1.0
C      1  0.4339660000000  0.4461550000000  0.5221580000000 1.0
C      1  0.5800260000000  0.4741090000000  0.5203580000000 1.0
C      1  0.4845710000000  0.5858260000000  0.5208030000000 1.0
C      1  0.5288460000000  0.5402340000000  0.5781920000000 1.0
C      1  0.4538560000000  0.5085870000000  0.5800150000000 1.0
C      1  0.5209700000000  0.4503280000000  0.5831660000000 1.0
C      1  0.5099040000000  0.5010930000000  0.5626890000000 1.0
C      1  0.4903330000000  0.5185870000000  0.5562010000000 1.0
C      1  0.5056930000000  0.4763280000000  0.5516100000000 1.0
C      1  0.5089990000000  0.4408190000000  0.5198490000000 1.0
C      1  0.5382970000000  0.5357630000000  0.5223860000000 1.0
C      1  0.4382020000000  0.5226560000000  0.5210990000000 1.0
C      1  0.4951950000000  0.4576580000000  0.5705710000000 1.0
C      1  0.5345100000000  0.5112790000000  0.5733560000000 1.0
C      1  0.4717160000000  0.5309810000000  0.5736550000000 1.0
C      1  0.5047070000000  0.4497070000000  0.4688110000000 1.0
C      1  0.5427840000000  0.5276980000000  0.4663100000000 1.0
C      1  0.4722730000000  0.5204880000000  0.4697220000000 1.0
C      1  0.4782430000000  0.5440470000000  0.4284840000000 1.0
C      1  0.4705550000000  0.4567500000000  0.4316800000000 1.0
C      1  0.5498910000000  0.4976400000000  0.4308540000000 1.0
C      1  0.5472580000000  0.4603520000000  0.5714860000000 1.0
C      1  0.5099350000000  0.5625700000000  0.5710740000000 1.0
C      1  0.4471820000000  0.4817420000000  0.5696330000000 1.0
C      1  0.4588190000000  0.4435800000000  0.5386120000000 1.0
C      1  0.5660230000000  0.4939740000000  0.5383260000000 1.0
C      1  0.4696380000000  0.5677920000000  0.5398280000000 1.0
C      1  0.5104270000000  0.5391320000000  0.5167760000000 1.0
C      1  0.4526820000000  0.4981620000000  0.5151110000000 1.0
C      1  0.5146160000000  0.4684180000000  0.5264470000000 1.0
C      1  0.4797980000000  0.5011090000000  0.5144330000000 1.0
C      1  0.5271800000000  0.4892840000000  0.5115820000000 1.0
C      1  0.4873780000000  0.5255880000000  0.5280210000000 1.0
C      1  0.5133680000000  0.5893080000000  0.5270270000000 1.0
C      1  0.4160220000000  0.4688990000000  0.5289400000000 1.0
C      1  0.5694430000000  0.4461650000000  0.5252310000000 1.0
C      1  0.5902960000000  0.4903540000000  0.4646660000000 1.0
C      1  0.4691650000000  0.5785570000000  0.4673730000000 1.0
C      1  0.4446730000000  0.4314460000000  0.4695840000000 1.0
C      1  0.5025820000000  0.5270990000000  0.4292020000000 1.0
C      1  0.4708220000000  0.4857600000000  0.4353730000000 1.0
C      1  0.5256870000000  0.4811800000000  0.4373550000000 1.0
C      1  0.4070360000000  0.4883610000000  0.5066970000000 1.0
C      1  0.5548100000000  0.4309170000000  0.5029780000000 1.0
C      1  0.5338400000000  0.5812160000000  0.5067890000000 1.0
C      1  0.4222550000000  0.4823870000000  0.4814230000000 1.0
C      1  0.5564260000000  0.4424770000000  0.4752570000000 1.0
C      1  0.5220120000000  0.5721230000000  0.4812900000000 1.0
C      1  0.4768360000000  0.4938080000000  0.4620630000000 1.0
C      1  0.5158720000000  0.4759430000000  0.4644830000000 1.0
C      1  0.5165290000000  0.5251720000000  0.4549480000000 1.0
C      1  0.4484290000000  0.5353790000000  0.4718030000000 1.0
C      1  0.4931880000000  0.4255330000000  0.4696010000000 1.0
C      1  0.5691050000000  0.5330330000000  0.4685440000000 1.0
C      1  0.4327310000000  0.4343880000000  0.4957130000000 1.0
C      1  0.5819180000000  0.4798720000000  0.4910850000000 1.0
C      1  0.4762110000000  0.5900340000000  0.4931970000000 1.0
C      1  0.5288370000000  0.4215470000000  0.5116040000000 1.0
C      1  0.5522470000000  0.5607900000000  0.5178730000000 1.0
C      1  0.4103490000000  0.5167020000000  0.5154250000000 1.0
C      1  0.4526840000000  0.5275680000000  0.4251950000000 1.0
C      1  0.4981320000000  0.4455360000000  0.4237610000000 1.0
C      1  0.5482860000000  0.5279650000000  0.4232960000000 1.0
C      1  0.5326460000000  0.4832050000000  0.4852750000000 1.0
C      1  0.4965890000000  0.5324700000000  0.4734980000000 1.0
C      1  0.4728180000000  0.4768360000000  0.4830790000000 1.0
C      1  0.5181930000000  0.5710050000000  0.4507730000000 1.0
C      1  0.4278180000000  0.4786640000000  0.4515430000000 1.0
C      1  0.5552620000000  0.4466340000000  0.4449390000000 1.0
C      1  0.4220090000000  0.4791650000000  0.5553540000000 1.0
C      1  0.5609550000000  0.4427030000000  0.5527710000000 1.0
C      1  0.5196900000000  0.5840700000000  0.5545740000000 1.0
C      1  0.4872400000000  0.5694180000000  0.4449310000000 1.0
C      1  0.4441150000000  0.4508690000000  0.4472690000000 1.0
C      1  0.5722080000000  0.4789360000000  0.4420870000000 1.0
C      1  0.4821350000000  0.4330060000000  0.5256170000000 1.0
C      1  0.5455760000000  0.5084030000000  0.5235500000000 1.0
C      1  0.4600750000000  0.5422670000000  0.5274010000000 1.0
C      1  0.3898060000000  0.5344380000000  0.5176230000000 1.0
C      1  0.5238670000000  0.3946300000000  0.5129010000000 1.0
C      1  0.5785100000000  0.5653560000000  0.5234530000000 1.0
END
