TITL C-3623286-7563-1831 159337.295049711 125000 -801.296998072188 0 0 138 (C1) n - 1
REM
REM in /home/nfs/bkarasulu/CARBON/AIRSS/Generating-Clusters/LCBOP/Higher-Symm/SD-CG/FIRE-CG
REM
REM
REM
REM
REM
REM ./C.cell (b20cbc046b6831c77cfcea5457e17084)
REM AIRSS Version 0.9.1 bugfix July 2018 build 013d7b7c2542+ Fri, 06 Jul 2018 19:26:36 +0100
REM compiler GCC version 9.2.1 20190827 (Red Hat 9.2.1-1)
REM options -cpp -mtune=generic -march=x86-64 -g -O0 -fpre-include=/usr/include/finclude/math-vector-fortran.h
REM seed 666739804 -995428162 -939772890 116303512 -86230607 995978160 -1181114772 651849800 -682575148 -1643144978 -271182644 1409094626 1642740853 1322976069 1316381341 -1903467244 -2057472924 338197497 -1094444922 66462736 -362789817 1164876328 -686673200 539469435 -454419968 -1656672300 1167197444 42486742 -1755007887 -58645391 1804885311 -1522475942 312136869
REM
CELL 1.54180   50.00000   50.00000   50.00000   90.00000   90.00000   90.00000
LATT -1
SFAC C  
C      1  0.4315240000000  0.4452680000000  0.5265150000000 1.0
C      1  0.4262210000000  0.5009030000000  0.5612230000000 1.0
C      1  0.4250050000000  0.5597640000000  0.5114860000000 1.0
C      1  0.4282800000000  0.5279720000000  0.4449810000000 1.0
C      1  0.4289300000000  0.4625620000000  0.4512230000000 1.0
C      1  0.5422430000000  0.5631510000000  0.4420080000000 1.0
C      1  0.5468320000000  0.4639300000000  0.4197580000000 1.0
C      1  0.5442090000000  0.4160330000000  0.5076060000000 1.0
C      1  0.5400270000000  0.4892890000000  0.5861100000000 1.0
C      1  0.5364600000000  0.5745180000000  0.5400590000000 1.0
C      1  0.4412090000000  0.5350830000000  0.5047580000000 1.0
C      1  0.4464670000000  0.5093140000000  0.4614370000000 1.0
C      1  0.4463290000000  0.4811730000000  0.4686570000000 1.0
C      1  0.4509890000000  0.4694170000000  0.5258010000000 1.0
C      1  0.4425170000000  0.4974430000000  0.5340630000000 1.0
C      1  0.4151570000000  0.4447380000000  0.5000670000000 1.0
C      1  0.4103720000000  0.4747550000000  0.5621490000000 1.0
C      1  0.4079940000000  0.5482660000000  0.5352870000000 1.0
C      1  0.4116960000000  0.5469880000000  0.4628050000000 1.0
C      1  0.4115540000000  0.4815840000000  0.4344460000000 1.0
C      1  0.5172870000000  0.4850890000000  0.5673590000000 1.0
C      1  0.5142180000000  0.5554870000000  0.5346630000000 1.0
C      1  0.5187700000000  0.5517520000000  0.4569460000000 1.0
C      1  0.5249280000000  0.4826220000000  0.4264520000000 1.0
C      1  0.5216190000000  0.4241250000000  0.4886260000000 1.0
C      1  0.4200600000000  0.5680420000000  0.4815730000000 1.0
C      1  0.4217620000000  0.5065810000000  0.4230670000000 1.0
C      1  0.4240320000000  0.4402340000000  0.4725280000000 1.0
C      1  0.4235790000000  0.4492330000000  0.5567060000000 1.0
C      1  0.4188290000000  0.5335480000000  0.5583540000000 1.0
C      1  0.5777880000000  0.5260640000000  0.4496070000000 1.0
C      1  0.5764290000000  0.4583220000000  0.4613680000000 1.0
C      1  0.5763360000000  0.4530330000000  0.5291410000000 1.0
C      1  0.5736110000000  0.5144520000000  0.5589810000000 1.0
C      1  0.5735830000000  0.5596100000000  0.5098310000000 1.0
C      1  0.4489450000000  0.4177780000000  0.5246250000000 1.0
C      1  0.4474600000000  0.5004510000000  0.5852700000000 1.0
C      1  0.4446900000000  0.5806710000000  0.5238030000000 1.0
C      1  0.4479810000000  0.5488150000000  0.4299050000000 1.0
C      1  0.4505810000000  0.4524860000000  0.4296030000000 1.0
C      1  0.5096270000000  0.5497390000000  0.5048730000000 1.0
C      1  0.5161680000000  0.5220280000000  0.4511960000000 1.0
C      1  0.5146910000000  0.4632130000000  0.4591750000000 1.0
C      1  0.5187710000000  0.4446910000000  0.5394760000000 1.0
C      1  0.5087350000000  0.5095140000000  0.5501140000000 1.0
C      1  0.5884680000000  0.4846120000000  0.4823970000000 1.0
C      1  0.5867360000000  0.4786250000000  0.5144250000000 1.0
C      1  0.5855910000000  0.5075590000000  0.5304850000000 1.0
C      1  0.5860510000000  0.5312020000000  0.5077390000000 1.0
C      1  0.5880330000000  0.5174070000000  0.4781170000000 1.0
C      1  0.5130220000000  0.3875210000000  0.5520900000000 1.0
C      1  0.5125710000000  0.5277120000000  0.6197170000000 1.0
C      1  0.5110690000000  0.6207480000000  0.5169230000000 1.0
C      1  0.5068080000000  0.5532260000000  0.3852820000000 1.0
C      1  0.5056860000000  0.4095550000000  0.4112690000000 1.0
C      1  0.5399430000000  0.5143320000000  0.5196120000000 1.0
C      1  0.5420280000000  0.5217960000000  0.4923040000000 1.0
C      1  0.5409930000000  0.4973450000000  0.4783060000000 1.0
C      1  0.5349960000000  0.4762170000000  0.4962370000000 1.0
C      1  0.5358010000000  0.4859080000000  0.5221190000000 1.0
C      1  0.5161660000000  0.5071150000000  0.3790580000000 1.0
C      1  0.5098650000000  0.3889200000000  0.4538070000000 1.0
C      1  0.5351000000000  0.4091460000000  0.5900100000000 1.0
C      1  0.5419500000000  0.5656850000000  0.6102210000000 1.0
C      1  0.5422740000000  0.6260380000000  0.4796110000000 1.0
C      1  0.4486140000000  0.4244300000000  0.4725880000000 1.0
C      1  0.4479890000000  0.4456520000000  0.5732610000000 1.0
C      1  0.4424470000000  0.5470030000000  0.5685740000000 1.0
C      1  0.4455580000000  0.5802760000000  0.4731360000000 1.0
C      1  0.4472850000000  0.5034890000000  0.4081940000000 1.0
C      1  0.4658340000000  0.5412410000000  0.4925030000000 1.0
C      1  0.4719570000000  0.5122770000000  0.4486840000000 1.0
C      1  0.4706070000000  0.4670200000000  0.4768820000000 1.0
C      1  0.4752870000000  0.4598810000000  0.5370390000000 1.0
C      1  0.4655710000000  0.5164440000000  0.5402270000000 1.0
C      1  0.4734400000000  0.4574250000000  0.5657290000000 1.0
C      1  0.4664790000000  0.5418010000000  0.5543800000000 1.0
C      1  0.4694460000000  0.5641750000000  0.4750170000000 1.0
C      1  0.4730300000000  0.5014720000000  0.4218150000000 1.0
C      1  0.4719330000000  0.4383600000000  0.4813470000000 1.0
C      1  0.4876360000000  0.5633390000000  0.4031380000000 1.0
C      1  0.4885640000000  0.4311810000000  0.4062480000000 1.0
C      1  0.4906260000000  0.3895550000000  0.5348820000000 1.0
C      1  0.4893460000000  0.5139160000000  0.6114460000000 1.0
C      1  0.4876030000000  0.6075770000000  0.5253420000000 1.0
C      1  0.5584510000000  0.4133410000000  0.5762880000000 1.0
C      1  0.5643200000000  0.5499950000000  0.6078810000000 1.0
C      1  0.5638710000000  0.6179980000000  0.4944660000000 1.0
C      1  0.5330270000000  0.5074810000000  0.4018560000000 1.0
C      1  0.5281970000000  0.4094670000000  0.4619760000000 1.0
C      1  0.5369790000000  0.5001670000000  0.4492080000000 1.0
C      1  0.5322050000000  0.4516060000000  0.4810700000000 1.0
C      1  0.5327030000000  0.4689580000000  0.5464410000000 1.0
C      1  0.5288150000000  0.5297300000000  0.5427210000000 1.0
C      1  0.5313890000000  0.5494660000000  0.4850500000000 1.0
C      1  0.5355140000000  0.6204990000000  0.5323550000000 1.0
C      1  0.5345190000000  0.5548040000000  0.3922810000000 1.0
C      1  0.5336970000000  0.4145880000000  0.4138750000000 1.0
C      1  0.5401660000000  0.3856860000000  0.5424170000000 1.0
C      1  0.5378200000000  0.5144970000000  0.6247490000000 1.0
C      1  0.4897300000000  0.5107790000000  0.5270190000000 1.0
C      1  0.4905360000000  0.5255540000000  0.4987380000000 1.0
C      1  0.4943110000000  0.5093720000000  0.4680440000000 1.0
C      1  0.4948870000000  0.4793290000000  0.4697340000000 1.0
C      1  0.4959280000000  0.4465320000000  0.5240330000000 1.0
C      1  0.5016470000000  0.5288820000000  0.3713740000000 1.0
C      1  0.4974440000000  0.3893480000000  0.4295620000000 1.0
C      1  0.5129960000000  0.3971840000000  0.5790930000000 1.0
C      1  0.5169430000000  0.5556730000000  0.6152200000000 1.0
C      1  0.5167720000000  0.6270380000000  0.4895570000000 1.0
C      1  0.4899120000000  0.4765590000000  0.5795540000000 1.0
C      1  0.4851660000000  0.5619510000000  0.5445400000000 1.0
C      1  0.4889870000000  0.5625330000000  0.4533600000000 1.0
C      1  0.4907330000000  0.4793210000000  0.4181610000000 1.0
C      1  0.4921300000000  0.4269290000000  0.5012330000000 1.0
C      1  0.4752080000000  0.4063170000000  0.5176490000000 1.0
C      1  0.4747900000000  0.4969320000000  0.5940320000000 1.0
C      1  0.4719420000000  0.5850190000000  0.5321660000000 1.0
C      1  0.4747350000000  0.5597060000000  0.4278050000000 1.0
C      1  0.4766930000000  0.4541530000000  0.4171620000000 1.0
C      1  0.5617930000000  0.5215420000000  0.6092660000000 1.0
C      1  0.5598850000000  0.6086070000000  0.5211870000000 1.0
C      1  0.5475010000000  0.5332910000000  0.4071760000000 1.0
C      1  0.5454850000000  0.4216860000000  0.4396790000000 1.0
C      1  0.5604350000000  0.4060170000000  0.5487650000000 1.0
C      1  0.5620270000000  0.5445550000000  0.4317160000000 1.0
C      1  0.5624780000000  0.4472050000000  0.4371310000000 1.0
C      1  0.5652810000000  0.4243580000000  0.5261950000000 1.0
C      1  0.5651990000000  0.5039790000000  0.5859410000000 1.0
C      1  0.5625460000000  0.5803770000000  0.5285050000000 1.0
C      1  0.5617050000000  0.4447210000000  0.4805210000000 1.0
C      1  0.5613080000000  0.4623010000000  0.5525120000000 1.0
C      1  0.5540350000000  0.5357210000000  0.5566090000000 1.0
C      1  0.5565790000000  0.5646980000000  0.4868910000000 1.0
C      1  0.5657350000000  0.5014310000000  0.4406700000000 1.0
C      1  0.4041270000000  0.5019300000000  0.5017450000000 1.0
C      1  0.3794730000000  0.4969600000000  0.4949030000000 1.0
C      1  0.4287870000000  0.5106200000000  0.5113160000000 1.0
END
