TITL C-3623284-6838-1470 3.41208331758843 125000 -1047.80954687203 0 0 172 (C1) n - 1
REM
REM in /home/nfs/bkarasulu/CARBON/AIRSS/Generating-Clusters/LCBOP/Higher-Symm/SD-CG/FIRE-CG
REM
REM
REM
REM
REM
REM ./C.cell (b20cbc046b6831c77cfcea5457e17084)
REM AIRSS Version 0.9.1 bugfix July 2018 build 013d7b7c2542+ Fri, 06 Jul 2018 19:26:36 +0100
REM compiler GCC version 9.2.1 20190827 (Red Hat 9.2.1-1)
REM options -cpp -mtune=generic -march=x86-64 -g -O0 -fpre-include=/usr/include/finclude/math-vector-fortran.h
REM seed 1907130724 602117550 610574756 635248618 594518450 1544422326 -2121948739 -470334550 -61416830 1418092858 -595553936 -1572521977 -2111179763 1481307806 -795302703 997942214 488168110 837001439 -1772398854 1395623884 -339821520 1420212513 -1717935111 -1359480762 -1244878949 1342624513 -1237237043 -1064456085 1982483215 -267314699 -382350442 1327310079 -97379354
REM
CELL 1.54180   50.00000   50.00000   50.00000   90.00000   90.00000   90.00000
LATT -1
SFAC C  
C      1  0.5362480000000  0.5974430000000  0.4964140000000 1.0
C      1  0.4832960000000  0.5112050000000  0.5349890000000 1.0
C      1  0.5022870000000  0.4299250000000  0.4487860000000 1.0
C      1  0.5126980000000  0.5416890000000  0.4953170000000 1.0
C      1  0.4596870000000  0.4073230000000  0.5086760000000 1.0
C      1  0.6232310000000  0.4698640000000  0.5050930000000 1.0
C      1  0.6183700000000  0.4639240000000  0.5308890000000 1.0
C      1  0.5225730000000  0.5638710000000  0.3976220000000 1.0
C      1  0.4379570000000  0.5032520000000  0.5288400000000 1.0
C      1  0.4621100000000  0.5384680000000  0.4769450000000 1.0
C      1  0.4270700000000  0.5890500000000  0.4494790000000 1.0
C      1  0.4817270000000  0.5120750000000  0.3889040000000 1.0
C      1  0.5610020000000  0.5400980000000  0.6049300000000 1.0
C      1  0.5396040000000  0.4535240000000  0.5930980000000 1.0
C      1  0.5429560000000  0.4976440000000  0.6200210000000 1.0
C      1  0.5078960000000  0.6222390000000  0.4700360000000 1.0
C      1  0.5570260000000  0.5012390000000  0.4439180000000 1.0
C      1  0.4340430000000  0.4508810000000  0.5791940000000 1.0
C      1  0.4536160000000  0.5493540000000  0.5287580000000 1.0
C      1  0.4835160000000  0.5837150000000  0.4764650000000 1.0
C      1  0.4841340000000  0.4804590000000  0.4376390000000 1.0
C      1  0.5516520000000  0.5802470000000  0.4332770000000 1.0
C      1  0.5992610000000  0.4334500000000  0.4823020000000 1.0
C      1  0.5692460000000  0.4902030000000  0.4205130000000 1.0
C      1  0.4749730000000  0.5755020000000  0.4269450000000 1.0
C      1  0.4755480000000  0.5345120000000  0.5214620000000 1.0
C      1  0.4454990000000  0.4735070000000  0.5877770000000 1.0
C      1  0.4658630000000  0.4932470000000  0.5877720000000 1.0
C      1  0.5008260000000  0.6262080000000  0.4986140000000 1.0
C      1  0.3881550000000  0.5607620000000  0.4919890000000 1.0
C      1  0.5111800000000  0.5114290000000  0.3897720000000 1.0
C      1  0.4331880000000  0.4185100000000  0.4532740000000 1.0
C      1  0.5684920000000  0.4064540000000  0.5151620000000 1.0
C      1  0.3953050000000  0.5060610000000  0.5498270000000 1.0
C      1  0.4137260000000  0.4216470000000  0.4737920000000 1.0
C      1  0.5715750000000  0.4715780000000  0.5365140000000 1.0
C      1  0.3870500000000  0.5167170000000  0.4645330000000 1.0
C      1  0.5441790000000  0.4472270000000  0.4969520000000 1.0
C      1  0.5304130000000  0.6160310000000  0.5399370000000 1.0
C      1  0.4921380000000  0.4845520000000  0.5805660000000 1.0
C      1  0.6104820000000  0.4802750000000  0.4811870000000 1.0
C      1  0.4633840000000  0.4907050000000  0.5360730000000 1.0
C      1  0.5588370000000  0.5034910000000  0.3975080000000 1.0
C      1  0.5258980000000  0.5538800000000  0.5172860000000 1.0
C      1  0.5350640000000  0.4630470000000  0.3992180000000 1.0
C      1  0.5486480000000  0.4575410000000  0.5437020000000 1.0
C      1  0.4261770000000  0.5106570000000  0.3856910000000 1.0
C      1  0.4132710000000  0.4704500000000  0.4644930000000 1.0
C      1  0.4650500000000  0.4562320000000  0.4331790000000 1.0
C      1  0.5257120000000  0.4959670000000  0.4906140000000 1.0
C      1  0.3879650000000  0.4009140000000  0.5128180000000 1.0
C      1  0.4350930000000  0.5314850000000  0.5833700000000 1.0
C      1  0.5444920000000  0.5735530000000  0.5087580000000 1.0
C      1  0.5853370000000  0.5311080000000  0.5909630000000 1.0
C      1  0.5414690000000  0.4426320000000  0.4705390000000 1.0
C      1  0.5171800000000  0.3607350000000  0.5719180000000 1.0
C      1  0.6025520000000  0.5353120000000  0.5373670000000 1.0
C      1  0.5575480000000  0.6079800000000  0.5460130000000 1.0
C      1  0.6088860000000  0.5094880000000  0.4834720000000 1.0
C      1  0.4116940000000  0.4062590000000  0.4971720000000 1.0
C      1  0.4199410000000  0.5701470000000  0.4311060000000 1.0
C      1  0.4866640000000  0.4452700000000  0.5534230000000 1.0
C      1  0.5767620000000  0.5918300000000  0.5344450000000 1.0
C      1  0.5744640000000  0.5636940000000  0.4384040000000 1.0
C      1  0.5030640000000  0.4826120000000  0.4915190000000 1.0
C      1  0.4353650000000  0.5601590000000  0.5807430000000 1.0
C      1  0.4331680000000  0.4073700000000  0.5175550000000 1.0
C      1  0.5946320000000  0.5288060000000  0.5032180000000 1.0
C      1  0.5190870000000  0.4516160000000  0.4568030000000 1.0
C      1  0.5065850000000  0.4275580000000  0.4199750000000 1.0
C      1  0.3934150000000  0.5002710000000  0.5156390000000 1.0
C      1  0.5728630000000  0.5728650000000  0.5128780000000 1.0
C      1  0.4773460000000  0.6150390000000  0.5116220000000 1.0
C      1  0.4606390000000  0.5204550000000  0.5935040000000 1.0
C      1  0.4724440000000  0.5609770000000  0.4046310000000 1.0
C      1  0.4565510000000  0.4355520000000  0.4519360000000 1.0
C      1  0.4626670000000  0.5143440000000  0.4624520000000 1.0
C      1  0.5013300000000  0.4226680000000  0.5441880000000 1.0
C      1  0.5548660000000  0.4028480000000  0.6017260000000 1.0
C      1  0.5102280000000  0.4489060000000  0.3999240000000 1.0
C      1  0.5113350000000  0.5273350000000  0.4362900000000 1.0
C      1  0.5049120000000  0.4260920000000  0.6194210000000 1.0
C      1  0.4008820000000  0.4466840000000  0.4730540000000 1.0
C      1  0.5975830000000  0.4577890000000  0.4652420000000 1.0
C      1  0.3932070000000  0.4043220000000  0.5397870000000 1.0
C      1  0.5335760000000  0.4908530000000  0.3891100000000 1.0
C      1  0.4793750000000  0.4261960000000  0.4665110000000 1.0
C      1  0.4648760000000  0.4459070000000  0.4059710000000 1.0
C      1  0.5284950000000  0.5216870000000  0.4845860000000 1.0
C      1  0.4802110000000  0.5096060000000  0.4410340000000 1.0
C      1  0.5703440000000  0.5124340000000  0.5081520000000 1.0
C      1  0.5335000000000  0.4663870000000  0.5651130000000 1.0
C      1  0.5170780000000  0.5596310000000  0.5646100000000 1.0
C      1  0.5256480000000  0.6188470000000  0.5124390000000 1.0
C      1  0.5287100000000  0.5020320000000  0.4442550000000 1.0
C      1  0.4120470000000  0.5155610000000  0.5710460000000 1.0
C      1  0.4582260000000  0.6023980000000  0.5579450000000 1.0
C      1  0.5263870000000  0.3638540000000  0.5969000000000 1.0
C      1  0.5965830000000  0.4647360000000  0.5485910000000 1.0
C      1  0.5134540000000  0.3761060000000  0.5503890000000 1.0
C      1  0.5125610000000  0.4770250000000  0.4456450000000 1.0
C      1  0.4689540000000  0.4860690000000  0.3858520000000 1.0
C      1  0.5961990000000  0.4652630000000  0.5769430000000 1.0
C      1  0.5138320000000  0.4013690000000  0.6252660000000 1.0
C      1  0.5949430000000  0.5063350000000  0.6020250000000 1.0
C      1  0.4714360000000  0.4619180000000  0.5343920000000 1.0
C      1  0.3811860000000  0.5092980000000  0.4907730000000 1.0
C      1  0.5098660000000  0.5337540000000  0.6130390000000 1.0
C      1  0.4291100000000  0.4290910000000  0.5645110000000 1.0
C      1  0.4209520000000  0.4120280000000  0.5440300000000 1.0
C      1  0.5883340000000  0.4166040000000  0.5001970000000 1.0
C      1  0.5101530000000  0.5848660000000  0.5701130000000 1.0
C      1  0.5781350000000  0.4499140000000  0.4426280000000 1.0
C      1  0.5083660000000  0.5144070000000  0.5462560000000 1.0
C      1  0.5556810000000  0.4282210000000  0.5929240000000 1.0
C      1  0.5839760000000  0.4801140000000  0.5980090000000 1.0
C      1  0.4445090000000  0.5840390000000  0.5721950000000 1.0
C      1  0.4116350000000  0.5498150000000  0.4874680000000 1.0
C      1  0.4930020000000  0.4554140000000  0.5797350000000 1.0
C      1  0.4615420000000  0.5929830000000  0.4949300000000 1.0
C      1  0.5755580000000  0.5442350000000  0.4179050000000 1.0
C      1  0.4834860000000  0.5335080000000  0.6057120000000 1.0
C      1  0.4529750000000  0.5753760000000  0.5185380000000 1.0
C      1  0.4993160000000  0.6370860000000  0.4489850000000 1.0
C      1  0.4007860000000  0.5263340000000  0.4424690000000 1.0
C      1  0.4393060000000  0.4858600000000  0.3905600000000 1.0
C      1  0.5191910000000  0.4012680000000  0.5391500000000 1.0
C      1  0.5639160000000  0.5148920000000  0.5547180000000 1.0
C      1  0.5108090000000  0.4452040000000  0.5998590000000 1.0
C      1  0.5550130000000  0.5306250000000  0.4038040000000 1.0
C      1  0.4289220000000  0.4843530000000  0.4839330000000 1.0
C      1  0.5317540000000  0.5780070000000  0.4527730000000 1.0
C      1  0.4181430000000  0.5421430000000  0.4245950000000 1.0
C      1  0.4743170000000  0.4271180000000  0.4950490000000 1.0
C      1  0.5665050000000  0.4988060000000  0.5318190000000 1.0
C      1  0.5872190000000  0.5566610000000  0.4933110000000 1.0
C      1  0.4387530000000  0.5845650000000  0.4750480000000 1.0
C      1  0.4381730000000  0.5549110000000  0.4793160000000 1.0
C      1  0.5271920000000  0.6000400000000  0.4696430000000 1.0
C      1  0.4765400000000  0.4750910000000  0.4897720000000 1.0
C      1  0.4844520000000  0.5398690000000  0.4955760000000 1.0
C      1  0.4841520000000  0.4609280000000  0.3906300000000 1.0
C      1  0.5612430000000  0.4036280000000  0.4476030000000 1.0
C      1  0.5197780000000  0.5416590000000  0.5430790000000 1.0
C      1  0.5375540000000  0.5256340000000  0.6151610000000 1.0
C      1  0.4717990000000  0.4531100000000  0.5068860000000 1.0
C      1  0.4284960000000  0.4011730000000  0.4316280000000 1.0
C      1  0.4157960000000  0.4738410000000  0.4365320000000 1.0
C      1  0.4317530000000  0.5323100000000  0.5330890000000 1.0
C      1  0.4349050000000  0.5316360000000  0.4025540000000 1.0
C      1  0.4638170000000  0.5351480000000  0.3978180000000 1.0
C      1  0.5605410000000  0.4300800000000  0.4539400000000 1.0
C      1  0.4078190000000  0.5456020000000  0.5363830000000 1.0
C      1  0.5441500000000  0.4039420000000  0.5261270000000 1.0
C      1  0.5336580000000  0.3867470000000  0.6113690000000 1.0
C      1  0.4799640000000  0.6108690000000  0.5413420000000 1.0
C      1  0.4201160000000  0.4913450000000  0.5102050000000 1.0
C      1  0.5236590000000  0.5350460000000  0.4062390000000 1.0
C      1  0.5403030000000  0.5825470000000  0.4071380000000 1.0
C      1  0.4256410000000  0.4723610000000  0.4115970000000 1.0
C      1  0.5120250000000  0.5565670000000  0.4494170000000 1.0
C      1  0.5866020000000  0.5313500000000  0.5611400000000 1.0
C      1  0.5854480000000  0.5615730000000  0.4648570000000 1.0
C      1  0.4512790000000  0.4237070000000  0.3959790000000 1.0
C      1  0.4558740000000  0.4907330000000  0.4777840000000 1.0
C      1  0.5562030000000  0.4756490000000  0.6070880000000 1.0
C      1  0.4362070000000  0.4039690000000  0.4060440000000 1.0
C      1  0.5066080000000  0.6073480000000  0.5534670000000 1.0
C      1  0.5434640000000  0.5102400000000  0.5731640000000 1.0
C      1  0.5187720000000  0.4947040000000  0.5668130000000 1.0
C      1  0.4874530000000  0.5712370000000  0.4515150000000 1.0
C      1  0.5656500000000  0.4626020000000  0.4194760000000 1.0
END
