TITL C-3623288-6813-920 -1.06331628013639e-06 125000 -922.547455984969 0 0 150 (C1) n - 1
REM
REM in /home/nfs/bkarasulu/CARBON/AIRSS/Generating-Clusters/LCBOP/Higher-Symm/SD-CG/FIRE-CG
REM
REM
REM
REM
REM
REM ./C.cell (b20cbc046b6831c77cfcea5457e17084)
REM AIRSS Version 0.9.1 bugfix July 2018 build 013d7b7c2542+ Fri, 06 Jul 2018 19:26:36 +0100
REM compiler GCC version 9.2.1 20190827 (Red Hat 9.2.1-1)
REM options -cpp -mtune=generic -march=x86-64 -g -O0 -fpre-include=/usr/include/finclude/math-vector-fortran.h
REM seed -1483048491 -279161797 -342492747 -689695057 -1945331909 408291830 -1389673082 1593144317 -383851296 961651793 -1503106783 1616747745 186868321 -116602018 708996290 -537679830 452687230 1911437400 -1416023331 -1158376277 -182178823 1702363433 -2058653729 429557479 -448450112 1221407319 -855986873 839489166 948590842 -1134285576 -748360169 -699738234 -1927796203
REM
CELL 1.54180   50.00000   50.00000   50.00000   90.00000   90.00000   90.00000
LATT -1
SFAC C  
C      1  0.5528800000000  0.5259800000000  0.4274080000000 1.0
C      1  0.4247880000000  0.5605810000000  0.5334100000000 1.0
C      1  0.5362260000000  0.4213460000000  0.5554670000000 1.0
C      1  0.4478780000000  0.5294520000000  0.5720410000000 1.0
C      1  0.5605500000000  0.4672740000000  0.5771140000000 1.0
C      1  0.4475080000000  0.4787780000000  0.4189810000000 1.0
C      1  0.5711180000000  0.5510570000000  0.4710050000000 1.0
C      1  0.4325970000000  0.4529270000000  0.4756230000000 1.0
C      1  0.5816530000000  0.4453980000000  0.5252740000000 1.0
C      1  0.4664230000000  0.4230630000000  0.4459660000000 1.0
C      1  0.5329380000000  0.5757910000000  0.4475520000000 1.0
C      1  0.4788090000000  0.5802900000000  0.5533100000000 1.0
C      1  0.5491470000000  0.4694210000000  0.4191590000000 1.0
C      1  0.4236040000000  0.4399670000000  0.5314860000000 1.0
C      1  0.5416160000000  0.5665200000000  0.5603260000000 1.0
C      1  0.4553720000000  0.4605180000000  0.5709790000000 1.0
C      1  0.5558320000000  0.5206230000000  0.5852140000000 1.0
C      1  0.4472290000000  0.5420940000000  0.4273380000000 1.0
C      1  0.5747590000000  0.4372600000000  0.4669140000000 1.0
C      1  0.4181070000000  0.5556130000000  0.4761170000000 1.0
C      1  0.5614080000000  0.5553330000000  0.5421430000000 1.0
C      1  0.4616710000000  0.5638690000000  0.4405520000000 1.0
C      1  0.5246480000000  0.4242370000000  0.4440330000000 1.0
C      1  0.4705400000000  0.4378790000000  0.5580300000000 1.0
C      1  0.5487330000000  0.4845050000000  0.4924000000000 1.0
C      1  0.4879550000000  0.5405260000000  0.4696190000000 1.0
C      1  0.4739240000000  0.4857610000000  0.5323120000000 1.0
C      1  0.4614470000000  0.4862710000000  0.5062130000000 1.0
C      1  0.5330730000000  0.5290910000000  0.5150970000000 1.0
C      1  0.4656410000000  0.5308840000000  0.4884990000000 1.0
C      1  0.5086320000000  0.5456250000000  0.5145610000000 1.0
C      1  0.4941740000000  0.4627210000000  0.5291110000000 1.0
C      1  0.5088090000000  0.4624340000000  0.4758110000000 1.0
C      1  0.5347740000000  0.4751870000000  0.4638490000000 1.0
C      1  0.4976970000000  0.5130680000000  0.4594690000000 1.0
C      1  0.5234810000000  0.5067810000000  0.5351850000000 1.0
C      1  0.5376290000000  0.5124980000000  0.4910020000000 1.0
C      1  0.4855060000000  0.4662170000000  0.4585150000000 1.0
C      1  0.4937110000000  0.5085070000000  0.5384410000000 1.0
C      1  0.4634480000000  0.5429840000000  0.5144640000000 1.0
C      1  0.5399480000000  0.4646530000000  0.5138460000000 1.0
C      1  0.4613080000000  0.5034020000000  0.4855260000000 1.0
C      1  0.5106640000000  0.4601580000000  0.5054840000000 1.0
C      1  0.4866520000000  0.5378840000000  0.5336680000000 1.0
C      1  0.5034180000000  0.5559070000000  0.4892660000000 1.0
C      1  0.5228020000000  0.5083240000000  0.4669270000000 1.0
C      1  0.4720150000000  0.4936170000000  0.4594260000000 1.0
C      1  0.5411990000000  0.4839730000000  0.5376020000000 1.0
C      1  0.4606360000000  0.4702220000000  0.3648600000000 1.0
C      1  0.3793610000000  0.4649410000000  0.4762910000000 1.0
C      1  0.4818030000000  0.3686800000000  0.4640760000000 1.0
C      1  0.5339070000000  0.4741590000000  0.6333710000000 1.0
C      1  0.4511180000000  0.5324070000000  0.6271500000000 1.0
C      1  0.5361430000000  0.5167490000000  0.3721560000000 1.0
C      1  0.6261970000000  0.4714690000000  0.5028780000000 1.0
C      1  0.3715140000000  0.5367940000000  0.5095650000000 1.0
C      1  0.6217770000000  0.5455030000000  0.4888860000000 1.0
C      1  0.5239310000000  0.3713750000000  0.5364530000000 1.0
C      1  0.4934120000000  0.6295380000000  0.5306310000000 1.0
C      1  0.5142280000000  0.6241910000000  0.4560530000000 1.0
C      1  0.4608460000000  0.4971560000000  0.3674990000000 1.0
C      1  0.3702550000000  0.5277760000000  0.4829770000000 1.0
C      1  0.4876380000000  0.6215650000000  0.4478250000000 1.0
C      1  0.5301640000000  0.5005960000000  0.6306610000000 1.0
C      1  0.4475480000000  0.5049550000000  0.6302430000000 1.0
C      1  0.5320840000000  0.4893130000000  0.3699030000000 1.0
C      1  0.6195970000000  0.5526640000000  0.5157850000000 1.0
C      1  0.3822420000000  0.4613910000000  0.5032730000000 1.0
C      1  0.6276270000000  0.4675530000000  0.4763120000000 1.0
C      1  0.5133740000000  0.6326610000000  0.5481230000000 1.0
C      1  0.4986170000000  0.3800660000000  0.5410870000000 1.0
C      1  0.5093940000000  0.3710300000000  0.4654510000000 1.0
C      1  0.3952430000000  0.5113580000000  0.4763040000000 1.0
C      1  0.4846680000000  0.3994510000000  0.5258960000000 1.0
C      1  0.5130040000000  0.4804650000000  0.3905220000000 1.0
C      1  0.6032300000000  0.5334300000000  0.5301310000000 1.0
C      1  0.4008780000000  0.4780920000000  0.5172290000000 1.0
C      1  0.6098720000000  0.4675810000000  0.4561480000000 1.0
C      1  0.5163390000000  0.3943270000000  0.4817630000000 1.0
C      1  0.4727940000000  0.6047210000000  0.4663550000000 1.0
C      1  0.5318770000000  0.6184910000000  0.5611110000000 1.0
C      1  0.4681610000000  0.4904670000000  0.6153000000000 1.0
C      1  0.5161180000000  0.5149750000000  0.6109670000000 1.0
C      1  0.4717750000000  0.5134280000000  0.3879700000000 1.0
C      1  0.3968270000000  0.4838930000000  0.4638460000000 1.0
C      1  0.4817250000000  0.6090310000000  0.5153720000000 1.0
C      1  0.5193970000000  0.5274100000000  0.3934880000000 1.0
C      1  0.6071890000000  0.4850490000000  0.5187280000000 1.0
C      1  0.3942400000000  0.5255300000000  0.5236490000000 1.0
C      1  0.6049990000000  0.5218650000000  0.4832730000000 1.0
C      1  0.5193620000000  0.6069000000000  0.4795660000000 1.0
C      1  0.4698250000000  0.3897810000000  0.4797370000000 1.0
C      1  0.5447660000000  0.3858810000000  0.5266850000000 1.0
C      1  0.4736150000000  0.5373210000000  0.6092870000000 1.0
C      1  0.5328270000000  0.4550260000000  0.6146300000000 1.0
C      1  0.4649850000000  0.4517700000000  0.3842450000000 1.0
C      1  0.4697910000000  0.5433320000000  0.5820780000000 1.0
C      1  0.5885610000000  0.4713810000000  0.5351450000000 1.0
C      1  0.5373060000000  0.5847800000000  0.4746840000000 1.0
C      1  0.5295420000000  0.5387330000000  0.4171470000000 1.0
C      1  0.4645170000000  0.4575120000000  0.4118590000000 1.0
C      1  0.5368200000000  0.4551110000000  0.5869970000000 1.0
C      1  0.4241890000000  0.4752060000000  0.4599830000000 1.0
C      1  0.5829230000000  0.5254930000000  0.4655110000000 1.0
C      1  0.4155400000000  0.5339490000000  0.5394530000000 1.0
C      1  0.4667900000000  0.5889400000000  0.5287160000000 1.0
C      1  0.5467520000000  0.4137730000000  0.5308120000000 1.0
C      1  0.4561530000000  0.4120740000000  0.4698940000000 1.0
C      1  0.4618370000000  0.4699990000000  0.5970430000000 1.0
C      1  0.5818050000000  0.5356720000000  0.5482820000000 1.0
C      1  0.5322410000000  0.4148400000000  0.4703350000000 1.0
C      1  0.5231000000000  0.4622130000000  0.4102030000000 1.0
C      1  0.4569140000000  0.5327480000000  0.4022460000000 1.0
C      1  0.5293080000000  0.5293660000000  0.5901630000000 1.0
C      1  0.4149560000000  0.5303330000000  0.4637840000000 1.0
C      1  0.5825990000000  0.4612330000000  0.4543780000000 1.0
C      1  0.4205960000000  0.4676800000000  0.5344430000000 1.0
C      1  0.4652840000000  0.4187910000000  0.5352050000000 1.0
C      1  0.5417890000000  0.5941400000000  0.5652980000000 1.0
C      1  0.4547790000000  0.5830160000000  0.4623550000000 1.0
C      1  0.4330490000000  0.5155330000000  0.5535890000000 1.0
C      1  0.5552830000000  0.4366290000000  0.5128060000000 1.0
C      1  0.5159510000000  0.5584600000000  0.4330320000000 1.0
C      1  0.5682610000000  0.5096510000000  0.4454540000000 1.0
C      1  0.4443600000000  0.4933160000000  0.4443790000000 1.0
C      1  0.5678640000000  0.4847170000000  0.5536270000000 1.0
C      1  0.4432610000000  0.4297590000000  0.4882450000000 1.0
C      1  0.5549910000000  0.5661190000000  0.4891890000000 1.0
C      1  0.4474890000000  0.5693540000000  0.5152840000000 1.0
C      1  0.4898110000000  0.5531310000000  0.5614190000000 1.0
C      1  0.5213070000000  0.4413520000000  0.5676250000000 1.0
C      1  0.4810820000000  0.4465230000000  0.4343860000000 1.0
C      1  0.4451410000000  0.4828280000000  0.5501360000000 1.0
C      1  0.5527110000000  0.5525540000000  0.5150130000000 1.0
C      1  0.5101290000000  0.4415760000000  0.4261280000000 1.0
C      1  0.5599810000000  0.4791290000000  0.4453900000000 1.0
C      1  0.4335040000000  0.5221650000000  0.4433690000000 1.0
C      1  0.5725070000000  0.5132230000000  0.5635200000000 1.0
C      1  0.4386630000000  0.5732120000000  0.4847980000000 1.0
C      1  0.5546360000000  0.4271440000000  0.4837130000000 1.0
C      1  0.4438000000000  0.4264930000000  0.5173170000000 1.0
C      1  0.4976120000000  0.4478010000000  0.5536960000000 1.0
C      1  0.5197310000000  0.5503540000000  0.5718430000000 1.0
C      1  0.4892800000000  0.5560700000000  0.4436550000000 1.0
C      1  0.4884110000000  0.5119380000000  0.6113040000000 1.0
C      1  0.6018410000000  0.5112860000000  0.5107420000000 1.0
C      1  0.4913840000000  0.6040900000000  0.4895610000000 1.0
C      1  0.4983590000000  0.5065490000000  0.3957180000000 1.0
C      1  0.4022840000000  0.5038990000000  0.5063810000000 1.0
C      1  0.4914460000000  0.3981390000000  0.4982070000000 1.0
END
