TITL C-3623284-6838-691 -8.80494942871115e-07 125000 -1067.66108129952 0 0 172 (C2) n - 1
REM
REM in /home/nfs/bkarasulu/CARBON/AIRSS/Generating-Clusters/LCBOP/Higher-Symm/SD-CG/FIRE-CG
REM
REM
REM
REM
REM
REM ./C.cell (b20cbc046b6831c77cfcea5457e17084)
REM AIRSS Version 0.9.1 bugfix July 2018 build 013d7b7c2542+ Fri, 06 Jul 2018 19:26:36 +0100
REM compiler GCC version 9.2.1 20190827 (Red Hat 9.2.1-1)
REM options -cpp -mtune=generic -march=x86-64 -g -O0 -fpre-include=/usr/include/finclude/math-vector-fortran.h
REM seed -1757844656 -2007795800 -180136318 -1029724000 -878428737 -1006743899 -1608156473 1905604661 -1212423304 -1891050697 87291838 -980326477 -1691806398 -3528307 391789694 -1262210957 -430525196 -2103927345 478580180 -91301254 567689527 -1522959444 -1415701850 -1707314938 1216037766 -1581023764 70180680 667395352 -807680558 373715582 -1175412834 1793937656 2088754288
REM
CELL 1.54180   50.00000   50.00000   50.00000   90.00000   90.00000   90.00000
LATT -1
SFAC C  
C      1  0.5622020000000  0.3792790000000  0.4889830000000 1.0
C      1  0.5622090000000  0.6207170000000  0.5110230000000 1.0
C      1  0.4368110000000  0.3786190000000  0.4894870000000 1.0
C      1  0.4368170000000  0.6213850000000  0.5105060000000 1.0
C      1  0.4862920000000  0.4474070000000  0.4868340000000 1.0
C      1  0.4862940000000  0.5525930000000  0.5131640000000 1.0
C      1  0.5145230000000  0.4477910000000  0.4864510000000 1.0
C      1  0.5145250000000  0.5522080000000  0.5135500000000 1.0
C      1  0.5387180000000  0.3650110000000  0.4952230000000 1.0
C      1  0.5387260000000  0.6349860000000  0.5047810000000 1.0
C      1  0.4601680000000  0.3641390000000  0.4957140000000 1.0
C      1  0.4601770000000  0.6358640000000  0.5042820000000 1.0
C      1  0.5278580000000  0.5315670000000  0.4987680000000 1.0
C      1  0.5278560000000  0.4684310000000  0.5012340000000 1.0
C      1  0.4730100000000  0.5317980000000  0.4986040000000 1.0
C      1  0.4730080000000  0.4682040000000  0.5013940000000 1.0
C      1  0.5128530000000  0.3583820000000  0.4940480000000 1.0
C      1  0.5128620000000  0.6416180000000  0.5059540000000 1.0
C      1  0.4861420000000  0.3579700000000  0.4943290000000 1.0
C      1  0.4861510000000  0.6420310000000  0.5056700000000 1.0
C      1  0.5384750000000  0.5738560000000  0.4091350000000 1.0
C      1  0.5384610000000  0.4261420000000  0.5908690000000 1.0
C      1  0.4613360000000  0.5736640000000  0.4089190000000 1.0
C      1  0.4613220000000  0.4263390000000  0.5910770000000 1.0
C      1  0.3988650000000  0.4622700000000  0.5073350000000 1.0
C      1  0.3988680000000  0.5377370000000  0.4926550000000 1.0
C      1  0.6021180000000  0.4622480000000  0.5074460000000 1.0
C      1  0.6021210000000  0.5377450000000  0.4925640000000 1.0
C      1  0.4104060000000  0.6149620000000  0.4679040000000 1.0
C      1  0.4103950000000  0.3850430000000  0.5320870000000 1.0
C      1  0.5882160000000  0.6158240000000  0.4683450000000 1.0
C      1  0.5882050000000  0.3841710000000  0.5316640000000 1.0
C      1  0.4343530000000  0.4379250000000  0.5284920000000 1.0
C      1  0.4343600000000  0.5620800000000  0.4715020000000 1.0
C      1  0.5665540000000  0.4382400000000  0.5287430000000 1.0
C      1  0.5665610000000  0.5617550000000  0.4712640000000 1.0
C      1  0.4100770000000  0.4809110000000  0.5492950000000 1.0
C      1  0.4100830000000  0.5190950000000  0.4506950000000 1.0
C      1  0.5910380000000  0.4810460000000  0.5494320000000 1.0
C      1  0.5910440000000  0.5189480000000  0.4505770000000 1.0
C      1  0.4063920000000  0.4672670000000  0.4481170000000 1.0
C      1  0.4063890000000  0.5327390000000  0.5518730000000 1.0
C      1  0.5945240000000  0.4671130000000  0.4481790000000 1.0
C      1  0.5945210000000  0.5328810000000  0.5518310000000 1.0
C      1  0.4706410000000  0.5088980000000  0.4515000000000 1.0
C      1  0.4706350000000  0.4911040000000  0.5484970000000 1.0
C      1  0.5303080000000  0.5088200000000  0.4514120000000 1.0
C      1  0.5303030000000  0.4911780000000  0.5485910000000 1.0
C      1  0.4597260000000  0.4443100000000  0.5690150000000 1.0
C      1  0.4597370000000  0.5556930000000  0.4309810000000 1.0
C      1  0.5410050000000  0.4445200000000  0.5692630000000 1.0
C      1  0.5410150000000  0.5554780000000  0.4307410000000 1.0
C      1  0.4472440000000  0.5078360000000  0.5384120000000 1.0
C      1  0.4472480000000  0.4921670000000  0.4615820000000 1.0
C      1  0.5537640000000  0.5077960000000  0.5384680000000 1.0
C      1  0.5537680000000  0.4922010000000  0.4615380000000 1.0
C      1  0.4215390000000  0.4921550000000  0.4437940000000 1.0
C      1  0.4215340000000  0.5078500000000  0.5561980000000 1.0
C      1  0.5794660000000  0.4920400000000  0.4437530000000 1.0
C      1  0.5794610000000  0.5079550000000  0.5562550000000 1.0
C      1  0.4732980000000  0.5107570000000  0.5934390000000 1.0
C      1  0.4733060000000  0.4892450000000  0.4065580000000 1.0
C      1  0.5276410000000  0.5111750000000  0.5933740000000 1.0
C      1  0.5276500000000  0.4888240000000  0.4066290000000 1.0
C      1  0.5772160000000  0.4227870000000  0.5059230000000 1.0
C      1  0.5772210000000  0.5772080000000  0.4940850000000 1.0
C      1  0.4232770000000  0.4226120000000  0.5058030000000 1.0
C      1  0.4232830000000  0.5773930000000  0.4941890000000 1.0
C      1  0.4864730000000  0.4235560000000  0.6034950000000 1.0
C      1  0.4864890000000  0.5764440000000  0.3965040000000 1.0
C      1  0.5132490000000  0.4237680000000  0.6032600000000 1.0
C      1  0.5132640000000  0.5762320000000  0.3967420000000 1.0
C      1  0.5418480000000  0.4334120000000  0.5427640000000 1.0
C      1  0.5418560000000  0.5665850000000  0.4572410000000 1.0
C      1  0.4588090000000  0.4324860000000  0.5428170000000 1.0
C      1  0.4588180000000  0.5675170000000  0.4571790000000 1.0
C      1  0.5492330000000  0.4798440000000  0.4866160000000 1.0
C      1  0.5492330000000  0.5201530000000  0.5133890000000 1.0
C      1  0.4518080000000  0.4797160000000  0.4866010000000 1.0
C      1  0.4518080000000  0.5202870000000  0.5133940000000 1.0
C      1  0.4520450000000  0.4917290000000  0.5915660000000 1.0
C      1  0.4520540000000  0.5082740000000  0.4084290000000 1.0
C      1  0.5488830000000  0.4921000000000  0.5917050000000 1.0
C      1  0.5488930000000  0.5078960000000  0.4083000000000 1.0
C      1  0.4688160000000  0.6318810000000  0.4446040000000 1.0
C      1  0.4688020000000  0.3681210000000  0.5553920000000 1.0
C      1  0.5277570000000  0.6327660000000  0.4442100000000 1.0
C      1  0.5277430000000  0.3672330000000  0.5557930000000 1.0
C      1  0.5149950000000  0.5212990000000  0.4745850000000 1.0
C      1  0.5149910000000  0.4787000000000  0.5254170000000 1.0
C      1  0.4859400000000  0.5213930000000  0.4745600000000 1.0
C      1  0.4859360000000  0.4786080000000  0.5254380000000 1.0
C      1  0.5736300000000  0.5041660000000  0.5855770000000 1.0
C      1  0.5736380000000  0.4958300000000  0.4144300000000 1.0
C      1  0.4273410000000  0.5039330000000  0.5855110000000 1.0
C      1  0.4273490000000  0.4960720000000  0.4144810000000 1.0
C      1  0.4224720000000  0.6056380000000  0.4916220000000 1.0
C      1  0.4224640000000  0.3943670000000  0.5083700000000 1.0
C      1  0.5768980000000  0.6054960000000  0.4919880000000 1.0
C      1  0.5768900000000  0.3944990000000  0.5080200000000 1.0
C      1  0.5588690000000  0.5933670000000  0.4068970000000 1.0
C      1  0.5588530000000  0.4066290000000  0.5931090000000 1.0
C      1  0.4400580000000  0.5922140000000  0.4064250000000 1.0
C      1  0.4400420000000  0.4077900000000  0.5935690000000 1.0
C      1  0.4448180000000  0.5998090000000  0.5555980000000 1.0
C      1  0.4448170000000  0.4001940000000  0.4443960000000 1.0
C      1  0.5550600000000  0.5993940000000  0.5564400000000 1.0
C      1  0.5550590000000  0.4006020000000  0.4435660000000 1.0
C      1  0.5182430000000  0.5801310000000  0.4646990000000 1.0
C      1  0.5182340000000  0.4198680000000  0.5353030000000 1.0
C      1  0.4813520000000  0.5841670000000  0.4631460000000 1.0
C      1  0.4813430000000  0.4158340000000  0.5368520000000 1.0
C      1  0.6144730000000  0.5133480000000  0.4988270000000 1.0
C      1  0.6144720000000  0.4866440000000  0.5011840000000 1.0
C      1  0.3864700000000  0.5133510000000  0.4988140000000 1.0
C      1  0.3864690000000  0.4866560000000  0.5011740000000 1.0
C      1  0.5874540000000  0.6150470000000  0.4415030000000 1.0
C      1  0.5874410000000  0.3849470000000  0.5585060000000 1.0
C      1  0.4105740000000  0.6130810000000  0.4410520000000 1.0
C      1  0.4105610000000  0.3869250000000  0.5589390000000 1.0
C      1  0.4598580000000  0.5279920000000  0.4290520000000 1.0
C      1  0.4598490000000  0.4720110000000  0.5709430000000 1.0
C      1  0.5410580000000  0.5277780000000  0.4287410000000 1.0
C      1  0.5410490000000  0.4722190000000  0.5712640000000 1.0
C      1  0.5335180000000  0.5815290000000  0.5563750000000 1.0
C      1  0.5335180000000  0.4184680000000  0.4436280000000 1.0
C      1  0.4665850000000  0.5822240000000  0.5554430000000 1.0
C      1  0.4665850000000  0.4177780000000  0.4445530000000 1.0
C      1  0.5143870000000  0.5102940000000  0.5670830000000 1.0
C      1  0.5143930000000  0.4897050000000  0.4329180000000 1.0
C      1  0.4865070000000  0.5101210000000  0.5671260000000 1.0
C      1  0.4865140000000  0.4898800000000  0.4328730000000 1.0
C      1  0.5284980000000  0.4330610000000  0.4671610000000 1.0
C      1  0.5284990000000  0.5669370000000  0.5328420000000 1.0
C      1  0.4721600000000  0.4319440000000  0.4682380000000 1.0
C      1  0.4721610000000  0.5680580000000  0.5317590000000 1.0
C      1  0.5675680000000  0.6158980000000  0.4215560000000 1.0
C      1  0.5675520000000  0.3840980000000  0.5784510000000 1.0
C      1  0.4303330000000  0.6144620000000  0.4209440000000 1.0
C      1  0.4303180000000  0.3855430000000  0.5790490000000 1.0
C      1  0.4836490000000  0.6121880000000  0.4570400000000 1.0
C      1  0.4836370000000  0.3878130000000  0.5429580000000 1.0
C      1  0.5125930000000  0.6138500000000  0.4570470000000 1.0
C      1  0.5125810000000  0.3861490000000  0.5429540000000 1.0
C      1  0.4058910000000  0.4399850000000  0.4903040000000 1.0
C      1  0.4058940000000  0.5600220000000  0.5096870000000 1.0
C      1  0.5948420000000  0.4399720000000  0.4904680000000 1.0
C      1  0.5948450000000  0.5600220000000  0.5095410000000 1.0
C      1  0.5666500000000  0.6153340000000  0.5383290000000 1.0
C      1  0.5666460000000  0.3846620000000  0.4616780000000 1.0
C      1  0.4327140000000  0.6157650000000  0.5378390000000 1.0
C      1  0.4327100000000  0.3842390000000  0.4621540000000 1.0
C      1  0.4148400000000  0.5398180000000  0.4686160000000 1.0
C      1  0.4148350000000  0.4601880000000  0.5313760000000 1.0
C      1  0.5862640000000  0.5397190000000  0.4684430000000 1.0
C      1  0.5862580000000  0.4602750000000  0.5315660000000 1.0
C      1  0.4037090000000  0.5548670000000  0.5369940000000 1.0
C      1  0.4037090000000  0.4451390000000  0.4629960000000 1.0
C      1  0.5970720000000  0.5549680000000  0.5368690000000 1.0
C      1  0.5970720000000  0.4450250000000  0.4631410000000 1.0
C      1  0.5131860000000  0.5822690000000  0.5756530000000 1.0
C      1  0.5131890000000  0.4177300000000  0.4243480000000 1.0
C      1  0.4864240000000  0.5825380000000  0.5752410000000 1.0
C      1  0.4864260000000  0.4174630000000  0.4247570000000 1.0
C      1  0.5139340000000  0.5217740000000  0.6153130000000 1.0
C      1  0.5139450000000  0.4782250000000  0.3846880000000 1.0
C      1  0.4868890000000  0.5215160000000  0.6153650000000 1.0
C      1  0.4869000000000  0.4784840000000  0.3846340000000 1.0
C      1  0.5476230000000  0.6352280000000  0.4265090000000 1.0
C      1  0.5476070000000  0.3647690000000  0.5734960000000 1.0
C      1  0.4496600000000  0.6344030000000  0.4260960000000 1.0
C      1  0.4496440000000  0.3656010000000  0.5738990000000 1.0
END
