TITL C-3623289-7120-804 -475.012587666746 125000 -991.776175461564 0 0 169 (C1) n - 1
REM
REM in /home/nfs/bkarasulu/CARBON/AIRSS/Generating-Clusters/LCBOP/Higher-Symm/SD-CG/FIRE-CG
REM
REM
REM
REM
REM
REM ./C.cell (b20cbc046b6831c77cfcea5457e17084)
REM AIRSS Version 0.9.1 bugfix July 2018 build 013d7b7c2542+ Fri, 06 Jul 2018 19:26:36 +0100
REM compiler GCC version 9.2.1 20190827 (Red Hat 9.2.1-1)
REM options -cpp -mtune=generic -march=x86-64 -g -O0 -fpre-include=/usr/include/finclude/math-vector-fortran.h
REM seed -1740718093 -295735272 1816379216 332918047 1389820844 -47062437 554305684 1005562302 -1738357409 -1498100601 1692316551 92992937 680336177 -1828747214 880103848 -42238763 -167255616 1231629071 367575577 -1356057642 -1076368596 -1546841556 130054119 -654080213 -1736895797 -1536311870 1826805392 2031889436 -326123931 -1818073750 1023182232 -391011463 -886482320
REM
CELL 1.54180   50.00000   50.00000   50.00000   90.00000   90.00000   90.00000
LATT -1
SFAC C  
C      1  0.4500210000000  0.4462400000000  0.4572910000000 1.0
C      1  0.5526980000000  0.5533510000000  0.4601300000000 1.0
C      1  0.5500240000000  0.4467630000000  0.5435240000000 1.0
C      1  0.4471010000000  0.5534910000000  0.5392940000000 1.0
C      1  0.4508380000000  0.4706110000000  0.4986100000000 1.0
C      1  0.5469240000000  0.5262930000000  0.4986760000000 1.0
C      1  0.5498690000000  0.4702680000000  0.5019540000000 1.0
C      1  0.4514100000000  0.5264090000000  0.5003590000000 1.0
C      1  0.3834430000000  0.5133890000000  0.4694500000000 1.0
C      1  0.6167290000000  0.4901850000000  0.4697580000000 1.0
C      1  0.6155150000000  0.5135990000000  0.5311230000000 1.0
C      1  0.3830600000000  0.4902100000000  0.5304670000000 1.0
C      1  0.5367430000000  0.5481810000000  0.4834270000000 1.0
C      1  0.4648450000000  0.4518680000000  0.4809130000000 1.0
C      1  0.4625680000000  0.5474840000000  0.5161000000000 1.0
C      1  0.5357180000000  0.4522570000000  0.5197050000000 1.0
C      1  0.5030520000000  0.4264600000000  0.4572680000000 1.0
C      1  0.4984700000000  0.5751390000000  0.4621140000000 1.0
C      1  0.4966910000000  0.4278420000000  0.5422040000000 1.0
C      1  0.5020110000000  0.5710670000000  0.5369260000000 1.0
C      1  0.4033180000000  0.5365590000000  0.5521190000000 1.0
C      1  0.5974640000000  0.4654790000000  0.5510110000000 1.0
C      1  0.5964360000000  0.5364050000000  0.4480010000000 1.0
C      1  0.4018630000000  0.4654570000000  0.4493420000000 1.0
C      1  0.4932880000000  0.5101980000000  0.4935340000000 1.0
C      1  0.5108390000000  0.4681810000000  0.4797140000000 1.0
C      1  0.5042260000000  0.5273680000000  0.5121970000000 1.0
C      1  0.4906340000000  0.4706300000000  0.5199280000000 1.0
C      1  0.4938030000000  0.4460650000000  0.4757290000000 1.0
C      1  0.5118690000000  0.5621980000000  0.4834760000000 1.0
C      1  0.5066690000000  0.4478140000000  0.5243570000000 1.0
C      1  0.4913260000000  0.5515370000000  0.5180250000000 1.0
C      1  0.5248840000000  0.4328220000000  0.6105010000000 1.0
C      1  0.4753640000000  0.5671940000000  0.6064160000000 1.0
C      1  0.4742340000000  0.4329560000000  0.3894780000000 1.0
C      1  0.5238980000000  0.5655750000000  0.3929070000000 1.0
C      1  0.5370240000000  0.4788630000000  0.4778100000000 1.0
C      1  0.4690910000000  0.5121960000000  0.4826800000000 1.0
C      1  0.4643540000000  0.4808940000000  0.5225890000000 1.0
C      1  0.5286590000000  0.5145070000000  0.5181650000000 1.0
C      1  0.5687600000000  0.5030400000000  0.4604130000000 1.0
C      1  0.4342260000000  0.4977500000000  0.4596950000000 1.0
C      1  0.4310340000000  0.5031460000000  0.5397190000000 1.0
C      1  0.5640340000000  0.4975700000000  0.5400310000000 1.0
C      1  0.4671130000000  0.5432700000000  0.4532220000000 1.0
C      1  0.5366420000000  0.4576800000000  0.4404100000000 1.0
C      1  0.5318910000000  0.5414340000000  0.5514780000000 1.0
C      1  0.4630070000000  0.4578120000000  0.5587500000000 1.0
C      1  0.6073450000000  0.4653660000000  0.4771120000000 1.0
C      1  0.3929090000000  0.5374100000000  0.4785480000000 1.0
C      1  0.3925250000000  0.4654500000000  0.5229170000000 1.0
C      1  0.6055090000000  0.5375040000000  0.5223560000000 1.0
C      1  0.5016440000000  0.5721970000000  0.4101540000000 1.0
C      1  0.4975310000000  0.4259310000000  0.4055520000000 1.0
C      1  0.4979360000000  0.5724160000000  0.5891490000000 1.0
C      1  0.5017680000000  0.4260720000000  0.5941140000000 1.0
C      1  0.5341670000000  0.4957530000000  0.5410670000000 1.0
C      1  0.4604330000000  0.5026910000000  0.5420310000000 1.0
C      1  0.4636260000000  0.4954920000000  0.4583680000000 1.0
C      1  0.5394850000000  0.5014620000000  0.4584710000000 1.0
C      1  0.5125950000000  0.3920040000000  0.4949980000000 1.0
C      1  0.4865970000000  0.6124920000000  0.4962340000000 1.0
C      1  0.4873030000000  0.3921230000000  0.5047020000000 1.0
C      1  0.5125410000000  0.6124910000000  0.5044540000000 1.0
C      1  0.5464590000000  0.4432580000000  0.5946680000000 1.0
C      1  0.4530350000000  0.5578220000000  0.5913640000000 1.0
C      1  0.4527410000000  0.4430630000000  0.4056720000000 1.0
C      1  0.5461970000000  0.5563910000000  0.4082030000000 1.0
C      1  0.4294690000000  0.4886670000000  0.4885810000000 1.0
C      1  0.5702340000000  0.5097950000000  0.4903920000000 1.0
C      1  0.5696710000000  0.4891910000000  0.5118070000000 1.0
C      1  0.4288880000000  0.5096340000000  0.5097860000000 1.0
C      1  0.5745730000000  0.4440430000000  0.5923410000000 1.0
C      1  0.4250960000000  0.5568800000000  0.5925640000000 1.0
C      1  0.4246570000000  0.4441510000000  0.4080330000000 1.0
C      1  0.5742050000000  0.5565310000000  0.4075700000000 1.0
C      1  0.5363830000000  0.4044750000000  0.4830070000000 1.0
C      1  0.4634620000000  0.5982950000000  0.4847290000000 1.0
C      1  0.4636050000000  0.4047660000000  0.5166000000000 1.0
C      1  0.5356780000000  0.5979170000000  0.5151060000000 1.0
C      1  0.4611300000000  0.5802920000000  0.4317360000000 1.0
C      1  0.5387780000000  0.4167420000000  0.4268280000000 1.0
C      1  0.5384320000000  0.5808350000000  0.5680300000000 1.0
C      1  0.4609070000000  0.4169440000000  0.5724490000000 1.0
C      1  0.5353980000000  0.5506610000000  0.4361330000000 1.0
C      1  0.4658700000000  0.4490400000000  0.4324130000000 1.0
C      1  0.4636670000000  0.5508140000000  0.5637520000000 1.0
C      1  0.5335430000000  0.4496780000000  0.5679210000000 1.0
C      1  0.5808750000000  0.5552010000000  0.4667800000000 1.0
C      1  0.4080630000000  0.4447340000000  0.4711880000000 1.0
C      1  0.4187790000000  0.5555010000000  0.5334290000000 1.0
C      1  0.5915620000000  0.4447760000000  0.5288500000000 1.0
C      1  0.5839540000000  0.4470750000000  0.4777660000000 1.0
C      1  0.4166860000000  0.5541150000000  0.4816280000000 1.0
C      1  0.4161520000000  0.4474400000000  0.5218670000000 1.0
C      1  0.5813280000000  0.5538210000000  0.5193680000000 1.0
C      1  0.5176660000000  0.4758140000000  0.5604490000000 1.0
C      1  0.4780490000000  0.5235740000000  0.5574020000000 1.0
C      1  0.4814850000000  0.4754730000000  0.4394130000000 1.0
C      1  0.5204160000000  0.5240380000000  0.4443430000000 1.0
C      1  0.5731970000000  0.5221680000000  0.5519560000000 1.0
C      1  0.4222210000000  0.4791820000000  0.5546210000000 1.0
C      1  0.4260770000000  0.5233260000000  0.4484070000000 1.0
C      1  0.5779720000000  0.4789890000000  0.4449430000000 1.0
C      1  0.4737920000000  0.4354840000000  0.5942850000000 1.0
C      1  0.5253760000000  0.5626190000000  0.5891260000000 1.0
C      1  0.5256140000000  0.4351770000000  0.4050910000000 1.0
C      1  0.4745190000000  0.5618590000000  0.4113970000000 1.0
C      1  0.4841860000000  0.5752750000000  0.5609300000000 1.0
C      1  0.5149500000000  0.4235720000000  0.5656500000000 1.0
C      1  0.5158330000000  0.5763290000000  0.4377520000000 1.0
C      1  0.4844770000000  0.4229350000000  0.4340930000000 1.0
C      1  0.4208530000000  0.4325310000000  0.4967430000000 1.0
C      1  0.5779820000000  0.5694330000000  0.4946460000000 1.0
C      1  0.5789920000000  0.4324080000000  0.5030630000000 1.0
C      1  0.4209050000000  0.5698810000000  0.5058750000000 1.0
C      1  0.4236920000000  0.5302520000000  0.4212850000000 1.0
C      1  0.5805340000000  0.4716180000000  0.4174010000000 1.0
C      1  0.5764330000000  0.5297470000000  0.5789460000000 1.0
C      1  0.4198010000000  0.4716730000000  0.5820650000000 1.0
C      1  0.4686920000000  0.5280290000000  0.4013000000000 1.0
C      1  0.5335250000000  0.4699140000000  0.3963690000000 1.0
C      1  0.5315530000000  0.5286820000000  0.5999880000000 1.0
C      1  0.4663820000000  0.4702090000000  0.6033880000000 1.0
C      1  0.5074960000000  0.5284280000000  0.5577370000000 1.0
C      1  0.4881050000000  0.4706430000000  0.5631350000000 1.0
C      1  0.4913840000000  0.5302740000000  0.4472720000000 1.0
C      1  0.5112180000000  0.4705090000000  0.4365850000000 1.0
C      1  0.5610560000000  0.4841020000000  0.4006950000000 1.0
C      1  0.4414690000000  0.5157620000000  0.4044730000000 1.0
C      1  0.4390110000000  0.4843160000000  0.5989930000000 1.0
C      1  0.5587360000000  0.5159440000000  0.5964430000000 1.0
C      1  0.4358220000000  0.4550880000000  0.5435720000000 1.0
C      1  0.5599360000000  0.5449580000000  0.5390450000000 1.0
C      1  0.5646420000000  0.4543160000000  0.4554670000000 1.0
C      1  0.4382970000000  0.5456620000000  0.4627020000000 1.0
C      1  0.4295380000000  0.4892260000000  0.4070500000000 1.0
C      1  0.5704780000000  0.5117060000000  0.4036560000000 1.0
C      1  0.5701510000000  0.4891490000000  0.5939420000000 1.0
C      1  0.4292830000000  0.5118590000000  0.5962510000000 1.0
C      1  0.4147770000000  0.4675620000000  0.4217040000000 1.0
C      1  0.5853770000000  0.5327670000000  0.4194250000000 1.0
C      1  0.5846520000000  0.4675080000000  0.5788390000000 1.0
C      1  0.4143240000000  0.5329590000000  0.5806390000000 1.0
C      1  0.4715220000000  0.5860510000000  0.4593120000000 1.0
C      1  0.5295340000000  0.4143400000000  0.4556340000000 1.0
C      1  0.5282210000000  0.5842200000000  0.5398320000000 1.0
C      1  0.4704600000000  0.4151090000000  0.5436370000000 1.0
C      1  0.5105970000000  0.4894300000000  0.3922800000000 1.0
C      1  0.4912900000000  0.5094820000000  0.3947240000000 1.0
C      1  0.4894190000000  0.4896750000000  0.6080290000000 1.0
C      1  0.5088260000000  0.5098390000000  0.6064650000000 1.0
C      1  0.3862970000000  0.4885910000000  0.4583690000000 1.0
C      1  0.6134370000000  0.5153160000000  0.4591240000000 1.0
C      1  0.6128990000000  0.4887430000000  0.5420790000000 1.0
C      1  0.3863560000000  0.5153880000000  0.5410490000000 1.0
C      1  0.5350730000000  0.4027810000000  0.5534470000000 1.0
C      1  0.4657500000000  0.5984330000000  0.5524640000000 1.0
C      1  0.4642220000000  0.4021930000000  0.4462400000000 1.0
C      1  0.5358280000000  0.5987380000000  0.4459740000000 1.0
C      1  0.4421600000000  0.5919620000000  0.5049800000000 1.0
C      1  0.5572020000000  0.4113020000000  0.5038880000000 1.0
C      1  0.5572030000000  0.5919900000000  0.4948780000000 1.0
C      1  0.4425340000000  0.4112710000000  0.4958700000000 1.0
C      1  0.5501890000000  0.4009500000000  0.5305650000000 1.0
C      1  0.4491360000000  0.6025530000000  0.5312650000000 1.0
C      1  0.4492290000000  0.4005560000000  0.4692410000000 1.0
C      1  0.5509940000000  0.6027220000000  0.4683780000000 1.0
C      1  0.4996810000000  0.4847820000000  0.4982710000000 1.0
END
