TITL C-3623283-6828-237 39864.4772484085 125000 -298.826356721674 0 0 50 (C3h) n - 1
REM
REM in /home/nfs/bkarasulu/CARBON/AIRSS/Generating-Clusters/LCBOP/Higher-Symm/SD-CG/FIRE-CG
REM
REM
REM
REM
REM
REM ./C.cell (b20cbc046b6831c77cfcea5457e17084)
REM AIRSS Version 0.9.1 bugfix July 2018 build 013d7b7c2542+ Fri, 06 Jul 2018 19:26:36 +0100
REM compiler GCC version 9.2.1 20190827 (Red Hat 9.2.1-1)
REM options -cpp -mtune=generic -march=x86-64 -g -O0 -fpre-include=/usr/include/finclude/math-vector-fortran.h
REM seed -941769803 -1053932811 1700749843 -667860988 1932397997 -937133571 1042442757 1855847759 1901524883 1308228329 -663037583 -2120093862 1601702953 -1286274312 1953621819 1907765690 1735928435 1862283533 693247883 -799586984 646664855 -312597975 -1520318207 -1750652192 771352799 1800572319 -2076273679 -297683760 1721137402 -740945539 2015484002 -886501840 2077447377
REM
CELL 1.54180   50.00000   50.00000   50.00000   90.00000   90.00000   90.00000
LATT -1
SFAC C  
C      1  0.5585800000000  0.5008880000000  0.5408360000000 1.0
C      1  0.5585430000000  0.4647050000000  0.4803770000000 1.0
C      1  0.5584550000000  0.5352670000000  0.4792370000000 1.0
C      1  0.4453500000000  0.5008920000000  0.5408350000000 1.0
C      1  0.4453840000000  0.4647090000000  0.4803770000000 1.0
C      1  0.4454780000000  0.5352710000000  0.4792360000000 1.0
C      1  0.5578060000000  0.4618490000000  0.5107350000000 1.0
C      1  0.5578340000000  0.5103510000000  0.4616510000000 1.0
C      1  0.5578690000000  0.5285820000000  0.5280800000000 1.0
C      1  0.4461220000000  0.4618530000000  0.5107350000000 1.0
C      1  0.4460970000000  0.5103550000000  0.4616510000000 1.0
C      1  0.4460630000000  0.5285860000000  0.5280790000000 1.0
C      1  0.5307400000000  0.4584660000000  0.5216410000000 1.0
C      1  0.5307690000000  0.5025720000000  0.4532350000000 1.0
C      1  0.5307750000000  0.5397460000000  0.5256370000000 1.0
C      1  0.4731870000000  0.4584680000000  0.5216410000000 1.0
C      1  0.4731620000000  0.5025740000000  0.4532350000000 1.0
C      1  0.4731570000000  0.5397480000000  0.5256370000000 1.0
C      1  0.5992520000000  0.4870360000000  0.5169600000000 1.0
C      1  0.5991530000000  0.4922920000000  0.4810420000000 1.0
C      1  0.5992320000000  0.5215510000000  0.5025200000000 1.0
C      1  0.4046770000000  0.4870420000000  0.5169620000000 1.0
C      1  0.4047770000000  0.4923020000000  0.4810410000000 1.0
C      1  0.4047000000000  0.5215570000000  0.5025180000000 1.0
C      1  0.5740040000000  0.4807870000000  0.5259410000000 1.0
C      1  0.5740320000000  0.4877240000000  0.4705690000000 1.0
C      1  0.5739750000000  0.5323720000000  0.5040400000000 1.0
C      1  0.4299250000000  0.4807920000000  0.5259410000000 1.0
C      1  0.4298970000000  0.4877300000000  0.4705690000000 1.0
C      1  0.4299570000000  0.5323770000000  0.5040390000000 1.0
C      1  0.5157640000000  0.5157360000000  0.5229680000000 1.0
C      1  0.5157590000000  0.4727810000000  0.5021660000000 1.0
C      1  0.5157610000000  0.5122650000000  0.4753650000000 1.0
C      1  0.4881660000000  0.5157370000000  0.5229680000000 1.0
C      1  0.4881690000000  0.4727820000000  0.5021660000000 1.0
C      1  0.4881700000000  0.5122660000000  0.4753650000000 1.0
C      1  0.5176130000000  0.5570190000000  0.5045070000000 1.0
C      1  0.5176210000000  0.4682070000000  0.5471580000000 1.0
C      1  0.5176290000000  0.4756170000000  0.4488740000000 1.0
C      1  0.4863210000000  0.5570210000000  0.5045070000000 1.0
C      1  0.4863060000000  0.4682080000000  0.5471580000000 1.0
C      1  0.4862990000000  0.4756180000000  0.4488740000000 1.0
C      1  0.4673410000000  0.4571320000000  0.4621450000000 1.0
C      1  0.4674560000000  0.5548000000000  0.4817980000000 1.0
C      1  0.4673560000000  0.4889610000000  0.5565210000000 1.0
C      1  0.5365860000000  0.4571300000000  0.4621450000000 1.0
C      1  0.5364790000000  0.5547980000000  0.4817980000000 1.0
C      1  0.5365730000000  0.4889580000000  0.5565210000000 1.0
C      1  0.5243620000000  0.5002600000000  0.5001660000000 1.0
C      1  0.4795680000000  0.5002620000000  0.5001660000000 1.0
END
