TITL C-3623284-6838-149 -6.84065668055527 125000 -307.394146129478 0 0 51 (C1) n - 1
REM
REM in /home/nfs/bkarasulu/CARBON/AIRSS/Generating-Clusters/LCBOP/Higher-Symm/SD-CG/FIRE-CG
REM
REM
REM
REM
REM
REM ./C.cell (b20cbc046b6831c77cfcea5457e17084)
REM AIRSS Version 0.9.1 bugfix July 2018 build 013d7b7c2542+ Fri, 06 Jul 2018 19:26:36 +0100
REM compiler GCC version 9.2.1 20190827 (Red Hat 9.2.1-1)
REM options -cpp -mtune=generic -march=x86-64 -g -O0 -fpre-include=/usr/include/finclude/math-vector-fortran.h
REM seed -2094059501 387838159 2057933151 374910809 -131396430 -678917547 -1954492830 1253502762 470787938 -868653566 -2045079084 1149572344 -550959526 1829823496 1133343138 1881817787 -2038649056 1173464135 -2001053286 238880344 101136925 -1570750597 50627804 -229186544 745418445 2081303268 2068475670 482578893 2024121852 -171199985 293259043 -224502893 951343873
REM
CELL 1.54180   50.00000   50.00000   50.00000   90.00000   90.00000   90.00000
LATT -1
SFAC C  
C      1  0.4647710000000  0.4845420000000  0.4796290000000 1.0
C      1  0.5399480000000  0.4854340000000  0.5233510000000 1.0
C      1  0.4647150000000  0.5198990000000  0.4740040000000 1.0
C      1  0.5381440000000  0.5144030000000  0.5169140000000 1.0
C      1  0.5346010000000  0.4827900000000  0.4533490000000 1.0
C      1  0.4671770000000  0.4874740000000  0.5431880000000 1.0
C      1  0.5371750000000  0.5109600000000  0.4505370000000 1.0
C      1  0.4712200000000  0.5151300000000  0.5444500000000 1.0
C      1  0.4938430000000  0.4803600000000  0.4801020000000 1.0
C      1  0.5174100000000  0.4773410000000  0.5393070000000 1.0
C      1  0.4931460000000  0.5221500000000  0.4677820000000 1.0
C      1  0.5095100000000  0.5168390000000  0.5145030000000 1.0
C      1  0.5097980000000  0.5296670000000  0.5893210000000 1.0
C      1  0.4680180000000  0.5404640000000  0.4245100000000 1.0
C      1  0.5153800000000  0.4507560000000  0.5837470000000 1.0
C      1  0.4777540000000  0.4612710000000  0.4233680000000 1.0
C      1  0.5138800000000  0.4681960000000  0.4647480000000 1.0
C      1  0.4895340000000  0.4704670000000  0.5402030000000 1.0
C      1  0.5152890000000  0.5287100000000  0.4500050000000 1.0
C      1  0.4926570000000  0.5281390000000  0.5335290000000 1.0
C      1  0.5487900000000  0.4674450000000  0.5020540000000 1.0
C      1  0.4515880000000  0.4706760000000  0.5006240000000 1.0
C      1  0.5473210000000  0.5315830000000  0.4946800000000 1.0
C      1  0.4579050000000  0.5366720000000  0.4971490000000 1.0
C      1  0.5601930000000  0.4811080000000  0.4802400000000 1.0
C      1  0.4457660000000  0.4875550000000  0.5225200000000 1.0
C      1  0.5565240000000  0.5152300000000  0.4729140000000 1.0
C      1  0.4454240000000  0.5222410000000  0.5181220000000 1.0
C      1  0.4681690000000  0.5140650000000  0.4183240000000 1.0
C      1  0.5130180000000  0.5032070000000  0.5933070000000 1.0
C      1  0.4720120000000  0.4872870000000  0.4186680000000 1.0
C      1  0.5149320000000  0.4763280000000  0.5924330000000 1.0
C      1  0.5208070000000  0.5560620000000  0.4527940000000 1.0
C      1  0.4884490000000  0.5564140000000  0.5317340000000 1.0
C      1  0.5195160000000  0.4410150000000  0.4717830000000 1.0
C      1  0.4838280000000  0.4442120000000  0.5291920000000 1.0
C      1  0.4954780000000  0.5677970000000  0.5565790000000 1.0
C      1  0.4955730000000  0.5702610000000  0.4573280000000 1.0
C      1  0.5059530000000  0.4275750000000  0.5374860000000 1.0
C      1  0.5037880000000  0.4264610000000  0.4528080000000 1.0
C      1  0.4754850000000  0.5624700000000  0.4387300000000 1.0
C      1  0.5040590000000  0.5536520000000  0.5782810000000 1.0
C      1  0.4876420000000  0.4384090000000  0.4341180000000 1.0
C      1  0.5129420000000  0.4312370000000  0.5650790000000 1.0
C      1  0.5310690000000  0.5554000000000  0.4877000000000 1.0
C      1  0.4775030000000  0.5590520000000  0.5046690000000 1.0
C      1  0.5347820000000  0.4415360000000  0.4965970000000 1.0
C      1  0.4632960000000  0.4454120000000  0.5093310000000 1.0
C      1  0.5262280000000  0.4247890000000  0.5178300000000 1.0
C      1  0.4961420000000  0.5694700000000  0.4860110000000 1.0
C      1  0.5027100000000  0.5058320000000  0.4897260000000 1.0
END
