TITL C-3623284-6838-1707 0.00720158408136771 125000 -203.683261840357 0 0 35 (C1) n - 1
REM
REM in /home/nfs/bkarasulu/CARBON/AIRSS/Generating-Clusters/LCBOP/Higher-Symm/SD-CG/FIRE-CG
REM
REM
REM
REM
REM
REM ./C.cell (b20cbc046b6831c77cfcea5457e17084)
REM AIRSS Version 0.9.1 bugfix July 2018 build 013d7b7c2542+ Fri, 06 Jul 2018 19:26:36 +0100
REM compiler GCC version 9.2.1 20190827 (Red Hat 9.2.1-1)
REM options -cpp -mtune=generic -march=x86-64 -g -O0 -fpre-include=/usr/include/finclude/math-vector-fortran.h
REM seed 1566584082 1327777663 1633368342 1909956278 268136928 -918868377 -1650534440 -391662597 1231922018 -592224912 -870083428 1896174942 -1202389682 -815726263 30364028 1753449762 2023399999 -459520655 -959504455 -1308810910 -654507682 458626436 1093996845 -536472877 -516726469 -1035812771 1825042415 -168496582 910579154 1421659192 83738992 -373526270 205421620
REM
CELL 1.54180   50.00000   50.00000   50.00000   90.00000   90.00000   90.00000
LATT -1
SFAC C  
C      1  0.4382870000000  0.5705940000000  0.3935910000000 1.0
C      1  0.5207240000000  0.4531760000000  0.5293930000000 1.0
C      1  0.4998200000000  0.4798560000000  0.4965140000000 1.0
C      1  0.5102350000000  0.4788040000000  0.5868510000000 1.0
C      1  0.4804320000000  0.5144330000000  0.4647640000000 1.0
C      1  0.5037500000000  0.4929860000000  0.3983350000000 1.0
C      1  0.5296350000000  0.5816750000000  0.5212370000000 1.0
C      1  0.4842000000000  0.4459820000000  0.5593700000000 1.0
C      1  0.4365150000000  0.4310590000000  0.5802520000000 1.0
C      1  0.4803120000000  0.5169560000000  0.4359260000000 1.0
C      1  0.5235340000000  0.4773990000000  0.5134450000000 1.0
C      1  0.4690720000000  0.5326330000000  0.4822800000000 1.0
C      1  0.5300010000000  0.5076700000000  0.5508110000000 1.0
C      1  0.5088960000000  0.4895960000000  0.3730150000000 1.0
C      1  0.4684340000000  0.5544150000000  0.4974570000000 1.0
C      1  0.5081230000000  0.4533610000000  0.5748760000000 1.0
C      1  0.4599000000000  0.4381910000000  0.5700460000000 1.0
C      1  0.4134920000000  0.4240710000000  0.5902890000000 1.0
C      1  0.4657210000000  0.5353390000000  0.4212890000000 1.0
C      1  0.5762220000000  0.4992800000000  0.4957070000000 1.0
C      1  0.5297980000000  0.4477800000000  0.5560640000000 1.0
C      1  0.4980610000000  0.4968620000000  0.4251340000000 1.0
C      1  0.4971800000000  0.4918540000000  0.4716410000000 1.0
C      1  0.4907120000000  0.4482080000000  0.5312780000000 1.0
C      1  0.5088010000000  0.4815510000000  0.4471710000000 1.0
C      1  0.5267260000000  0.4612280000000  0.4453160000000 1.0
C      1  0.4800300000000  0.4627640000000  0.5089740000000 1.0
C      1  0.4804790000000  0.5742930000000  0.5103810000000 1.0
C      1  0.5582240000000  0.5130960000000  0.5109510000000 1.0
C      1  0.5033300000000  0.5850040000000  0.5188480000000 1.0
C      1  0.5503340000000  0.5652040000000  0.5184240000000 1.0
C      1  0.4518860000000  0.5531010000000  0.4073270000000 1.0
C      1  0.5198190000000  0.5009860000000  0.5747320000000 1.0
C      1  0.5372820000000  0.4996630000000  0.5246350000000 1.0
C      1  0.5600360000000  0.5409300000000  0.5136740000000 1.0
END
