TITL C-3623286-7563-1558 -9.33861752270619e-08 125000 -18.9723641415035 0 0 4 (D(inf)h) n - 1
REM
REM in /home/nfs/bkarasulu/CARBON/AIRSS/Generating-Clusters/LCBOP/Higher-Symm/SD-CG/FIRE-CG
REM
REM
REM
REM
REM
REM ./C.cell (b20cbc046b6831c77cfcea5457e17084)
REM AIRSS Version 0.9.1 bugfix July 2018 build 013d7b7c2542+ Fri, 06 Jul 2018 19:26:36 +0100
REM compiler GCC version 9.2.1 20190827 (Red Hat 9.2.1-1)
REM options -cpp -mtune=generic -march=x86-64 -g -O0 -fpre-include=/usr/include/finclude/math-vector-fortran.h
REM seed 394352163 1491449369 -1008482024 -74934310 -739927283 -132303288 -981252095 -934447474 -99520096 331946612 -1194051739 -738639461 -223642542 -1712902244 663323097 2087583559 -150323577 -261151694 -1197697455 985842967 849717554 -1187837873 1901063032 -73866243 -105677464 1912821787 736450667 -319708200 1939719313 1838228740 -880847522 2091255543 779908380
REM
CELL 1.54180   50.00000   50.00000   50.00000   90.00000   90.00000   90.00000
LATT -1
SFAC C  
C      1  0.4999250000000  0.4960940000000  0.4606730000000 1.0
C      1  0.4999250000000  0.4960940000000  0.4867430000000 1.0
C      1  0.4999250000000  0.4960940000000  0.5393270000000 1.0
C      1  0.4999250000000  0.4960940000000  0.5132570000000 1.0
END
