TITL C-3623287-7182-809 0.00690982079091226 125000 -176.423098698609 0 0 29 (C1) n - 1
REM
REM in /home/nfs/bkarasulu/CARBON/AIRSS/Generating-Clusters/LCBOP/Higher-Symm/SD-CG/FIRE-CG
REM
REM
REM
REM
REM
REM ./C.cell (b20cbc046b6831c77cfcea5457e17084)
REM AIRSS Version 0.9.1 bugfix July 2018 build 013d7b7c2542+ Fri, 06 Jul 2018 19:26:36 +0100
REM compiler GCC version 9.2.1 20190827 (Red Hat 9.2.1-1)
REM options -cpp -mtune=generic -march=x86-64 -g -O0 -fpre-include=/usr/include/finclude/math-vector-fortran.h
REM seed -255662858 -477377439 1529999544 -1538812019 1354549034 459748756 2117366231 76368312 -738246235 1792545700 1090192008 -341441691 -1566617067 764910198 -2121667299 679306581 -532973017 1252122370 -1138035559 871811960 -268315106 919103034 -39428394 1796186963 355858753 2123599365 -1973196718 1726134930 1458692976 885546271 -571754555 -1498389298 -835491549
REM
CELL 1.54180   50.00000   50.00000   50.00000   90.00000   90.00000   90.00000
LATT -1
SFAC C  
C      1  0.4938950000000  0.4825210000000  0.4663020000000 1.0
C      1  0.5006900000000  0.4926850000000  0.5384460000000 1.0
C      1  0.4651420000000  0.5916140000000  0.4373730000000 1.0
C      1  0.4413420000000  0.5142630000000  0.5320270000000 1.0
C      1  0.5403980000000  0.4766400000000  0.4738180000000 1.0
C      1  0.5448390000000  0.4840630000000  0.5238330000000 1.0
C      1  0.4745770000000  0.5480130000000  0.5224330000000 1.0
C      1  0.4854140000000  0.5522820000000  0.4657410000000 1.0
C      1  0.4833840000000  0.4513070000000  0.5232910000000 1.0
C      1  0.4809900000000  0.4471640000000  0.4950660000000 1.0
C      1  0.5355680000000  0.5050230000000  0.4673960000000 1.0
C      1  0.5401680000000  0.5132370000000  0.5225300000000 1.0
C      1  0.5163570000000  0.4620910000000  0.4671820000000 1.0
C      1  0.5231400000000  0.4723050000000  0.5388740000000 1.0
C      1  0.5064550000000  0.5085530000000  0.4682640000000 1.0
C      1  0.5114850000000  0.5168850000000  0.5265370000000 1.0
C      1  0.5046000000000  0.4393520000000  0.4801560000000 1.0
C      1  0.5095770000000  0.4472630000000  0.5352470000000 1.0
C      1  0.4956190000000  0.5338130000000  0.5100230000000 1.0
C      1  0.4957440000000  0.5314630000000  0.4812710000000 1.0
C      1  0.4711280000000  0.4712260000000  0.4802880000000 1.0
C      1  0.4757770000000  0.4788310000000  0.5324740000000 1.0
C      1  0.4527800000000  0.4911740000000  0.5209840000000 1.0
C      1  0.4504050000000  0.4852170000000  0.4932920000000 1.0
C      1  0.4510110000000  0.5394050000000  0.5322150000000 1.0
C      1  0.4752260000000  0.5720870000000  0.4513950000000 1.0
C      1  0.5549110000000  0.5288900000000  0.5043440000000 1.0
C      1  0.5528520000000  0.5248060000000  0.4775920000000 1.0
C      1  0.5527890000000  0.4721780000000  0.4991340000000 1.0
END
