TITL C-3623289-7120-890 -2.17362326190427e-07 125000 -469.301350338071 0 0 74 (C3h) n - 1
REM
REM in /home/nfs/bkarasulu/CARBON/AIRSS/Generating-Clusters/LCBOP/Higher-Symm/SD-CG/FIRE-CG
REM
REM
REM
REM
REM
REM ./C.cell (b20cbc046b6831c77cfcea5457e17084)
REM AIRSS Version 0.9.1 bugfix July 2018 build 013d7b7c2542+ Fri, 06 Jul 2018 19:26:36 +0100
REM compiler GCC version 9.2.1 20190827 (Red Hat 9.2.1-1)
REM options -cpp -mtune=generic -march=x86-64 -g -O0 -fpre-include=/usr/include/finclude/math-vector-fortran.h
REM seed -1497317069 -177429177 141566210 730549927 -907506540 1919863027 -2144529272 1799446893 764714656 -639827253 1844230550 -1640141299 1824338868 -1099061677 -1502910633 895576627 838425147 657447432 943417004 -1881978664 119613653 -1075673164 -1369291623 59480693 -154696549 -292218966 -1364708161 -546285696 1701529354 -1018133403 -1246952677 519563901 -648304782
REM
CELL 1.54180   50.00000   50.00000   50.00000   90.00000   90.00000   90.00000
LATT -1
SFAC C  
C      1  0.4587900000000  0.5105160000000  0.5729760000000 1.0
C      1  0.5297210000000  0.5311440000000  0.5729760000000 1.0
C      1  0.5121200000000  0.4594020000000  0.5729760000000 1.0
C      1  0.4587900000000  0.5105160000000  0.4249830000000 1.0
C      1  0.5297210000000  0.5311430000000  0.4249830000000 1.0
C      1  0.5121190000000  0.4594020000000  0.4249830000000 1.0
C      1  0.4913410000000  0.5265660000000  0.5138510000000 1.0
C      1  0.5273450000000  0.4949280000000  0.5138510000000 1.0
C      1  0.4819440000000  0.4795670000000  0.5138510000000 1.0
C      1  0.4913410000000  0.5265660000000  0.4841090000000 1.0
C      1  0.5273450000000  0.4949280000000  0.4841090000000 1.0
C      1  0.4819440000000  0.4795670000000  0.4841090000000 1.0
C      1  0.5313650000000  0.4789090000000  0.4183960000000 1.0
C      1  0.4660610000000  0.4840950000000  0.4183960000000 1.0
C      1  0.5032040000000  0.5380570000000  0.4183960000000 1.0
C      1  0.5313650000000  0.4789090000000  0.5795640000000 1.0
C      1  0.4660610000000  0.4840960000000  0.5795640000000 1.0
C      1  0.5032050000000  0.5380570000000  0.5795640000000 1.0
C      1  0.4855010000000  0.4657210000000  0.4180410000000 1.0
C      1  0.4775720000000  0.5304090000000  0.4180410000000 1.0
C      1  0.5375580000000  0.5049310000000  0.4180410000000 1.0
C      1  0.4855010000000  0.4657210000000  0.5799190000000 1.0
C      1  0.4775720000000  0.5304090000000  0.5799190000000 1.0
C      1  0.5375580000000  0.5049320000000  0.5799190000000 1.0
C      1  0.4992730000000  0.5873600000000  0.4627050000000 1.0
C      1  0.5760280000000  0.4576620000000  0.4627060000000 1.0
C      1  0.4253290000000  0.4560390000000  0.4627060000000 1.0
C      1  0.4992730000000  0.5873600000000  0.5352540000000 1.0
C      1  0.5760280000000  0.4576630000000  0.5352540000000 1.0
C      1  0.4253290000000  0.4560390000000  0.5352540000000 1.0
C      1  0.5703260000000  0.4837600000000  0.5350340000000 1.0
C      1  0.4507820000000  0.4479290000000  0.5350340000000 1.0
C      1  0.4795230000000  0.5693720000000  0.5350340000000 1.0
C      1  0.5703260000000  0.4837600000000  0.4629250000000 1.0
C      1  0.4507820000000  0.4479290000000  0.4629260000000 1.0
C      1  0.4795230000000  0.5693720000000  0.4629250000000 1.0
C      1  0.4154410000000  0.5009590000000  0.4845970000000 1.0
C      1  0.5431180000000  0.5734630000000  0.4845960000000 1.0
C      1  0.5420710000000  0.4266390000000  0.4845970000000 1.0
C      1  0.4154410000000  0.5009590000000  0.5133630000000 1.0
C      1  0.5431180000000  0.5734630000000  0.5133630000000 1.0
C      1  0.5420710000000  0.4266400000000  0.5133630000000 1.0
C      1  0.4719830000000  0.5447500000000  0.5243030000000 1.0
C      1  0.5527720000000  0.5026010000000  0.5243030000000 1.0
C      1  0.4758760000000  0.4537100000000  0.5243030000000 1.0
C      1  0.4719830000000  0.5447500000000  0.4736560000000 1.0
C      1  0.5527720000000  0.5026010000000  0.4736560000000 1.0
C      1  0.4758760000000  0.4537100000000  0.4736560000000 1.0
C      1  0.5176810000000  0.4294140000000  0.4698560000000 1.0
C      1  0.4300390000000  0.5206940000000  0.4698560000000 1.0
C      1  0.5529110000000  0.5509540000000  0.4698560000000 1.0
C      1  0.5176810000000  0.4294140000000  0.5281040000000 1.0
C      1  0.4300390000000  0.5206940000000  0.5281040000000 1.0
C      1  0.5529110000000  0.5509540000000  0.5281040000000 1.0
C      1  0.4937310000000  0.4338340000000  0.5134210000000 1.0
C      1  0.4458420000000  0.5392250000000  0.5134210000000 1.0
C      1  0.5610580000000  0.5280030000000  0.5134210000000 1.0
C      1  0.4937310000000  0.4338340000000  0.4845390000000 1.0
C      1  0.4458420000000  0.5392250000000  0.4845390000000 1.0
C      1  0.5610580000000  0.5280030000000  0.4845380000000 1.0
C      1  0.5656900000000  0.4345070000000  0.5266470000000 1.0
C      1  0.4104460000000  0.4765700000000  0.5266470000000 1.0
C      1  0.5244950000000  0.5899840000000  0.5266470000000 1.0
C      1  0.5656900000000  0.4345070000000  0.4713130000000 1.0
C      1  0.4104460000000  0.4765700000000  0.4713130000000 1.0
C      1  0.5244950000000  0.5899840000000  0.4713130000000 1.0
C      1  0.5178170000000  0.4384370000000  0.4429730000000 1.0
C      1  0.4377850000000  0.5160640000000  0.4429730000000 1.0
C      1  0.5450280000000  0.5465600000000  0.4429730000000 1.0
C      1  0.5178170000000  0.4384370000000  0.5549870000000 1.0
C      1  0.4377850000000  0.5160640000000  0.5549870000000 1.0
C      1  0.5450280000000  0.5465600000000  0.5549870000000 1.0
C      1  0.5002100000000  0.5003540000000  0.4750830000000 1.0
C      1  0.5002100000000  0.5003540000000  0.5228770000000 1.0
END
