TITL C-3623284-6838-1955 5.98170711614777e-05 125000 -482.579224149068 0 0 79 (C1) n - 1
REM
REM in /home/nfs/bkarasulu/CARBON/AIRSS/Generating-Clusters/LCBOP/Higher-Symm/SD-CG/FIRE-CG
REM
REM
REM
REM
REM
REM ./C.cell (b20cbc046b6831c77cfcea5457e17084)
REM AIRSS Version 0.9.1 bugfix July 2018 build 013d7b7c2542+ Fri, 06 Jul 2018 19:26:36 +0100
REM compiler GCC version 9.2.1 20190827 (Red Hat 9.2.1-1)
REM options -cpp -mtune=generic -march=x86-64 -g -O0 -fpre-include=/usr/include/finclude/math-vector-fortran.h
REM seed -1409058537 813012629 468204960 1753386488 -809046056 -126336839 478207807 -749730171 -1940918518 -567490654 -1690571669 981330596 1058031685 1547454832 -1378321034 1637998178 1304580964 -575204585 687358693 -137986985 1134636779 -2017739843 -731167316 -1701735224 633935046 268886516 1172051742 423179760 37422126 -1960720249 -1018538655 -1986799766 -892663130
REM
CELL 1.54180   50.00000   50.00000   50.00000   90.00000   90.00000   90.00000
LATT -1
SFAC C  
C      1  0.4391840000000  0.4885310000000  0.5743640000000 1.0
C      1  0.5606320000000  0.4883470000000  0.5765020000000 1.0
C      1  0.5157890000000  0.5307640000000  0.5132710000000 1.0
C      1  0.4862730000000  0.5308240000000  0.5127380000000 1.0
C      1  0.4324620000000  0.4494450000000  0.5162790000000 1.0
C      1  0.5689870000000  0.4490140000000  0.5190260000000 1.0
C      1  0.5329110000000  0.5533520000000  0.4741120000000 1.0
C      1  0.4705120000000  0.5531540000000  0.4728670000000 1.0
C      1  0.5887760000000  0.5281420000000  0.5217700000000 1.0
C      1  0.4131230000000  0.5285130000000  0.5187370000000 1.0
C      1  0.5128880000000  0.4721160000000  0.5909280000000 1.0
C      1  0.4863390000000  0.4721470000000  0.5904550000000 1.0
C      1  0.4707910000000  0.5512040000000  0.5009880000000 1.0
C      1  0.5317060000000  0.5511850000000  0.5021900000000 1.0
C      1  0.5746470000000  0.5048450000000  0.4763110000000 1.0
C      1  0.4286140000000  0.5053440000000  0.4736260000000 1.0
C      1  0.5590470000000  0.4565820000000  0.4689090000000 1.0
C      1  0.4445480000000  0.4570870000000  0.4666230000000 1.0
C      1  0.4827580000000  0.5046550000000  0.3620980000000 1.0
C      1  0.4791700000000  0.4972720000000  0.3373630000000 1.0
C      1  0.4873510000000  0.4271090000000  0.4379670000000 1.0
C      1  0.5171730000000  0.4270110000000  0.4385760000000 1.0
C      1  0.5586180000000  0.4749100000000  0.5122550000000 1.0
C      1  0.4432670000000  0.4752850000000  0.5100010000000 1.0
C      1  0.5816490000000  0.5288050000000  0.5488800000000 1.0
C      1  0.4193600000000  0.5291180000000  0.5460670000000 1.0
C      1  0.5387190000000  0.5775880000000  0.5890130000000 1.0
C      1  0.4612250000000  0.5777070000000  0.5876050000000 1.0
C      1  0.5402300000000  0.5730240000000  0.5174840000000 1.0
C      1  0.4618000000000  0.5731570000000  0.5158440000000 1.0
C      1  0.5368100000000  0.5149920000000  0.4102130000000 1.0
C      1  0.4648450000000  0.5153200000000  0.4057420000000 1.0
C      1  0.5155000000000  0.5559010000000  0.4538710000000 1.0
C      1  0.4886580000000  0.5557150000000  0.4532790000000 1.0
C      1  0.5760020000000  0.5528330000000  0.5621310000000 1.0
C      1  0.4247370000000  0.5531060000000  0.5595030000000 1.0
C      1  0.4753950000000  0.4336090000000  0.4132320000000 1.0
C      1  0.5301600000000  0.4334750000000  0.4143570000000 1.0
C      1  0.4867450000000  0.4075550000000  0.5338640000000 1.0
C      1  0.5137730000000  0.4074770000000  0.5344250000000 1.0
C      1  0.5278010000000  0.4294510000000  0.5239970000000 1.0
C      1  0.4732960000000  0.4296190000000  0.5228800000000 1.0
C      1  0.5384980000000  0.4774190000000  0.5863150000000 1.0
C      1  0.4609230000000  0.4775190000000  0.5849400000000 1.0
C      1  0.4552350000000  0.4324210000000  0.4772760000000 1.0
C      1  0.5477230000000  0.4320360000000  0.4791570000000 1.0
C      1  0.4673830000000  0.5967980000000  0.5268100000000 1.0
C      1  0.5343040000000  0.5966810000000  0.5282360000000 1.0
C      1  0.5571440000000  0.5154920000000  0.4272810000000 1.0
C      1  0.4460170000000  0.5162190000000  0.4244140000000 1.0
C      1  0.4699370000000  0.4796390000000  0.5204420000000 1.0
C      1  0.5315710000000  0.4794630000000  0.5216020000000 1.0
C      1  0.5131400000000  0.5817260000000  0.5948330000000 1.0
C      1  0.4865900000000  0.5817660000000  0.5943420000000 1.0
C      1  0.5639940000000  0.4800640000000  0.4844410000000 1.0
C      1  0.4390530000000  0.4805510000000  0.4820010000000 1.0
C      1  0.4773880000000  0.4206240000000  0.4644300000000 1.0
C      1  0.5260060000000  0.4204320000000  0.4654210000000 1.0
C      1  0.4896280000000  0.4397250000000  0.3908190000000 1.0
C      1  0.5168870000000  0.4396830000000  0.3913840000000 1.0
C      1  0.4329090000000  0.5137970000000  0.4473800000000 1.0
C      1  0.5707650000000  0.5132480000000  0.4499780000000 1.0
C      1  0.5149720000000  0.4558900000000  0.5252290000000 1.0
C      1  0.4862360000000  0.4559710000000  0.5246680000000 1.0
C      1  0.5863420000000  0.5208820000000  0.4962180000000 1.0
C      1  0.4163720000000  0.5213270000000  0.4932560000000 1.0
C      1  0.5128960000000  0.5138260000000  0.3987880000000 1.0
C      1  0.4868390000000  0.5113530000000  0.3889180000000 1.0
C      1  0.5209710000000  0.5049810000000  0.5221410000000 1.0
C      1  0.4806680000000  0.5050800000000  0.5214420000000 1.0
C      1  0.4243320000000  0.5053370000000  0.5601100000000 1.0
C      1  0.5760510000000  0.5050640000000  0.5627560000000 1.0
C      1  0.5514300000000  0.4289700000000  0.5080860000000 1.0
C      1  0.4503280000000  0.4293180000000  0.5060230000000 1.0
C      1  0.4873620000000  0.6129110000000  0.5341800000000 1.0
C      1  0.5140890000000  0.6128670000000  0.5347550000000 1.0
C      1  0.4395870000000  0.5686560000000  0.5751290000000 1.0
C      1  0.5607340000000  0.5684570000000  0.5772750000000 1.0
C      1  0.5013900000000  0.4118670000000  0.4783470000000 1.0
END
