TITL C-3623284-6838-814 1.273354292555e-07 125000 -709.466256075733 0 0 116 (C1) n - 1
REM
REM in /home/nfs/bkarasulu/CARBON/AIRSS/Generating-Clusters/LCBOP/Higher-Symm/SD-CG/FIRE-CG
REM
REM
REM
REM
REM
REM ./C.cell (b20cbc046b6831c77cfcea5457e17084)
REM AIRSS Version 0.9.1 bugfix July 2018 build 013d7b7c2542+ Fri, 06 Jul 2018 19:26:36 +0100
REM compiler GCC version 9.2.1 20190827 (Red Hat 9.2.1-1)
REM options -cpp -mtune=generic -march=x86-64 -g -O0 -fpre-include=/usr/include/finclude/math-vector-fortran.h
REM seed -981064204 106510294 -819122599 352822379 -1622409350 216011960 -637580617 391189012 -1902600695 465331156 329184947 836913888 1011337405 -1280168469 -1909115608 1275029518 1108090307 1820964738 1040261126 -1517424576 -294010383 -1911996191 1356021778 -1932977325 -1075328942 1771563716 854940856 -1146442390 869382118 760423135 -1347863442 729958675 -2069972157
REM
CELL 1.54180   50.00000   50.00000   50.00000   90.00000   90.00000   90.00000
LATT -1
SFAC C  
C      1  0.5216860000000  0.4404570000000  0.5693150000000 1.0
C      1  0.5409650000000  0.5487970000000  0.5713380000000 1.0
C      1  0.4296610000000  0.5129970000000  0.5723560000000 1.0
C      1  0.4686620000000  0.4228730000000  0.4233950000000 1.0
C      1  0.4613770000000  0.5498220000000  0.4286160000000 1.0
C      1  0.5621820000000  0.5122720000000  0.4301780000000 1.0
C      1  0.5344760000000  0.5829050000000  0.4974090000000 1.0
C      1  0.4149660000000  0.4898900000000  0.4986610000000 1.0
C      1  0.5503200000000  0.4287630000000  0.4954260000000 1.0
C      1  0.4652950000000  0.5792750000000  0.5013930000000 1.0
C      1  0.5884220000000  0.4894300000000  0.5027590000000 1.0
C      1  0.4477820000000  0.4322080000000  0.4977900000000 1.0
C      1  0.4614030000000  0.5702080000000  0.5293350000000 1.0
C      1  0.4580850000000  0.4333170000000  0.5253090000000 1.0
C      1  0.5806530000000  0.5005360000000  0.5289150000000 1.0
C      1  0.5423770000000  0.5712670000000  0.4715910000000 1.0
C      1  0.5375090000000  0.4264920000000  0.4678590000000 1.0
C      1  0.4239770000000  0.4981450000000  0.4719440000000 1.0
C      1  0.5707310000000  0.4608370000000  0.4117710000000 1.0
C      1  0.4952610000000  0.5922310000000  0.4151690000000 1.0
C      1  0.4262610000000  0.4597720000000  0.4147140000000 1.0
C      1  0.4263430000000  0.4583630000000  0.5874150000000 1.0
C      1  0.5043220000000  0.5878680000000  0.5883430000000 1.0
C      1  0.5748660000000  0.4488220000000  0.5847380000000 1.0
C      1  0.4574240000000  0.5491110000000  0.5887040000000 1.0
C      1  0.4815120000000  0.4684830000000  0.5656500000000 1.0
C      1  0.5613710000000  0.5008640000000  0.5733870000000 1.0
C      1  0.5338320000000  0.5549400000000  0.4270030000000 1.0
C      1  0.5019900000000  0.4513560000000  0.4356830000000 1.0
C      1  0.4641140000000  0.5007170000000  0.4326360000000 1.0
C      1  0.5542020000000  0.4602890000000  0.6013930000000 1.0
C      1  0.5042220000000  0.5633540000000  0.6029730000000 1.0
C      1  0.4442550000000  0.4762720000000  0.6005160000000 1.0
C      1  0.4506900000000  0.4627580000000  0.4000310000000 1.0
C      1  0.4958140000000  0.5689200000000  0.3980840000000 1.0
C      1  0.5431260000000  0.4716580000000  0.4081960000000 1.0
C      1  0.5631640000000  0.5506900000000  0.4635580000000 1.0
C      1  0.4315230000000  0.5242300000000  0.4605830000000 1.0
C      1  0.5101740000000  0.4129020000000  0.4579770000000 1.0
C      1  0.4440700000000  0.5486800000000  0.5398510000000 1.0
C      1  0.5715750000000  0.5283000000000  0.5368930000000 1.0
C      1  0.4852560000000  0.4301640000000  0.5357960000000 1.0
C      1  0.5281800000000  0.4584090000000  0.4296940000000 1.0
C      1  0.5207390000000  0.5553470000000  0.4018030000000 1.0
C      1  0.4647620000000  0.4860720000000  0.4086690000000 1.0
C      1  0.4709840000000  0.4732170000000  0.5914430000000 1.0
C      1  0.4786290000000  0.5519080000000  0.6048400000000 1.0
C      1  0.5544580000000  0.4887480000000  0.5981380000000 1.0
C      1  0.4202650000000  0.4398940000000  0.4959410000000 1.0
C      1  0.5914100000000  0.4610820000000  0.5003560000000 1.0
C      1  0.4854450000000  0.5993670000000  0.4980750000000 1.0
C      1  0.5775240000000  0.4382690000000  0.4964080000000 1.0
C      1  0.4062050000000  0.4627040000000  0.4995630000000 1.0
C      1  0.5123650000000  0.6009860000000  0.4973180000000 1.0
C      1  0.4968180000000  0.4233310000000  0.4327320000000 1.0
C      1  0.5557080000000  0.5395040000000  0.4372620000000 1.0
C      1  0.4501500000000  0.5245990000000  0.4375780000000 1.0
C      1  0.4944510000000  0.4438570000000  0.5598970000000 1.0
C      1  0.4426260000000  0.5387420000000  0.5671450000000 1.0
C      1  0.5588830000000  0.5276470000000  0.5635120000000 1.0
C      1  0.4583820000000  0.4865570000000  0.5219260000000 1.0
C      1  0.5295500000000  0.4674730000000  0.5155110000000 1.0
C      1  0.5130070000000  0.5464570000000  0.5171430000000 1.0
C      1  0.5488490000000  0.5001950000000  0.4822140000000 1.0
C      1  0.4809250000000  0.4569160000000  0.4650230000000 1.0
C      1  0.4794550000000  0.5383060000000  0.4807350000000 1.0
C      1  0.5223920000000  0.5330490000000  0.4935430000000 1.0
C      1  0.4677390000000  0.4957420000000  0.4967050000000 1.0
C      1  0.5216540000000  0.4668430000000  0.4886490000000 1.0
C      1  0.4747900000000  0.5224930000000  0.5031150000000 1.0
C      1  0.5375730000000  0.5118110000000  0.5049700000000 1.0
C      1  0.4992200000000  0.4529780000000  0.4856500000000 1.0
C      1  0.5684280000000  0.4545210000000  0.5571120000000 1.0
C      1  0.5064670000000  0.5840870000000  0.5602310000000 1.0
C      1  0.4245860000000  0.4631270000000  0.5592540000000 1.0
C      1  0.4315000000000  0.4535970000000  0.4420700000000 1.0
C      1  0.4961430000000  0.5833080000000  0.4427240000000 1.0
C      1  0.5733510000000  0.4635980000000  0.4412690000000 1.0
C      1  0.5271010000000  0.4869420000000  0.4699430000000 1.0
C      1  0.5043930000000  0.5283480000000  0.4712700000000 1.0
C      1  0.4722920000000  0.4843650000000  0.4639410000000 1.0
C      1  0.4789690000000  0.4859310000000  0.5431770000000 1.0
C      1  0.4925210000000  0.5281650000000  0.5255560000000 1.0
C      1  0.5261000000000  0.4939990000000  0.5253490000000 1.0
C      1  0.5293990000000  0.4470610000000  0.5961190000000 1.0
C      1  0.5273200000000  0.5479630000000  0.5965710000000 1.0
C      1  0.4340850000000  0.5027030000000  0.5987860000000 1.0
C      1  0.4641170000000  0.4374590000000  0.3988680000000 1.0
C      1  0.4721010000000  0.5535040000000  0.4023140000000 1.0
C      1  0.5458250000000  0.4999540000000  0.4098450000000 1.0
C      1  0.4360700000000  0.4762710000000  0.4586640000000 1.0
C      1  0.5482190000000  0.4477310000000  0.4494720000000 1.0
C      1  0.5227510000000  0.5724040000000  0.4487960000000 1.0
C      1  0.5719740000000  0.4830320000000  0.5515710000000 1.0
C      1  0.4381760000000  0.4438140000000  0.5433730000000 1.0
C      1  0.4817600000000  0.5808610000000  0.5465910000000 1.0
C      1  0.4338120000000  0.5489450000000  0.4749700000000 1.0
C      1  0.4861940000000  0.4090580000000  0.4745410000000 1.0
C      1  0.5815530000000  0.5333420000000  0.4769360000000 1.0
C      1  0.5633950000000  0.5512980000000  0.5225150000000 1.0
C      1  0.5082320000000  0.4218880000000  0.5212180000000 1.0
C      1  0.4312530000000  0.5299430000000  0.5226720000000 1.0
C      1  0.4227150000000  0.4919140000000  0.5523760000000 1.0
C      1  0.5440390000000  0.4400480000000  0.5495700000000 1.0
C      1  0.5307360000000  0.5698710000000  0.5526640000000 1.0
C      1  0.5773630000000  0.4925730000000  0.4481450000000 1.0
C      1  0.4487050000000  0.4295500000000  0.4450450000000 1.0
C      1  0.4709220000000  0.5694950000000  0.4491040000000 1.0
C      1  0.5362590000000  0.5654030000000  0.5230870000000 1.0
C      1  0.4296060000000  0.4996490000000  0.5238350000000 1.0
C      1  0.5343840000000  0.4373340000000  0.5212060000000 1.0
C      1  0.4614320000000  0.5617400000000  0.4769290000000 1.0
C      1  0.5778780000000  0.5030200000000  0.4771930000000 1.0
C      1  0.4631750000000  0.4302660000000  0.4715410000000 1.0
C      1  0.5046390000000  0.5017430000000  0.4615380000000 1.0
C      1  0.5013490000000  0.5033500000000  0.5372550000000 1.0
END
