TITL C-3623287-7182-1396 -5.00962445467036e-07 125000 -567.865522337313 0 0 94 (C1) n - 1
REM
REM in /home/nfs/bkarasulu/CARBON/AIRSS/Generating-Clusters/LCBOP/Higher-Symm/SD-CG/FIRE-CG
REM
REM
REM
REM
REM
REM ./C.cell (b20cbc046b6831c77cfcea5457e17084)
REM AIRSS Version 0.9.1 bugfix July 2018 build 013d7b7c2542+ Fri, 06 Jul 2018 19:26:36 +0100
REM compiler GCC version 9.2.1 20190827 (Red Hat 9.2.1-1)
REM options -cpp -mtune=generic -march=x86-64 -g -O0 -fpre-include=/usr/include/finclude/math-vector-fortran.h
REM seed 402400600 321932479 1561313272 1837792057 211389613 1271480238 -2061557872 1820831139 -1333717011 931975295 288822643 1791831555 1023397603 2107792107 -1657707172 -648689652 -1032682188 654598226 1376434071 -253755001 -1874990744 -756412150 -1635364594 -753263018 -27096066 731681818 -1205755580 -607638126 -2063661407 1579408524 -625119021 -581935240 -529982834
REM
CELL 1.54180   50.00000   50.00000   50.00000   90.00000   90.00000   90.00000
LATT -1
SFAC C  
C      1  0.5850770000000  0.5406910000000  0.4738760000000 1.0
C      1  0.4339520000000  0.5402530000000  0.4404630000000 1.0
C      1  0.4809860000000  0.5408010000000  0.5861600000000 1.0
C      1  0.4015990000000  0.5465810000000  0.4820490000000 1.0
C      1  0.5332240000000  0.5469140000000  0.5944760000000 1.0
C      1  0.5647190000000  0.5476900000000  0.4250230000000 1.0
C      1  0.4825310000000  0.4198040000000  0.4392440000000 1.0
C      1  0.4568310000000  0.4197260000000  0.5449990000000 1.0
C      1  0.5610300000000  0.4203200000000  0.5138820000000 1.0
C      1  0.5633760000000  0.4472120000000  0.4678540000000 1.0
C      1  0.4409320000000  0.4456910000000  0.4609780000000 1.0
C      1  0.4959710000000  0.4459610000000  0.5705440000000 1.0
C      1  0.4721450000000  0.4839000000000  0.5938770000000 1.0
C      1  0.5971670000000  0.4833140000000  0.4762710000000 1.0
C      1  0.4315750000000  0.4834980000000  0.4290800000000 1.0
C      1  0.4720370000000  0.4279290000000  0.4157900000000 1.0
C      1  0.4412760000000  0.4279500000000  0.5654100000000 1.0
C      1  0.5866480000000  0.4278900000000  0.5172830000000 1.0
C      1  0.5062750000000  0.5517630000000  0.5969320000000 1.0
C      1  0.5803280000000  0.5527030000000  0.4471420000000 1.0
C      1  0.4121960000000  0.5511520000000  0.4571440000000 1.0
C      1  0.4668580000000  0.4493660000000  0.4763430000000 1.0
C      1  0.4968690000000  0.4492480000000  0.5404380000000 1.0
C      1  0.5368600000000  0.4506220000000  0.4821500000000 1.0
C      1  0.4959030000000  0.4656060000000  0.5910860000000 1.0
C      1  0.5827270000000  0.4649380000000  0.4569700000000 1.0
C      1  0.4226900000000  0.4652270000000  0.4512900000000 1.0
C      1  0.3969840000000  0.4836760000000  0.4959890000000 1.0
C      1  0.5475050000000  0.4836330000000  0.5921080000000 1.0
C      1  0.5567770000000  0.4830320000000  0.4117410000000 1.0
C      1  0.5533470000000  0.5309270000000  0.5848790000000 1.0
C      1  0.5473640000000  0.5310150000000  0.4117930000000 1.0
C      1  0.4005340000000  0.5309200000000  0.5044920000000 1.0
C      1  0.5261820000000  0.4493880000000  0.5311700000000 1.0
C      1  0.5144460000000  0.4493570000000  0.4610560000000 1.0
C      1  0.4602630000000  0.4491030000000  0.5064210000000 1.0
C      1  0.5438630000000  0.4700370000000  0.5419820000000 1.0
C      1  0.5145730000000  0.4697890000000  0.4400080000000 1.0
C      1  0.4422850000000  0.4699130000000  0.5167240000000 1.0
C      1  0.4930570000000  0.5705760000000  0.5492110000000 1.0
C      1  0.5389800000000  0.5508280000000  0.4825290000000 1.0
C      1  0.4601300000000  0.5698720000000  0.4694150000000 1.0
C      1  0.5060640000000  0.5619630000000  0.4507400000000 1.0
C      1  0.4540780000000  0.5608170000000  0.5174590000000 1.0
C      1  0.5383420000000  0.5618240000000  0.5315940000000 1.0
C      1  0.4549090000000  0.5430440000000  0.5400680000000 1.0
C      1  0.5590160000000  0.5437520000000  0.5218510000000 1.0
C      1  0.4870130000000  0.5432700000000  0.4398810000000 1.0
C      1  0.5583710000000  0.5041850000000  0.5747640000000 1.0
C      1  0.5362930000000  0.5040750000000  0.4118550000000 1.0
C      1  0.4068750000000  0.5042770000000  0.5138790000000 1.0
C      1  0.4898100000000  0.4338320000000  0.4629270000000 1.0
C      1  0.4739420000000  0.4337150000000  0.5270540000000 1.0
C      1  0.5370930000000  0.4347430000000  0.5085570000000 1.0
C      1  0.6076560000000  0.4707850000000  0.4990900000000 1.0
C      1  0.4453200000000  0.4709270000000  0.4080800000000 1.0
C      1  0.4471360000000  0.4712900000000  0.5920210000000 1.0
C      1  0.5158600000000  0.5194300000000  0.5564700000000 1.0
C      1  0.5435380000000  0.5132780000000  0.4555470000000 1.0
C      1  0.4442800000000  0.5189760000000  0.4854260000000 1.0
C      1  0.4368030000000  0.4486850000000  0.5818400000000 1.0
C      1  0.6035690000000  0.4482860000000  0.5131590000000 1.0
C      1  0.4595110000000  0.4484980000000  0.4039600000000 1.0
C      1  0.5353660000000  0.4785240000000  0.4938390000000 1.0
C      1  0.4768390000000  0.4771520000000  0.4703140000000 1.0
C      1  0.4870830000000  0.4770790000000  0.5343210000000 1.0
C      1  0.5391970000000  0.5049840000000  0.5011650000000 1.0
C      1  0.4839150000000  0.5034890000000  0.4660650000000 1.0
C      1  0.4799630000000  0.5034910000000  0.5312340000000 1.0
C      1  0.4536480000000  0.5144870000000  0.5342710000000 1.0
C      1  0.5536050000000  0.5149340000000  0.5244550000000 1.0
C      1  0.4941690000000  0.5147640000000  0.4416380000000 1.0
C      1  0.4327370000000  0.4965140000000  0.5252500000000 1.0
C      1  0.5556200000000  0.4965010000000  0.5465610000000 1.0
C      1  0.5126660000000  0.4965930000000  0.4278460000000 1.0
C      1  0.5343960000000  0.5228080000000  0.4797140000000 1.0
C      1  0.4709830000000  0.5204500000000  0.4840230000000 1.0
C      1  0.5018900000000  0.5205020000000  0.5336870000000 1.0
C      1  0.5087350000000  0.5063860000000  0.5801320000000 1.0
C      1  0.5695380000000  0.5059280000000  0.4491280000000 1.0
C      1  0.4268430000000  0.5058690000000  0.4679830000000 1.0
C      1  0.4704740000000  0.5704260000000  0.4960970000000 1.0
C      1  0.5111580000000  0.5707740000000  0.5270700000000 1.0
C      1  0.5163150000000  0.5663300000000  0.4771180000000 1.0
C      1  0.5893310000000  0.5112420000000  0.4701830000000 1.0
C      1  0.4318070000000  0.5111280000000  0.4394070000000 1.0
C      1  0.4811440000000  0.5116160000000  0.5890050000000 1.0
C      1  0.5661430000000  0.5506780000000  0.4940500000000 1.0
C      1  0.4597830000000  0.5523890000000  0.4460550000000 1.0
C      1  0.4731510000000  0.5529110000000  0.5608000000000 1.0
C      1  0.4111840000000  0.4820590000000  0.4718150000000 1.0
C      1  0.5194560000000  0.4823680000000  0.5917120000000 1.0
C      1  0.5732150000000  0.4812730000000  0.4348940000000 1.0
C      1  0.4994420000000  0.5721400000000  0.5000270000000 1.0
END
