TITL C-3623286-7563-1104 928730.397275125 125000 -569.037204071383 0 0 94 (C1) n - 1
REM
REM in /home/nfs/bkarasulu/CARBON/AIRSS/Generating-Clusters/LCBOP/Higher-Symm/SD-CG/FIRE-CG
REM
REM
REM
REM
REM
REM ./C.cell (b20cbc046b6831c77cfcea5457e17084)
REM AIRSS Version 0.9.1 bugfix July 2018 build 013d7b7c2542+ Fri, 06 Jul 2018 19:26:36 +0100
REM compiler GCC version 9.2.1 20190827 (Red Hat 9.2.1-1)
REM options -cpp -mtune=generic -march=x86-64 -g -O0 -fpre-include=/usr/include/finclude/math-vector-fortran.h
REM seed 122764753 727484503 -2125303536 1432428688 -139834560 -705609807 -1329745421 -2041730963 1318658276 -671824160 174432015 -184456984 -804126190 1547358414 -1702454147 395945690 -2034933176 2015983317 1116014549 -74645357 -944115996 294135581 1594543678 -115627619 1537691012 756650440 -1042266062 -325597365 24514989 682005617 1403172233 1045154766 329431869
REM
CELL 1.54180   50.00000   50.00000   50.00000   90.00000   90.00000   90.00000
LATT -1
SFAC C  
C      1  0.4260300000000  0.5337970000000  0.4686030000000 1.0
C      1  0.4319090000000  0.5288420000000  0.5283410000000 1.0
C      1  0.4195830000000  0.4599560000000  0.5283280000000 1.0
C      1  0.4173200000000  0.4685260000000  0.4622980000000 1.0
C      1  0.5788750000000  0.4590200000000  0.4719790000000 1.0
C      1  0.5806070000000  0.4684010000000  0.5382740000000 1.0
C      1  0.5708180000000  0.5342750000000  0.5307780000000 1.0
C      1  0.5796940000000  0.5292860000000  0.4631570000000 1.0
C      1  0.4447260000000  0.4147060000000  0.4868770000000 1.0
C      1  0.4489290000000  0.5147450000000  0.4330100000000 1.0
C      1  0.4412010000000  0.5845740000000  0.5117970000000 1.0
C      1  0.4526480000000  0.4859410000000  0.5635930000000 1.0
C      1  0.5571870000000  0.5843340000000  0.4896160000000 1.0
C      1  0.5451740000000  0.4856230000000  0.4362230000000 1.0
C      1  0.5536210000000  0.4144440000000  0.5135520000000 1.0
C      1  0.5493300000000  0.5150050000000  0.5668550000000 1.0
C      1  0.4879680000000  0.5519090000000  0.5591810000000 1.0
C      1  0.4872200000000  0.4380220000000  0.5494580000000 1.0
C      1  0.4866990000000  0.4506970000000  0.4392380000000 1.0
C      1  0.4853790000000  0.5637640000000  0.4531540000000 1.0
C      1  0.5117100000000  0.4505160000000  0.5609800000000 1.0
C      1  0.5122820000000  0.5649080000000  0.5488890000000 1.0
C      1  0.5101100000000  0.5517890000000  0.4424380000000 1.0
C      1  0.5111700000000  0.4380000000000  0.4507330000000 1.0
C      1  0.5077190000000  0.5232370000000  0.4429410000000 1.0
C      1  0.5127210000000  0.5612710000000  0.5204650000000 1.0
C      1  0.5122510000000  0.4794240000000  0.5575170000000 1.0
C      1  0.5122710000000  0.4435970000000  0.4790650000000 1.0
C      1  0.4867260000000  0.4797030000000  0.4416120000000 1.0
C      1  0.4866920000000  0.4435730000000  0.5210900000000 1.0
C      1  0.4903780000000  0.5234590000000  0.5564490000000 1.0
C      1  0.4833840000000  0.5597170000000  0.4815940000000 1.0
C      1  0.5334460000000  0.4793400000000  0.5080440000000 1.0
C      1  0.5303550000000  0.4862900000000  0.4612610000000 1.0
C      1  0.5302430000000  0.5228950000000  0.4901830000000 1.0
C      1  0.5460050000000  0.5174990000000  0.5368880000000 1.0
C      1  0.4579800000000  0.5239630000000  0.5126360000000 1.0
C      1  0.4521850000000  0.5169660000000  0.4630430000000 1.0
C      1  0.4670930000000  0.4798970000000  0.4916790000000 1.0
C      1  0.4681810000000  0.4862150000000  0.5386160000000 1.0
C      1  0.5406320000000  0.4386100000000  0.4436660000000 1.0
C      1  0.5394300000000  0.5569210000000  0.4472880000000 1.0
C      1  0.5402880000000  0.5620760000000  0.5585920000000 1.0
C      1  0.5405650000000  0.4431290000000  0.5565570000000 1.0
C      1  0.4575860000000  0.5618660000000  0.4424670000000 1.0
C      1  0.4579060000000  0.4435380000000  0.4441950000000 1.0
C      1  0.4577490000000  0.4390680000000  0.5563910000000 1.0
C      1  0.4592980000000  0.5588610000000  0.5549780000000 1.0
C      1  0.5611330000000  0.4647150000000  0.5592210000000 1.0
C      1  0.5608300000000  0.4367090000000  0.4659780000000 1.0
C      1  0.5592590000000  0.5346230000000  0.4435420000000 1.0
C      1  0.5616900000000  0.5617510000000  0.5370630000000 1.0
C      1  0.4402880000000  0.5356350000000  0.5554330000000 1.0
C      1  0.4357000000000  0.5616120000000  0.4636110000000 1.0
C      1  0.4371440000000  0.4648650000000  0.4415730000000 1.0
C      1  0.4375430000000  0.4375160000000  0.5341420000000 1.0
C      1  0.4766340000000  0.5132480000000  0.5335520000000 1.0
C      1  0.4744470000000  0.4684880000000  0.5162800000000 1.0
C      1  0.4749960000000  0.4874890000000  0.4655920000000 1.0
C      1  0.4694620000000  0.5376790000000  0.4892320000000 1.0
C      1  0.5254830000000  0.4860900000000  0.5339800000000 1.0
C      1  0.5242370000000  0.5373690000000  0.5130710000000 1.0
C      1  0.5201550000000  0.5127300000000  0.4662400000000 1.0
C      1  0.5256340000000  0.4680400000000  0.4835950000000 1.0
C      1  0.5449830000000  0.5410080000000  0.5779470000000 1.0
C      1  0.5469410000000  0.4222580000000  0.5383340000000 1.0
C      1  0.5473500000000  0.4597230000000  0.4254900000000 1.0
C      1  0.5476670000000  0.5771890000000  0.4655350000000 1.0
C      1  0.4510450000000  0.4601120000000  0.5746770000000 1.0
C      1  0.4512940000000  0.5791560000000  0.5363360000000 1.0
C      1  0.4530880000000  0.5411400000000  0.4226190000000 1.0
C      1  0.4516510000000  0.4224950000000  0.4621880000000 1.0
C      1  0.4348870000000  0.5794100000000  0.4859910000000 1.0
C      1  0.4424210000000  0.5116920000000  0.5715290000000 1.0
C      1  0.4400640000000  0.4188030000000  0.5129630000000 1.0
C      1  0.4411110000000  0.4884260000000  0.4252570000000 1.0
C      1  0.5580420000000  0.4181510000000  0.4873290000000 1.0
C      1  0.5569530000000  0.4886740000000  0.5749130000000 1.0
C      1  0.5628700000000  0.5802260000000  0.5155790000000 1.0
C      1  0.5541690000000  0.5112160000000  0.4275560000000 1.0
C      1  0.4108970000000  0.5130330000000  0.5171750000000 1.0
C      1  0.4096790000000  0.4822730000000  0.5135130000000 1.0
C      1  0.4070980000000  0.4830360000000  0.4839110000000 1.0
C      1  0.4070740000000  0.5196260000000  0.4828320000000 1.0
C      1  0.5896470000000  0.4828500000000  0.5162880000000 1.0
C      1  0.5898130000000  0.5199550000000  0.5162880000000 1.0
C      1  0.5893520000000  0.5110270000000  0.4820310000000 1.0
C      1  0.5885470000000  0.4811710000000  0.4870810000000 1.0
C      1  0.4995190000000  0.4308100000000  0.5000990000000 1.0
C      1  0.4967650000000  0.5021700000000  0.4271680000000 1.0
C      1  0.4976930000000  0.5741010000000  0.5008340000000 1.0
C      1  0.5020050000000  0.5021510000000  0.5713550000000 1.0
C      1  0.4490220000000  0.4998930000000  0.4977400000000 1.0
C      1  0.5475190000000  0.5029760000000  0.5008130000000 1.0
END
