TITL C-3623288-6813-736 -2.45155526610183e-06 125000 -1011.42751963086 0 0 173 (C1) n - 1
REM
REM in /home/nfs/bkarasulu/CARBON/AIRSS/Generating-Clusters/LCBOP/Higher-Symm/SD-CG/FIRE-CG
REM
REM
REM
REM
REM
REM ./C.cell (b20cbc046b6831c77cfcea5457e17084)
REM AIRSS Version 0.9.1 bugfix July 2018 build 013d7b7c2542+ Fri, 06 Jul 2018 19:26:36 +0100
REM compiler GCC version 9.2.1 20190827 (Red Hat 9.2.1-1)
REM options -cpp -mtune=generic -march=x86-64 -g -O0 -fpre-include=/usr/include/finclude/math-vector-fortran.h
REM seed 468996436 -1345830132 1691655622 403370904 1848625394 1251626823 1197450335 2035155959 379129386 -894111611 -1441036653 1363928791 -1605984676 1659055189 1682431563 1156475849 685594543 171764393 -1591429699 -1895346598 345509419 2135618244 1768760241 706602682 18706746 -2060473494 -1131593254 -1045778418 1861067727 -1074129493 1800555372 1350049917 -770862124
REM
CELL 1.54180   50.00000   50.00000   50.00000   90.00000   90.00000   90.00000
LATT -1
SFAC C  
C      1  0.5838870000000  0.5677260000000  0.4578940000000 1.0
C      1  0.4032970000000  0.5394650000000  0.4609430000000 1.0
C      1  0.5154070000000  0.3930100000000  0.4581850000000 1.0
C      1  0.5867420000000  0.5672290000000  0.5473960000000 1.0
C      1  0.4020960000000  0.5408080000000  0.5454020000000 1.0
C      1  0.5163600000000  0.3947460000000  0.5434580000000 1.0
C      1  0.5452380000000  0.5007620000000  0.4750160000000 1.0
C      1  0.4770860000000  0.5428370000000  0.4733010000000 1.0
C      1  0.4736490000000  0.4490780000000  0.4746140000000 1.0
C      1  0.5480710000000  0.5014950000000  0.5247360000000 1.0
C      1  0.4799740000000  0.5414630000000  0.5234440000000 1.0
C      1  0.4748750000000  0.4629140000000  0.5225770000000 1.0
C      1  0.5844050000000  0.5385710000000  0.4591610000000 1.0
C      1  0.4255870000000  0.5590380000000  0.4614780000000 1.0
C      1  0.4870890000000  0.4011360000000  0.4589010000000 1.0
C      1  0.5900130000000  0.5381090000000  0.5446520000000 1.0
C      1  0.4243870000000  0.5599130000000  0.5451620000000 1.0
C      1  0.4883200000000  0.4037050000000  0.5435000000000 1.0
C      1  0.4860290000000  0.5939710000000  0.4686040000000 1.0
C      1  0.4248480000000  0.4308210000000  0.4722590000000 1.0
C      1  0.5896250000000  0.4710810000000  0.4682610000000 1.0
C      1  0.4834920000000  0.5944460000000  0.5305430000000 1.0
C      1  0.4276100000000  0.4371360000000  0.5340910000000 1.0
C      1  0.5913870000000  0.4708050000000  0.5300470000000 1.0
C      1  0.4852510000000  0.5437070000000  0.5995270000000 1.0
C      1  0.4725810000000  0.4635380000000  0.5996370000000 1.0
C      1  0.5476940000000  0.4921430000000  0.5993730000000 1.0
C      1  0.4831130000000  0.5416820000000  0.4049520000000 1.0
C      1  0.4682530000000  0.4619970000000  0.4044990000000 1.0
C      1  0.5439790000000  0.4929210000000  0.4030350000000 1.0
C      1  0.6140670000000  0.4800370000000  0.4851670000000 1.0
C      1  0.4635900000000  0.6108260000000  0.4826870000000 1.0
C      1  0.4190460000000  0.4058490000000  0.4899410000000 1.0
C      1  0.6165450000000  0.4805030000000  0.5143590000000 1.0
C      1  0.4641780000000  0.6103270000000  0.5120500000000 1.0
C      1  0.4222240000000  0.4105640000000  0.5187140000000 1.0
C      1  0.5181420000000  0.5657290000000  0.4491780000000 1.0
C      1  0.4411140000000  0.4685760000000  0.4523630000000 1.0
C      1  0.5481980000000  0.4653340000000  0.4486760000000 1.0
C      1  0.5062380000000  0.5609750000000  0.5527220000000 1.0
C      1  0.4461110000000  0.4744660000000  0.5538480000000 1.0
C      1  0.5503200000000  0.4659560000000  0.5505550000000 1.0
C      1  0.3991860000000  0.4512030000000  0.5303950000000 1.0
C      1  0.5935980000000  0.4390660000000  0.5256410000000 1.0
C      1  0.5095870000000  0.6126890000000  0.5280220000000 1.0
C      1  0.3971300000000  0.4478540000000  0.4767210000000 1.0
C      1  0.5923490000000  0.4391830000000  0.4719570000000 1.0
C      1  0.5110740000000  0.6134500000000  0.4742190000000 1.0
C      1  0.6050460000000  0.4167290000000  0.4301950000000 1.0
C      1  0.5255980000000  0.6378580000000  0.4341180000000 1.0
C      1  0.3701550000000  0.4502640000000  0.4358290000000 1.0
C      1  0.6080590000000  0.4161540000000  0.5665370000000 1.0
C      1  0.5202920000000  0.6364310000000  0.5695430000000 1.0
C      1  0.3735410000000  0.4525020000000  0.5721840000000 1.0
C      1  0.4421700000000  0.5320080000000  0.5832930000000 1.0
C      1  0.5041060000000  0.4332440000000  0.5813090000000 1.0
C      1  0.5583080000000  0.5354850000000  0.5836890000000 1.0
C      1  0.4413520000000  0.5298930000000  0.4235780000000 1.0
C      1  0.5007590000000  0.4309810000000  0.4198290000000 1.0
C      1  0.5485370000000  0.5372210000000  0.4214370000000 1.0
C      1  0.4761600000000  0.4800740000000  0.5468100000000 1.0
C      1  0.5309010000000  0.4905250000000  0.5466250000000 1.0
C      1  0.4950670000000  0.5319670000000  0.5471350000000 1.0
C      1  0.4721100000000  0.4728430000000  0.4561880000000 1.0
C      1  0.5275340000000  0.4894670000000  0.4534290000000 1.0
C      1  0.4883600000000  0.5218610000000  0.4579880000000 1.0
C      1  0.4589080000000  0.4377900000000  0.5791640000000 1.0
C      1  0.5759000000000  0.4938590000000  0.5778270000000 1.0
C      1  0.4692430000000  0.5683430000000  0.5786280000000 1.0
C      1  0.4551700000000  0.4352510000000  0.4247370000000 1.0
C      1  0.5697250000000  0.4960330000000  0.4228120000000 1.0
C      1  0.4735840000000  0.5637020000000  0.4257600000000 1.0
C      1  0.4598490000000  0.5214150000000  0.4028340000000 1.0
C      1  0.4978930000000  0.4526670000000  0.4001530000000 1.0
C      1  0.5358540000000  0.5225120000000  0.3996270000000 1.0
C      1  0.4622300000000  0.5228960000000  0.6027670000000 1.0
C      1  0.5021180000000  0.4541630000000  0.6017860000000 1.0
C      1  0.5414960000000  0.5224220000000  0.6038190000000 1.0
C      1  0.5674690000000  0.4003120000000  0.5442580000000 1.0
C      1  0.5556710000000  0.6095230000000  0.5491950000000 1.0
C      1  0.3798880000000  0.4944230000000  0.5477870000000 1.0
C      1  0.5662490000000  0.3998140000000  0.4547940000000 1.0
C      1  0.5581980000000  0.6109380000000  0.4589430000000 1.0
C      1  0.3803750000000  0.4923980000000  0.4585070000000 1.0
C      1  0.5027860000000  0.4717240000000  0.4490740000000 1.0
C      1  0.5136170000000  0.5176340000000  0.4469910000000 1.0
C      1  0.4694000000000  0.5021820000000  0.4532420000000 1.0
C      1  0.5058360000000  0.4746830000000  0.5526710000000 1.0
C      1  0.5204810000000  0.5180140000000  0.5551010000000 1.0
C      1  0.4753420000000  0.5092370000000  0.5536600000000 1.0
C      1  0.5113600000000  0.5274700000000  0.6068890000000 1.0
C      1  0.4728910000000  0.4942670000000  0.6062860000000 1.0
C      1  0.5209700000000  0.4776420000000  0.6057890000000 1.0
C      1  0.5067610000000  0.5257300000000  0.3950000000000 1.0
C      1  0.4694410000000  0.4928100000000  0.3976690000000 1.0
C      1  0.5173120000000  0.4764970000000  0.3960940000000 1.0
C      1  0.4280530000000  0.6379610000000  0.4527260000000 1.0
C      1  0.4055600000000  0.3588470000000  0.4674460000000 1.0
C      1  0.6395800000000  0.4885110000000  0.5277310000000 1.0
C      1  0.4453390000000  0.6256250000000  0.4678260000000 1.0
C      1  0.4116720000000  0.3814790000000  0.4788240000000 1.0
C      1  0.6599720000000  0.4969020000000  0.5416150000000 1.0
C      1  0.4778460000000  0.4167890000000  0.4328300000000 1.0
C      1  0.5720910000000  0.5244330000000  0.4342460000000 1.0
C      1  0.4448990000000  0.5567140000000  0.4363620000000 1.0
C      1  0.4804520000000  0.4192590000000  0.5697820000000 1.0
C      1  0.5813370000000  0.5223080000000  0.5702550000000 1.0
C      1  0.4419420000000  0.5591420000000  0.5710540000000 1.0
C      1  0.6208710000000  0.4163440000000  0.4094940000000 1.0
C      1  0.5186740000000  0.6529190000000  0.4140100000000 1.0
C      1  0.3598170000000  0.4370110000000  0.4159140000000 1.0
C      1  0.6252270000000  0.4156950000000  0.5861360000000 1.0
C      1  0.5114300000000  0.6514160000000  0.5889350000000 1.0
C      1  0.3648530000000  0.4392590000000  0.5928780000000 1.0
C      1  0.4838750000000  0.5682110000000  0.4850710000000 1.0
C      1  0.4496600000000  0.4416090000000  0.4882060000000 1.0
C      1  0.5674590000000  0.4853690000000  0.4854310000000 1.0
C      1  0.4844200000000  0.5677170000000  0.5129400000000 1.0
C      1  0.4505030000000  0.4486810000000  0.5151370000000 1.0
C      1  0.5690250000000  0.4857610000000  0.5131720000000 1.0
C      1  0.4306330000000  0.4874500000000  0.5333660000000 1.0
C      1  0.5461160000000  0.4472230000000  0.5292270000000 1.0
C      1  0.5264470000000  0.5677140000000  0.5335970000000 1.0
C      1  0.4285870000000  0.4822590000000  0.4747040000000 1.0
C      1  0.5453400000000  0.4465990000000  0.4701490000000 1.0
C      1  0.5282200000000  0.5700500000000  0.4753320000000 1.0
C      1  0.4347190000000  0.4411620000000  0.4441970000000 1.0
C      1  0.5750750000000  0.4744660000000  0.4409950000000 1.0
C      1  0.4928070000000  0.5793560000000  0.4415940000000 1.0
C      1  0.4399050000000  0.4469320000000  0.5607900000000 1.0
C      1  0.5774100000000  0.4740830000000  0.5578570000000 1.0
C      1  0.4851650000000  0.5803580000000  0.5585610000000 1.0
C      1  0.5401220000000  0.5255010000000  0.5131190000000 1.0
C      1  0.4589840000000  0.5266700000000  0.5128550000000 1.0
C      1  0.4994510000000  0.4560990000000  0.5112210000000 1.0
C      1  0.5379230000000  0.5248910000000  0.4867110000000 1.0
C      1  0.4549970000000  0.5306990000000  0.4868500000000 1.0
C      1  0.4981210000000  0.4450560000000  0.4871590000000 1.0
C      1  0.5879150000000  0.4185300000000  0.4521770000000 1.0
C      1  0.5316340000000  0.6209570000000  0.4554580000000 1.0
C      1  0.3825920000000  0.4636060000000  0.4570380000000 1.0
C      1  0.5897200000000  0.4184440000000  0.5455910000000 1.0
C      1  0.5286090000000  0.6195040000000  0.5488920000000 1.0
C      1  0.3841380000000  0.4660800000000  0.5501840000000 1.0
C      1  0.4133790000000  0.5012570000000  0.4891590000000 1.0
C      1  0.5410010000000  0.4234190000000  0.4857870000000 1.0
C      1  0.5505340000000  0.5773250000000  0.4910750000000 1.0
C      1  0.4136170000000  0.5032210000000  0.5173390000000 1.0
C      1  0.5411220000000  0.4238560000000  0.5141230000000 1.0
C      1  0.5493370000000  0.5757720000000  0.5190980000000 1.0
C      1  0.5123960000000  0.4479570000000  0.5589020000000 1.0
C      1  0.5402750000000  0.5368490000000  0.5623040000000 1.0
C      1  0.4491150000000  0.5167040000000  0.5608280000000 1.0
C      1  0.5110560000000  0.4453490000000  0.4416550000000 1.0
C      1  0.5268750000000  0.5415110000000  0.4387890000000 1.0
C      1  0.4441400000000  0.5105720000000  0.4434830000000 1.0
C      1  0.5416100000000  0.4016620000000  0.5323850000000 1.0
C      1  0.5683260000000  0.5865920000000  0.5377040000000 1.0
C      1  0.3945160000000  0.5153890000000  0.5351180000000 1.0
C      1  0.5409750000000  0.4008440000000  0.4679400000000 1.0
C      1  0.5690710000000  0.5878390000000  0.4714580000000 1.0
C      1  0.3951930000000  0.5138610000000  0.4706070000000 1.0
C      1  0.5936710000000  0.5310580000000  0.5155480000000 1.0
C      1  0.4283450000000  0.5700990000000  0.5173540000000 1.0
C      1  0.4774490000000  0.4007660000000  0.5155660000000 1.0
C      1  0.5916200000000  0.5307850000000  0.4875170000000 1.0
C      1  0.4281380000000  0.5700770000000  0.4893670000000 1.0
C      1  0.4771820000000  0.3989120000000  0.4874970000000 1.0
C      1  0.5144650000000  0.6208630000000  0.5013440000000 1.0
C      1  0.5973850000000  0.4315100000000  0.4986940000000 1.0
C      1  0.3894260000000  0.4498320000000  0.5038330000000 1.0
C      1  0.5017250000000  0.4996440000000  0.6116520000000 1.0
C      1  0.4977000000000  0.4982570000000  0.3898910000000 1.0
END
