TITL C-3623289-7120-1057 13909.3731941849 125000 -1022.51580234001 0 0 164 (C1) n - 1
REM
REM in /home/nfs/bkarasulu/CARBON/AIRSS/Generating-Clusters/LCBOP/Higher-Symm/SD-CG/FIRE-CG
REM
REM
REM
REM
REM
REM ./C.cell (b20cbc046b6831c77cfcea5457e17084)
REM AIRSS Version 0.9.1 bugfix July 2018 build 013d7b7c2542+ Fri, 06 Jul 2018 19:26:36 +0100
REM compiler GCC version 9.2.1 20190827 (Red Hat 9.2.1-1)
REM options -cpp -mtune=generic -march=x86-64 -g -O0 -fpre-include=/usr/include/finclude/math-vector-fortran.h
REM seed 336006322 -1024286768 1521190398 460113825 -1190047531 309685013 -1895631142 -117081518 -144269786 -516924769 684096829 -120482953 -364666129 777616068 -1382516629 597392803 1613024050 107248051 629688190 -1894442756 1930997541 1962506012 317405980 -1877745173 -2101088926 -2034438853 1413653590 -562967939 400924680 -1284392978 -863276277 1019720570 -532143983
REM
CELL 1.54180   50.00000   50.00000   50.00000   90.00000   90.00000   90.00000
LATT -1
SFAC C  
C      1  0.4534500000000  0.4233000000000  0.5366230000000 1.0
C      1  0.5423030000000  0.4429900000000  0.5379660000000 1.0
C      1  0.5281670000000  0.5978830000000  0.4347570000000 1.0
C      1  0.4718010000000  0.5888410000000  0.4337550000000 1.0
C      1  0.4858030000000  0.5636840000000  0.4364130000000 1.0
C      1  0.5081230000000  0.5494150000000  0.4286660000000 1.0
C      1  0.5258100000000  0.5892420000000  0.5844270000000 1.0
C      1  0.4717490000000  0.5867110000000  0.5819930000000 1.0
C      1  0.5703120000000  0.3722550000000  0.4246470000000 1.0
C      1  0.4722900000000  0.3686120000000  0.4116460000000 1.0
C      1  0.4627780000000  0.5091560000000  0.5281020000000 1.0
C      1  0.5506970000000  0.5151320000000  0.5263700000000 1.0
C      1  0.3426750000000  0.5446970000000  0.4605400000000 1.0
C      1  0.6105310000000  0.4873840000000  0.4632600000000 1.0
C      1  0.5421480000000  0.3867600000000  0.4875290000000 1.0
C      1  0.4789450000000  0.3821270000000  0.4800380000000 1.0
C      1  0.5368570000000  0.5215290000000  0.4102440000000 1.0
C      1  0.4612350000000  0.5278720000000  0.4110700000000 1.0
C      1  0.5562050000000  0.5567330000000  0.4946820000000 1.0
C      1  0.4490740000000  0.5547810000000  0.5021730000000 1.0
C      1  0.5167930000000  0.4061550000000  0.5575430000000 1.0
C      1  0.4894130000000  0.4041950000000  0.5618400000000 1.0
C      1  0.5713960000000  0.4964690000000  0.5248910000000 1.0
C      1  0.4120500000000  0.5064890000000  0.5199620000000 1.0
C      1  0.4838500000000  0.6034570000000  0.5621400000000 1.0
C      1  0.5121530000000  0.6040110000000  0.5629480000000 1.0
C      1  0.5248250000000  0.5520620000000  0.5265730000000 1.0
C      1  0.4749440000000  0.5512770000000  0.5411020000000 1.0
C      1  0.4872480000000  0.5617000000000  0.5883500000000 1.0
C      1  0.5132390000000  0.5677770000000  0.5998180000000 1.0
C      1  0.4302460000000  0.4934010000000  0.5001780000000 1.0
C      1  0.5747170000000  0.4864240000000  0.4974550000000 1.0
C      1  0.4342600000000  0.4981780000000  0.4721260000000 1.0
C      1  0.5530000000000  0.4737910000000  0.4802890000000 1.0
C      1  0.5151210000000  0.4423760000000  0.4712510000000 1.0
C      1  0.4881270000000  0.4515520000000  0.4718770000000 1.0
C      1  0.4831830000000  0.5157080000000  0.6047090000000 1.0
C      1  0.5141390000000  0.5173430000000  0.6051540000000 1.0
C      1  0.4681530000000  0.5358170000000  0.5166980000000 1.0
C      1  0.5409220000000  0.5348250000000  0.5075620000000 1.0
C      1  0.4822340000000  0.6037970000000  0.4585390000000 1.0
C      1  0.5124330000000  0.6068180000000  0.4589910000000 1.0
C      1  0.5602910000000  0.4599300000000  0.5862060000000 1.0
C      1  0.4409770000000  0.4585460000000  0.5774940000000 1.0
C      1  0.4536530000000  0.5352750000000  0.4556350000000 1.0
C      1  0.5527100000000  0.5337790000000  0.4505770000000 1.0
C      1  0.4421440000000  0.5515570000000  0.4108600000000 1.0
C      1  0.5516270000000  0.5545070000000  0.4058640000000 1.0
C      1  0.4636030000000  0.3890260000000  0.4573620000000 1.0
C      1  0.5633670000000  0.3936590000000  0.4700890000000 1.0
C      1  0.4985200000000  0.3618070000000  0.4757570000000 1.0
C      1  0.5270730000000  0.3638050000000  0.4796320000000 1.0
C      1  0.5058990000000  0.3401920000000  0.4316360000000 1.0
C      1  0.5346470000000  0.3415960000000  0.4356970000000 1.0
C      1  0.4426020000000  0.4865630000000  0.5862850000000 1.0
C      1  0.5562760000000  0.4889440000000  0.5912590000000 1.0
C      1  0.5408780000000  0.4311770000000  0.5098810000000 1.0
C      1  0.4639170000000  0.4196610000000  0.5095150000000 1.0
C      1  0.4272980000000  0.5254970000000  0.4621450000000 1.0
C      1  0.5794280000000  0.5422430000000  0.4494570000000 1.0
C      1  0.4673280000000  0.4458720000000  0.5791520000000 1.0
C      1  0.5337470000000  0.4468130000000  0.5861980000000 1.0
C      1  0.5511140000000  0.3538390000000  0.4155030000000 1.0
C      1  0.4945020000000  0.3517600000000  0.4078550000000 1.0
C      1  0.4087510000000  0.5337320000000  0.4425680000000 1.0
C      1  0.5931480000000  0.5496450000000  0.4273540000000 1.0
C      1  0.5413390000000  0.3449430000000  0.4632030000000 1.0
C      1  0.4915980000000  0.3419560000000  0.4561830000000 1.0
C      1  0.5807150000000  0.4514780000000  0.5674910000000 1.0
C      1  0.4208050000000  0.4490860000000  0.5594290000000 1.0
C      1  0.5356070000000  0.4028720000000  0.5097690000000 1.0
C      1  0.4767000000000  0.3946430000000  0.5051560000000 1.0
C      1  0.3994670000000  0.5323460000000  0.5166250000000 1.0
C      1  0.6053670000000  0.5443450000000  0.5134280000000 1.0
C      1  0.4419690000000  0.5875420000000  0.5464610000000 1.0
C      1  0.5535820000000  0.5889560000000  0.5463630000000 1.0
C      1  0.4829080000000  0.6061460000000  0.5119900000000 1.0
C      1  0.5128370000000  0.6072620000000  0.5123240000000 1.0
C      1  0.4041190000000  0.5531050000000  0.5360940000000 1.0
C      1  0.5949680000000  0.5590250000000  0.5352440000000 1.0
C      1  0.5184260000000  0.5393980000000  0.5511650000000 1.0
C      1  0.4943780000000  0.5492640000000  0.5610640000000 1.0
C      1  0.4850140000000  0.4642300000000  0.5951620000000 1.0
C      1  0.5138680000000  0.4654830000000  0.5976740000000 1.0
C      1  0.5121080000000  0.5150340000000  0.4935280000000 1.0
C      1  0.4914600000000  0.5325270000000  0.4984720000000 1.0
C      1  0.4929030000000  0.3859310000000  0.5261850000000 1.0
C      1  0.5195000000000  0.3933400000000  0.5310860000000 1.0
C      1  0.4118980000000  0.4953610000000  0.5472090000000 1.0
C      1  0.5849120000000  0.4945840000000  0.5507910000000 1.0
C      1  0.5330250000000  0.5145380000000  0.5486860000000 1.0
C      1  0.4724590000000  0.5035370000000  0.5531920000000 1.0
C      1  0.4012070000000  0.5451120000000  0.5631830000000 1.0
C      1  0.5950530000000  0.5469670000000  0.5609170000000 1.0
C      1  0.4743460000000  0.5527740000000  0.4599800000000 1.0
C      1  0.5282660000000  0.5488190000000  0.4492140000000 1.0
C      1  0.4706080000000  0.4431220000000  0.4942000000000 1.0
C      1  0.5389300000000  0.4480920000000  0.4865790000000 1.0
C      1  0.5739280000000  0.3879830000000  0.4461070000000 1.0
C      1  0.4613510000000  0.3833860000000  0.4312230000000 1.0
C      1  0.5722900000000  0.5068000000000  0.5747260000000 1.0
C      1  0.4256320000000  0.5050720000000  0.5715750000000 1.0
C      1  0.3800990000000  0.5362180000000  0.4969090000000 1.0
C      1  0.6066130000000  0.5232760000000  0.4967750000000 1.0
C      1  0.5298100000000  0.4300990000000  0.5631310000000 1.0
C      1  0.4706390000000  0.4243980000000  0.5601100000000 1.0
C      1  0.5371970000000  0.4904010000000  0.4597530000000 1.0
C      1  0.4603760000000  0.4910000000000  0.4556890000000 1.0
C      1  0.5987780000000  0.4715080000000  0.5590970000000 1.0
C      1  0.4029730000000  0.4687220000000  0.5501690000000 1.0
C      1  0.4823240000000  0.5082770000000  0.3436770000000 1.0
C      1  0.4835280000000  0.5158360000000  0.3685870000000 1.0
C      1  0.4676820000000  0.6024050000000  0.5373180000000 1.0
C      1  0.5279020000000  0.6030690000000  0.5377520000000 1.0
C      1  0.5753280000000  0.5348270000000  0.5772890000000 1.0
C      1  0.4218840000000  0.5324830000000  0.5778560000000 1.0
C      1  0.5541900000000  0.5512580000000  0.5863590000000 1.0
C      1  0.4427470000000  0.5493730000000  0.5867770000000 1.0
C      1  0.4994890000000  0.4652660000000  0.5218720000000 1.0
C      1  0.4731650000000  0.4657240000000  0.5118270000000 1.0
C      1  0.3269590000000  0.5485260000000  0.4395420000000 1.0
C      1  0.6195470000000  0.4778830000000  0.4402330000000 1.0
C      1  0.5207930000000  0.4901280000000  0.5529900000000 1.0
C      1  0.4948650000000  0.4931130000000  0.5621980000000 1.0
C      1  0.5239080000000  0.4676670000000  0.5360490000000 1.0
C      1  0.4548930000000  0.4870110000000  0.5129840000000 1.0
C      1  0.4259930000000  0.4267860000000  0.5426610000000 1.0
C      1  0.5714700000000  0.4370370000000  0.5448820000000 1.0
C      1  0.5504440000000  0.5779030000000  0.5737700000000 1.0
C      1  0.4456600000000  0.5764100000000  0.5741980000000 1.0
C      1  0.6048200000000  0.5600380000000  0.3554760000000 1.0
C      1  0.3750950000000  0.5535120000000  0.3809250000000 1.0
C      1  0.5394130000000  0.3544570000000  0.3897360000000 1.0
C      1  0.5125030000000  0.3535630000000  0.3860900000000 1.0
C      1  0.4191610000000  0.5771250000000  0.5329320000000 1.0
C      1  0.5773850000000  0.5813530000000  0.5330780000000 1.0
C      1  0.4931700000000  0.5534930000000  0.4803060000000 1.0
C      1  0.5189640000000  0.5609550000000  0.4722650000000 1.0
C      1  0.4698920000000  0.5995820000000  0.4860860000000 1.0
C      1  0.5253710000000  0.6026120000000  0.4861930000000 1.0
C      1  0.5928280000000  0.5571490000000  0.3784330000000 1.0
C      1  0.3942270000000  0.5492760000000  0.3981060000000 1.0
C      1  0.4618470000000  0.5139870000000  0.4367610000000 1.0
C      1  0.5451900000000  0.5088930000000  0.4369400000000 1.0
C      1  0.4693350000000  0.4901280000000  0.5999060000000 1.0
C      1  0.5283910000000  0.4920610000000  0.6015860000000 1.0
C      1  0.5872910000000  0.4193200000000  0.5314650000000 1.0
C      1  0.4065360000000  0.4099680000000  0.5336890000000 1.0
C      1  0.6274290000000  0.4691200000000  0.4169810000000 1.0
C      1  0.3119140000000  0.5521620000000  0.4185640000000 1.0
C      1  0.5977640000000  0.4988020000000  0.4851740000000 1.0
C      1  0.3601550000000  0.5405600000000  0.4800230000000 1.0
C      1  0.5398060000000  0.5799210000000  0.4166750000000 1.0
C      1  0.4500590000000  0.5798650000000  0.4164000000000 1.0
C      1  0.4684550000000  0.5403080000000  0.5988360000000 1.0
C      1  0.5295680000000  0.5432140000000  0.6017560000000 1.0
C      1  0.4499480000000  0.5791420000000  0.4898630000000 1.0
C      1  0.5387790000000  0.5771430000000  0.4850850000000 1.0
C      1  0.4848360000000  0.5240220000000  0.3951060000000 1.0
C      1  0.5093430000000  0.5292560000000  0.4084050000000 1.0
C      1  0.5799000000000  0.5539710000000  0.4027390000000 1.0
C      1  0.4143740000000  0.5449250000000  0.4168230000000 1.0
C      1  0.5106120000000  0.4962110000000  0.4718180000000 1.0
C      1  0.4859400000000  0.4800940000000  0.4647660000000 1.0
END
