TITL C-3623282-6910-596 1293.75616482598 125000 -958.877840858654 0 0 158 (C1) n - 1
REM
REM in /home/nfs/bkarasulu/CARBON/AIRSS/Generating-Clusters/LCBOP/Higher-Symm/SD-CG/FIRE-CG
REM
REM
REM
REM
REM
REM ./C.cell (b20cbc046b6831c77cfcea5457e17084)
REM AIRSS Version 0.9.1 bugfix July 2018 build 013d7b7c2542+ Fri, 06 Jul 2018 19:26:36 +0100
REM compiler GCC version 9.2.1 20190827 (Red Hat 9.2.1-1)
REM options -cpp -mtune=generic -march=x86-64 -g -O0 -fpre-include=/usr/include/finclude/math-vector-fortran.h
REM seed 1548175590 -1802366437 1153373144 -2093655553 -82972769 720013593 -119827246 1241652911 1124337671 2000573899 968556004 50993329 780514119 1973519114 1597442113 -260357527 809399656 2011513025 1499432848 -1627136181 -122881864 1139668022 1560842455 -1350747035 1952392515 -1144507249 585621143 -1331297077 1306796174 -1021601133 1634891344 514937416 -642609382
REM
CELL 1.54180   50.00000   50.00000   50.00000   90.00000   90.00000   90.00000
LATT -1
SFAC C  
C      1  0.4731490000000  0.3824120000000  0.5134030000000 1.0
C      1  0.5783620000000  0.4145890000000  0.4988830000000 1.0
C      1  0.6186480000000  0.5229430000000  0.4967650000000 1.0
C      1  0.5355960000000  0.6236710000000  0.4986120000000 1.0
C      1  0.3981560000000  0.5855820000000  0.5188570000000 1.0
C      1  0.3865730000000  0.4611800000000  0.4816140000000 1.0
C      1  0.6155850000000  0.5357580000000  0.5201240000000 1.0
C      1  0.5221180000000  0.6284070000000  0.4761850000000 1.0
C      1  0.3961620000000  0.5701200000000  0.5405870000000 1.0
C      1  0.3976060000000  0.4560690000000  0.4575380000000 1.0
C      1  0.4820430000000  0.3890130000000  0.5383300000000 1.0
C      1  0.5840260000000  0.4231410000000  0.4736970000000 1.0
C      1  0.5414190000000  0.5610150000000  0.5200260000000 1.0
C      1  0.4560690000000  0.5819040000000  0.4894930000000 1.0
C      1  0.4181800000000  0.5035580000000  0.5141720000000 1.0
C      1  0.4564060000000  0.4274820000000  0.4758490000000 1.0
C      1  0.5257340000000  0.4315510000000  0.5365040000000 1.0
C      1  0.5705030000000  0.4846860000000  0.4691730000000 1.0
C      1  0.4727090000000  0.6253310000000  0.5304270000000 1.0
C      1  0.3734330000000  0.5390930000000  0.4859280000000 1.0
C      1  0.4013700000000  0.4067700000000  0.5053580000000 1.0
C      1  0.5259740000000  0.3718780000000  0.4998180000000 1.0
C      1  0.6171630000000  0.4558910000000  0.5093100000000 1.0
C      1  0.5928720000000  0.5765940000000  0.4825400000000 1.0
C      1  0.5727700000000  0.4779200000000  0.4190410000000 1.0
C      1  0.5678980000000  0.5671810000000  0.5741530000000 1.0
C      1  0.4645850000000  0.5995080000000  0.4339730000000 1.0
C      1  0.4163670000000  0.5038440000000  0.5764920000000 1.0
C      1  0.4639060000000  0.4467800000000  0.4323590000000 1.0
C      1  0.5247050000000  0.4368480000000  0.5833160000000 1.0
C      1  0.6051160000000  0.5478320000000  0.5416520000000 1.0
C      1  0.5039400000000  0.6253470000000  0.4570410000000 1.0
C      1  0.4001170000000  0.5506900000000  0.5584750000000 1.0
C      1  0.4152380000000  0.4551660000000  0.4370850000000 1.0
C      1  0.4933920000000  0.3998230000000  0.5606800000000 1.0
C      1  0.5848420000000  0.4358570000000  0.4496370000000 1.0
C      1  0.4253120000000  0.4777450000000  0.5696280000000 1.0
C      1  0.4876020000000  0.4297250000000  0.4280640000000 1.0
C      1  0.5447130000000  0.4566900000000  0.5762310000000 1.0
C      1  0.5655930000000  0.5058140000000  0.4200030000000 1.0
C      1  0.5412590000000  0.5758960000000  0.5776020000000 1.0
C      1  0.4487760000000  0.5761970000000  0.4331210000000 1.0
C      1  0.5430970000000  0.4074800000000  0.5349480000000 1.0
C      1  0.5999660000000  0.4859660000000  0.4695500000000 1.0
C      1  0.5564800000000  0.5850380000000  0.5203250000000 1.0
C      1  0.4386120000000  0.6018100000000  0.4984460000000 1.0
C      1  0.3905620000000  0.4982530000000  0.5130680000000 1.0
C      1  0.4451360000000  0.4015310000000  0.4774030000000 1.0
C      1  0.5150080000000  0.4575290000000  0.3984960000000 1.0
C      1  0.5386430000000  0.4962010000000  0.6048110000000 1.0
C      1  0.5281170000000  0.5179130000000  0.3886910000000 1.0
C      1  0.5053830000000  0.5540510000000  0.6048760000000 1.0
C      1  0.4645260000000  0.5485510000000  0.3924960000000 1.0
C      1  0.4626760000000  0.4763440000000  0.6028120000000 1.0
C      1  0.5121350000000  0.3724030000000  0.4766640000000 1.0
C      1  0.6068460000000  0.4459750000000  0.5319990000000 1.0
C      1  0.5987440000000  0.5594090000000  0.4627690000000 1.0
C      1  0.4971880000000  0.6221170000000  0.5409520000000 1.0
C      1  0.3853990000000  0.5588250000000  0.4724920000000 1.0
C      1  0.3928460000000  0.4250970000000  0.5229810000000 1.0
C      1  0.5032110000000  0.5460120000000  0.4940860000000 1.0
C      1  0.4571580000000  0.5301830000000  0.4946880000000 1.0
C      1  0.4491180000000  0.4744740000000  0.4948270000000 1.0
C      1  0.4916870000000  0.4456720000000  0.5010610000000 1.0
C      1  0.5383170000000  0.4701360000000  0.5079040000000 1.0
C      1  0.5443520000000  0.5183590000000  0.4911370000000 1.0
C      1  0.3932090000000  0.4524540000000  0.5301740000000 1.0
C      1  0.4891270000000  0.3850460000000  0.4657310000000 1.0
C      1  0.5835350000000  0.4348030000000  0.5433460000000 1.0
C      1  0.5997150000000  0.5328500000000  0.4530350000000 1.0
C      1  0.5236480000000  0.6128930000000  0.5447670000000 1.0
C      1  0.4063870000000  0.5776180000000  0.4706060000000 1.0
C      1  0.4551840000000  0.4603300000000  0.6237580000000 1.0
C      1  0.5322990000000  0.4464160000000  0.3803980000000 1.0
C      1  0.5609190000000  0.5025570000000  0.6193890000000 1.0
C      1  0.5417740000000  0.5277170000000  0.3672170000000 1.0
C      1  0.5032700000000  0.5751040000000  0.6222630000000 1.0
C      1  0.4533130000000  0.5649060000000  0.3737020000000 1.0
C      1  0.4072100000000  0.5284570000000  0.5714740000000 1.0
C      1  0.4405790000000  0.4637490000000  0.4266040000000 1.0
C      1  0.5079750000000  0.4159620000000  0.5773030000000 1.0
C      1  0.5809280000000  0.4542970000000  0.4299610000000 1.0
C      1  0.5890530000000  0.5576790000000  0.5607140000000 1.0
C      1  0.4839730000000  0.6155680000000  0.4424840000000 1.0
C      1  0.5335440000000  0.4435460000000  0.5120790000000 1.0
C      1  0.5649980000000  0.5008030000000  0.4927610000000 1.0
C      1  0.5285210000000  0.5584530000000  0.4952810000000 1.0
C      1  0.4616010000000  0.5573650000000  0.5003150000000 1.0
C      1  0.4308920000000  0.4951210000000  0.4895210000000 1.0
C      1  0.4664560000000  0.4344890000000  0.5010150000000 1.0
C      1  0.5614670000000  0.4849000000000  0.5158920000000 1.0
C      1  0.5438400000000  0.5428470000000  0.4770160000000 1.0
C      1  0.4860610000000  0.5559590000000  0.5146680000000 1.0
C      1  0.4428180000000  0.5161330000000  0.4740270000000 1.0
C      1  0.4484910000000  0.4523190000000  0.5142170000000 1.0
C      1  0.5160860000000  0.4343420000000  0.4912010000000 1.0
C      1  0.4609170000000  0.5532350000000  0.4205070000000 1.0
C      1  0.4531530000000  0.4702760000000  0.5767640000000 1.0
C      1  0.5120520000000  0.4457930000000  0.4242150000000 1.0
C      1  0.5414700000000  0.4860510000000  0.5783860000000 1.0
C      1  0.5391550000000  0.5170630000000  0.4148580000000 1.0
C      1  0.5200290000000  0.5569450000000  0.5807250000000 1.0
C      1  0.4978480000000  0.5295000000000  0.4461280000000 1.0
C      1  0.4410420000000  0.5081360000000  0.5315270000000 1.0
C      1  0.4654330000000  0.4498750000000  0.4603670000000 1.0
C      1  0.4969990000000  0.4528750000000  0.5461010000000 1.0
C      1  0.5432140000000  0.4731090000000  0.4600480000000 1.0
C      1  0.5306990000000  0.5303410000000  0.5403430000000 1.0
C      1  0.5242840000000  0.4798900000000  0.4825190000000 1.0
C      1  0.5201610000000  0.5138160000000  0.5170150000000 1.0
C      1  0.4984050000000  0.5220760000000  0.4744110000000 1.0
C      1  0.4665370000000  0.5124310000000  0.5177310000000 1.0
C      1  0.4720170000000  0.4742240000000  0.4752800000000 1.0
C      1  0.4945840000000  0.4684120000000  0.5213200000000 1.0
C      1  0.4246090000000  0.5762220000000  0.4484950000000 1.0
C      1  0.4068280000000  0.4623980000000  0.5535090000000 1.0
C      1  0.4885760000000  0.4034590000000  0.4424180000000 1.0
C      1  0.5688870000000  0.4463660000000  0.5647510000000 1.0
C      1  0.5853770000000  0.5234540000000  0.4305840000000 1.0
C      1  0.5330240000000  0.6014690000000  0.5687620000000 1.0
C      1  0.5398720000000  0.4049250000000  0.4587840000000 1.0
C      1  0.5945830000000  0.4951520000000  0.5504040000000 1.0
C      1  0.5499450000000  0.5731940000000  0.4391240000000 1.0
C      1  0.4672280000000  0.5652800000000  0.5580060000000 1.0
C      1  0.4447770000000  0.4919000000000  0.4297120000000 1.0
C      1  0.4366830000000  0.4195690000000  0.5496320000000 1.0
C      1  0.3740100000000  0.5184550000000  0.5029090000000 1.0
C      1  0.4190430000000  0.3983700000000  0.4870510000000 1.0
C      1  0.5338930000000  0.3836290000000  0.5226730000000 1.0
C      1  0.6141310000000  0.4670470000000  0.4851250000000 1.0
C      1  0.5800410000000  0.5850800000000  0.5045320000000 1.0
C      1  0.4506500000000  0.6204830000000  0.5157780000000 1.0
C      1  0.5015090000000  0.5078160000000  0.3865650000000 1.0
C      1  0.4932470000000  0.5301250000000  0.6104070000000 1.0
C      1  0.4801740000000  0.5260970000000  0.3848920000000 1.0
C      1  0.4792820000000  0.4977170000000  0.6068830000000 1.0
C      1  0.4997260000000  0.4801540000000  0.3912540000000 1.0
C      1  0.5135580000000  0.4995330000000  0.6149000000000 1.0
C      1  0.4490960000000  0.4423880000000  0.5409290000000 1.0
C      1  0.5276290000000  0.4282640000000  0.4660580000000 1.0
C      1  0.5690360000000  0.4950610000000  0.5408840000000 1.0
C      1  0.5412970000000  0.5496670000000  0.4499330000000 1.0
C      1  0.4880800000000  0.5555470000000  0.5430130000000 1.0
C      1  0.4511050000000  0.5138400000000  0.4466710000000 1.0
C      1  0.4692090000000  0.4543380000000  0.5581340000000 1.0
C      1  0.5296420000000  0.4500420000000  0.4471040000000 1.0
C      1  0.5477450000000  0.5045660000000  0.5568870000000 1.0
C      1  0.5246030000000  0.5319830000000  0.4348860000000 1.0
C      1  0.5111110000000  0.5448340000000  0.5565080000000 1.0
C      1  0.4708840000000  0.5324520000000  0.4370170000000 1.0
C      1  0.4672190000000  0.3847380000000  0.4850040000000 1.0
C      1  0.5702310000000  0.4154770000000  0.5266380000000 1.0
C      1  0.6096710000000  0.5133200000000  0.4715520000000 1.0
C      1  0.5405760000000  0.6090490000000  0.5220290000000 1.0
C      1  0.4117700000000  0.5927090000000  0.4951100000000 1.0
C      1  0.3857850000000  0.4703460000000  0.5087580000000 1.0
C      1  0.4975750000000  0.4917280000000  0.4770940000000 1.0
C      1  0.4935020000000  0.4984290000000  0.5202410000000 1.0
END
