TITL C-3623285-6872-531 81377.5035456411 125000 -1142.31593284148 0 0 188 (C1) n - 1
REM
REM in /home/nfs/bkarasulu/CARBON/AIRSS/Generating-Clusters/LCBOP/Higher-Symm/SD-CG/FIRE-CG
REM
REM
REM
REM
REM
REM ./C.cell (b20cbc046b6831c77cfcea5457e17084)
REM AIRSS Version 0.9.1 bugfix July 2018 build 013d7b7c2542+ Fri, 06 Jul 2018 19:26:36 +0100
REM compiler GCC version 9.2.1 20190827 (Red Hat 9.2.1-1)
REM options -cpp -mtune=generic -march=x86-64 -g -O0 -fpre-include=/usr/include/finclude/math-vector-fortran.h
REM seed 42022142 1735494667 -360252983 -1928223194 824600415 1051306794 1857576117 -605453365 -1507166657 -1027243196 -674668426 -598824413 -184866604 -335742775 1082422256 1280498885 -1930581638 -1895130578 1113680773 1736996679 1652771844 -1925831578 -1729190147 -604821581 1810941804 -1785364507 -1616584667 1699020177 -476877636 -1324812851 -1566814672 444654300 -1736164113
REM
CELL 1.54180   50.00000   50.00000   50.00000   90.00000   90.00000   90.00000
LATT -1
SFAC C  
C      1  0.5341270000000  0.4939770000000  0.4280800000000 1.0
C      1  0.5451340000000  0.4927930000000  0.5657020000000 1.0
C      1  0.4194900000000  0.4929170000000  0.5070660000000 1.0
C      1  0.4653600000000  0.5066470000000  0.4263340000000 1.0
C      1  0.4556810000000  0.5065000000000  0.5641110000000 1.0
C      1  0.5789960000000  0.5056040000000  0.5066420000000 1.0
C      1  0.3891710000000  0.5059250000000  0.4737320000000 1.0
C      1  0.5774630000000  0.5058240000000  0.4151620000000 1.0
C      1  0.5199920000000  0.4961560000000  0.6080790000000 1.0
C      1  0.6123880000000  0.4944410000000  0.4759680000000 1.0
C      1  0.4213670000000  0.4929730000000  0.4174390000000 1.0
C      1  0.4690090000000  0.5001880000000  0.6086440000000 1.0
C      1  0.4822950000000  0.5180670000000  0.4492680000000 1.0
C      1  0.5516930000000  0.5175870000000  0.5090140000000 1.0
C      1  0.4667190000000  0.5176980000000  0.5387280000000 1.0
C      1  0.5176240000000  0.4819720000000  0.4500220000000 1.0
C      1  0.4478710000000  0.4816400000000  0.5097350000000 1.0
C      1  0.5360870000000  0.4820620000000  0.5383160000000 1.0
C      1  0.5426750000000  0.4079130000000  0.4664150000000 1.0
C      1  0.5097520000000  0.4077370000000  0.5533130000000 1.0
C      1  0.4506640000000  0.4082920000000  0.4812390000000 1.0
C      1  0.4582160000000  0.5910280000000  0.4659030000000 1.0
C      1  0.4933750000000  0.5918490000000  0.5519600000000 1.0
C      1  0.5499170000000  0.5917460000000  0.4802880000000 1.0
C      1  0.5634850000000  0.4170480000000  0.5649870000000 1.0
C      1  0.4142190000000  0.4187260000000  0.5228490000000 1.0
C      1  0.5243910000000  0.4145630000000  0.4152570000000 1.0
C      1  0.4396160000000  0.5856100000000  0.5621640000000 1.0
C      1  0.5851650000000  0.5848140000000  0.5223080000000 1.0
C      1  0.4743610000000  0.5812190000000  0.4134750000000 1.0
C      1  0.4393610000000  0.5021420000000  0.6083580000000 1.0
C      1  0.4326550000000  0.5017370000000  0.3918750000000 1.0
C      1  0.6257530000000  0.5004900000000  0.5022330000000 1.0
C      1  0.5506320000000  0.4906320000000  0.6141710000000 1.0
C      1  0.5621310000000  0.4995610000000  0.3901850000000 1.0
C      1  0.3731050000000  0.4971600000000  0.4966140000000 1.0
C      1  0.4988680000000  0.4534770000000  0.5486070000000 1.0
C      1  0.4571510000000  0.4569350000000  0.4718350000000 1.0
C      1  0.5458210000000  0.4554490000000  0.4748110000000 1.0
C      1  0.5032850000000  0.5448540000000  0.5499240000000 1.0
C      1  0.5438530000000  0.5442280000000  0.4728630000000 1.0
C      1  0.4537760000000  0.5424850000000  0.4761540000000 1.0
C      1  0.5627840000000  0.5681030000000  0.5732780000000 1.0
C      1  0.4066080000000  0.5692420000000  0.5183630000000 1.0
C      1  0.5360080000000  0.5685740000000  0.4106330000000 1.0
C      1  0.4426670000000  0.4331580000000  0.5782800000000 1.0
C      1  0.5961950000000  0.4311800000000  0.5133720000000 1.0
C      1  0.4693640000000  0.4303080000000  0.4096980000000 1.0
C      1  0.4190660000000  0.5232910000000  0.5081890000000 1.0
C      1  0.5368140000000  0.5236410000000  0.4286640000000 1.0
C      1  0.5465430000000  0.5228180000000  0.5667720000000 1.0
C      1  0.5805070000000  0.4760060000000  0.5038210000000 1.0
C      1  0.4664990000000  0.4762620000000  0.4254940000000 1.0
C      1  0.4590330000000  0.4770860000000  0.5676200000000 1.0
C      1  0.5280890000000  0.5036950000000  0.4986510000000 1.0
C      1  0.4866840000000  0.5030610000000  0.5234470000000 1.0
C      1  0.4851940000000  0.5033970000000  0.4748810000000 1.0
C      1  0.4716070000000  0.4958500000000  0.4988720000000 1.0
C      1  0.5143020000000  0.4959450000000  0.5234930000000 1.0
C      1  0.5140130000000  0.4963930000000  0.4750850000000 1.0
C      1  0.4659970000000  0.5991720000000  0.5592920000000 1.0
C      1  0.4658420000000  0.5966040000000  0.4378690000000 1.0
C      1  0.5699920000000  0.5988590000000  0.5005640000000 1.0
C      1  0.5380060000000  0.4020970000000  0.5599910000000 1.0
C      1  0.5354830000000  0.4006070000000  0.4390670000000 1.0
C      1  0.4307570000000  0.4031320000000  0.5027740000000 1.0
C      1  0.4518440000000  0.5887210000000  0.5124520000000 1.0
C      1  0.5138230000000  0.5886030000000  0.4492370000000 1.0
C      1  0.5371020000000  0.5883610000000  0.5360800000000 1.0
C      1  0.5517550000000  0.4105320000000  0.5129380000000 1.0
C      1  0.4873530000000  0.4108450000000  0.4513660000000 1.0
C      1  0.4644500000000  0.4123920000000  0.5395420000000 1.0
C      1  0.5364570000000  0.5404350000000  0.4061090000000 1.0
C      1  0.5675540000000  0.5400130000000  0.5766230000000 1.0
C      1  0.4011440000000  0.5412110000000  0.5220620000000 1.0
C      1  0.4694530000000  0.4583870000000  0.4029890000000 1.0
C      1  0.4390360000000  0.4611800000000  0.5796590000000 1.0
C      1  0.5997680000000  0.4594660000000  0.5159010000000 1.0
C      1  0.4136210000000  0.4880100000000  0.4766870000000 1.0
C      1  0.5634400000000  0.4870960000000  0.4350160000000 1.0
C      1  0.5207030000000  0.4852300000000  0.5803770000000 1.0
C      1  0.5878530000000  0.5128510000000  0.4778990000000 1.0
C      1  0.4362050000000  0.5111690000000  0.4367870000000 1.0
C      1  0.4760470000000  0.5163250000000  0.5844060000000 1.0
C      1  0.4207140000000  0.5572050000000  0.4444310000000 1.0
C      1  0.5892950000000  0.5578840000000  0.4614220000000 1.0
C      1  0.4898340000000  0.5600130000000  0.5945800000000 1.0
C      1  0.5789450000000  0.4421540000000  0.4417390000000 1.0
C      1  0.4129710000000  0.4418040000000  0.4600270000000 1.0
C      1  0.5122350000000  0.4415150000000  0.5955990000000 1.0
C      1  0.5125360000000  0.5373780000000  0.3913500000000 1.0
C      1  0.5914520000000  0.5265120000000  0.5822680000000 1.0
C      1  0.3852060000000  0.5283820000000  0.5413580000000 1.0
C      1  0.4778950000000  0.4713860000000  0.3794960000000 1.0
C      1  0.4141480000000  0.4635970000000  0.5661350000000 1.0
C      1  0.5996580000000  0.4619020000000  0.5441410000000 1.0
C      1  0.6063930000000  0.5669620000000  0.4821720000000 1.0
C      1  0.4636200000000  0.5687260000000  0.6007800000000 1.0
C      1  0.4274200000000  0.5680300000000  0.4193690000000 1.0
C      1  0.3952270000000  0.4309920000000  0.4790120000000 1.0
C      1  0.5360100000000  0.4292660000000  0.6033550000000 1.0
C      1  0.5696840000000  0.4326530000000  0.4166720000000 1.0
C      1  0.5331020000000  0.4888710000000  0.3964900000000 1.0
C      1  0.5676810000000  0.4841040000000  0.5873420000000 1.0
C      1  0.3905030000000  0.4853420000000  0.5192280000000 1.0
C      1  0.4607400000000  0.5141320000000  0.3952010000000 1.0
C      1  0.4284500000000  0.5115350000000  0.5799770000000 1.0
C      1  0.6052230000000  0.5110550000000  0.5238280000000 1.0
C      1  0.4954290000000  0.5669890000000  0.4529920000000 1.0
C      1  0.5433170000000  0.5666100000000  0.5186510000000 1.0
C      1  0.4636270000000  0.5668620000000  0.5264750000000 1.0
C      1  0.5054840000000  0.4327570000000  0.4536530000000 1.0
C      1  0.4584200000000  0.4326440000000  0.5200060000000 1.0
C      1  0.5388540000000  0.4321060000000  0.5264900000000 1.0
C      1  0.4121000000000  0.5767160000000  0.4895460000000 1.0
C      1  0.5557740000000  0.5775360000000  0.4299390000000 1.0
C      1  0.5351400000000  0.5759550000000  0.5822160000000 1.0
C      1  0.5893420000000  0.4224980000000  0.4864940000000 1.0
C      1  0.4473460000000  0.4226600000000  0.4292750000000 1.0
C      1  0.4694310000000  0.4254810000000  0.5860400000000 1.0
C      1  0.3942940000000  0.4333010000000  0.5075320000000 1.0
C      1  0.5431350000000  0.4343480000000  0.4049840000000 1.0
C      1  0.5609660000000  0.4311650000000  0.5899860000000 1.0
C      1  0.6034620000000  0.5651690000000  0.5110050000000 1.0
C      1  0.4515120000000  0.5661400000000  0.4040860000000 1.0
C      1  0.4400380000000  0.5664090000000  0.5840200000000 1.0
C      1  0.6019880000000  0.4894540000000  0.5515450000000 1.0
C      1  0.4066260000000  0.4912780000000  0.5658440000000 1.0
C      1  0.4829150000000  0.4993450000000  0.3809370000000 1.0
C      1  0.3893920000000  0.5005550000000  0.5453690000000 1.0
C      1  0.5920090000000  0.4988580000000  0.5761150000000 1.0
C      1  0.5090030000000  0.5094110000000  0.3851670000000 1.0
C      1  0.6122190000000  0.4663040000000  0.4673650000000 1.0
C      1  0.4875060000000  0.4798590000000  0.6154060000000 1.0
C      1  0.4170650000000  0.4645040000000  0.4191510000000 1.0
C      1  0.3881380000000  0.5343940000000  0.4690880000000 1.0
C      1  0.5213290000000  0.5297310000000  0.6107440000000 1.0
C      1  0.5843700000000  0.5340550000000  0.4196510000000 1.0
C      1  0.5449860000000  0.4590440000000  0.5241950000000 1.0
C      1  0.4559380000000  0.4596430000000  0.5259130000000 1.0
C      1  0.5004150000000  0.4593970000000  0.4484380000000 1.0
C      1  0.4566640000000  0.5401940000000  0.5248010000000 1.0
C      1  0.5449420000000  0.5398370000000  0.5253160000000 1.0
C      1  0.5003280000000  0.5401910000000  0.4484870000000 1.0
C      1  0.5184830000000  0.5588410000000  0.6012010000000 1.0
C      1  0.4024090000000  0.5597260000000  0.4668710000000 1.0
C      1  0.5801590000000  0.5600830000000  0.4337680000000 1.0
C      1  0.4852140000000  0.4451830000000  0.6047540000000 1.0
C      1  0.5981560000000  0.4401730000000  0.4636490000000 1.0
C      1  0.4227230000000  0.4393560000000  0.4327100000000 1.0
C      1  0.4693530000000  0.4306910000000  0.4924980000000 1.0
C      1  0.5241240000000  0.4309710000000  0.4761740000000 1.0
C      1  0.5095630000000  0.4297580000000  0.5308600000000 1.0
C      1  0.5323070000000  0.5684860000000  0.4912800000000 1.0
C      1  0.4774710000000  0.5687050000000  0.4761520000000 1.0
C      1  0.4928460000000  0.5688360000000  0.5306860000000 1.0
C      1  0.4253630000000  0.5418400000000  0.5822640000000 1.0
C      1  0.4575000000000  0.5428760000000  0.3897970000000 1.0
C      1  0.6088400000000  0.5409870000000  0.5253350000000 1.0
C      1  0.5744360000000  0.4554680000000  0.5919770000000 1.0
C      1  0.5336880000000  0.4586540000000  0.3931250000000 1.0
C      1  0.3845570000000  0.4565300000000  0.5196500000000 1.0
C      1  0.5216100000000  0.5909420000000  0.5603530000000 1.0
C      1  0.4379820000000  0.5909250000000  0.4872760000000 1.0
C      1  0.5425070000000  0.5916100000000  0.4519770000000 1.0
C      1  0.4817620000000  0.4100230000000  0.5632280000000 1.0
C      1  0.5637040000000  0.4081480000000  0.4867480000000 1.0
C      1  0.4586490000000  0.4084970000000  0.4528050000000 1.0
C      1  0.4177270000000  0.4289480000000  0.5510300000000 1.0
C      1  0.4958540000000  0.4169070000000  0.4076520000000 1.0
C      1  0.5854620000000  0.4268760000000  0.5480840000000 1.0
C      1  0.5778740000000  0.5814980000000  0.5511490000000 1.0
C      1  0.5003550000000  0.5718220000000  0.4022950000000 1.0
C      1  0.4184350000000  0.5829860000000  0.5418000000000 1.0
C      1  0.5559720000000  0.4643850000000  0.4991710000000 1.0
C      1  0.4732460000000  0.4650450000000  0.5471480000000 1.0
C      1  0.4729720000000  0.4649230000000  0.4503440000000 1.0
C      1  0.4435840000000  0.5346200000000  0.5007720000000 1.0
C      1  0.5295550000000  0.5346890000000  0.5480220000000 1.0
C      1  0.5275160000000  0.5348400000000  0.4520310000000 1.0
C      1  0.5616600000000  0.4632210000000  0.4512010000000 1.0
C      1  0.5126590000000  0.4592950000000  0.5731480000000 1.0
C      1  0.4288520000000  0.4637250000000  0.4704140000000 1.0
C      1  0.4381230000000  0.5355950000000  0.4527290000000 1.0
C      1  0.4889370000000  0.5393410000000  0.5746110000000 1.0
C      1  0.5725000000000  0.5365060000000  0.4711690000000 1.0
C      1  0.5007530000000  0.4290710000000  0.5001890000000 1.0
C      1  0.5011960000000  0.5698130000000  0.4995400000000 1.0
END
