TITL C-3623283-6828-1554 -0.000339143986853139 125000 -238.470393730587 0 0 41 (C3) n - 1
REM
REM in /home/nfs/bkarasulu/CARBON/AIRSS/Generating-Clusters/LCBOP/Higher-Symm/SD-CG/FIRE-CG
REM
REM
REM
REM
REM
REM ./C.cell (b20cbc046b6831c77cfcea5457e17084)
REM AIRSS Version 0.9.1 bugfix July 2018 build 013d7b7c2542+ Fri, 06 Jul 2018 19:26:36 +0100
REM compiler GCC version 9.2.1 20190827 (Red Hat 9.2.1-1)
REM options -cpp -mtune=generic -march=x86-64 -g -O0 -fpre-include=/usr/include/finclude/math-vector-fortran.h
REM seed -326180210 1969262553 133201073 964910418 -973493535 1285246365 -134782111 -2131121568 885630001 1460182733 -584403394 568586988 -1944506843 -316155962 1787436724 -39261894 438532163 1561332714 -100070756 -1941249198 290500592 -1479471022 -295343463 -934921949 1820089399 2106544513 -1313781031 821042804 921962105 42796608 740570234 -525686683 -914501293
REM
CELL 1.54180   50.00000   50.00000   50.00000   90.00000   90.00000   90.00000
LATT -1
SFAC C  
C      1  0.5460540000000  0.4655910000000  0.5294540000000 1.0
C      1  0.5082440000000  0.5558540000000  0.5294570000000 1.0
C      1  0.4489790000000  0.4779780000000  0.5294490000000 1.0
C      1  0.5427550000000  0.5508240000000  0.4958810000000 1.0
C      1  0.4360850000000  0.5103820000000  0.4958720000000 1.0
C      1  0.5244440000000  0.4382240000000  0.4958730000000 1.0
C      1  0.4841190000000  0.5502670000000  0.5391520000000 1.0
C      1  0.4658790000000  0.4598790000000  0.5391460000000 1.0
C      1  0.5532780000000  0.4892760000000  0.5391530000000 1.0
C      1  0.4158630000000  0.5331360000000  0.4039310000000 1.0
C      1  0.5148630000000  0.4093380000000  0.4039300000000 1.0
C      1  0.5725750000000  0.5569730000000  0.4039420000000 1.0
C      1  0.5272070000000  0.4460560000000  0.5225330000000 1.0
C      1  0.5345860000000  0.5493000000000  0.5225400000000 1.0
C      1  0.4414850000000  0.5040680000000  0.5225310000000 1.0
C      1  0.4794330000000  0.5173140000000  0.5734420000000 1.0
C      1  0.4967540000000  0.4722960000000  0.5734400000000 1.0
C      1  0.5270810000000  0.5098050000000  0.5734440000000 1.0
C      1  0.5738490000000  0.5522480000000  0.5510770000000 1.0
C      1  0.4192970000000  0.5365960000000  0.5510660000000 1.0
C      1  0.5101280000000  0.4105760000000  0.5510640000000 1.0
C      1  0.4422520000000  0.5246290000000  0.5422770000000 1.0
C      1  0.5090140000000  0.4364400000000  0.5422760000000 1.0
C      1  0.5520080000000  0.5383520000000  0.5422850000000 1.0
C      1  0.5413120000000  0.5377450000000  0.4435290000000 1.0
C      1  0.4481400000000  0.5156730000000  0.4435210000000 1.0
C      1  0.5138410000000  0.4460200000000  0.4435210000000 1.0
C      1  0.5215930000000  0.5187840000000  0.4378580000000 1.0
C      1  0.4744220000000  0.5080770000000  0.4378550000000 1.0
C      1  0.5072800000000  0.4725790000000  0.4378550000000 1.0
C      1  0.4387010000000  0.5141760000000  0.4697830000000 1.0
C      1  0.5198540000000  0.4385930000000  0.4697830000000 1.0
C      1  0.5447340000000  0.5466650000000  0.4697920000000 1.0
C      1  0.4314160000000  0.5247080000000  0.4230700000000 1.0
C      1  0.5143820000000  0.4270200000000  0.4230700000000 1.0
C      1  0.5574990000000  0.5477150000000  0.4230800000000 1.0
C      1  0.5458200000000  0.5126620000000  0.5526810000000 1.0
C      1  0.4675940000000  0.5321150000000  0.5526770000000 1.0
C      1  0.4898590000000  0.4546420000000  0.5526740000000 1.0
C      1  0.5010890000000  0.4998050000000  0.5770380000000 1.0
C      1  0.5010980000000  0.4998130000000  0.4376190000000 1.0
END
