TITL C-3623283-6828-631 2750.77984181293 125000 -1187.51330787639 0 0 193 (C1) n - 1
REM
REM in /home/nfs/bkarasulu/CARBON/AIRSS/Generating-Clusters/LCBOP/Higher-Symm/SD-CG/FIRE-CG
REM
REM
REM
REM
REM
REM ./C.cell (b20cbc046b6831c77cfcea5457e17084)
REM AIRSS Version 0.9.1 bugfix July 2018 build 013d7b7c2542+ Fri, 06 Jul 2018 19:26:36 +0100
REM compiler GCC version 9.2.1 20190827 (Red Hat 9.2.1-1)
REM options -cpp -mtune=generic -march=x86-64 -g -O0 -fpre-include=/usr/include/finclude/math-vector-fortran.h
REM seed 1279069985 -797063562 -1007073623 -604934207 -468141118 508980310 -1347721200 566115745 -1698367030 1787236734 -1891003908 577526729 1853368936 1444528550 -1956615824 -954874268 1496414496 750433865 1042506522 1978821236 1428400277 -6803099 176459938 -1137633020 888997362 -585961795 -1816674155 -1881256060 1145415414 319228638 1875951644 1785269069 512146399
REM
CELL 1.54180   50.00000   50.00000   50.00000   90.00000   90.00000   90.00000
LATT -1
SFAC C  
C      1  0.5128140000000  0.4104610000000  0.4439270000000 1.0
C      1  0.4481740000000  0.5225830000000  0.4477330000000 1.0
C      1  0.4766710000000  0.4716390000000  0.5562280000000 1.0
C      1  0.3906840000000  0.5109380000000  0.5368720000000 1.0
C      1  0.4767240000000  0.4327430000000  0.4095320000000 1.0
C      1  0.4266120000000  0.4683910000000  0.5465240000000 1.0
C      1  0.5444160000000  0.4521030000000  0.4030740000000 1.0
C      1  0.4057270000000  0.4312080000000  0.4770350000000 1.0
C      1  0.5006580000000  0.4313710000000  0.5308170000000 1.0
C      1  0.5115710000000  0.6155240000000  0.4386960000000 1.0
C      1  0.3918880000000  0.5718410000000  0.5016950000000 1.0
C      1  0.6104680000000  0.4828390000000  0.5388810000000 1.0
C      1  0.4216670000000  0.4389710000000  0.4533470000000 1.0
C      1  0.3905660000000  0.5039010000000  0.5855520000000 1.0
C      1  0.4465050000000  0.5333480000000  0.3978500000000 1.0
C      1  0.4858030000000  0.5295470000000  0.5094740000000 1.0
C      1  0.4732240000000  0.4655230000000  0.4430780000000 1.0
C      1  0.4779870000000  0.4672190000000  0.6133260000000 1.0
C      1  0.4561830000000  0.5866940000000  0.4560810000000 1.0
C      1  0.6147420000000  0.4811440000000  0.5092190000000 1.0
C      1  0.4908980000000  0.4490420000000  0.4284100000000 1.0
C      1  0.5527750000000  0.4270950000000  0.4128740000000 1.0
C      1  0.5661380000000  0.4038760000000  0.5363330000000 1.0
C      1  0.4529620000000  0.5614930000000  0.5061540000000 1.0
C      1  0.4964470000000  0.4916740000000  0.5589390000000 1.0
C      1  0.4482520000000  0.4719940000000  0.5076740000000 1.0
C      1  0.5990890000000  0.4389670000000  0.5243780000000 1.0
C      1  0.5905470000000  0.5663160000000  0.4071530000000 1.0
C      1  0.5003650000000  0.6240040000000  0.4641400000000 1.0
C      1  0.5436720000000  0.5615840000000  0.5273140000000 1.0
C      1  0.5521610000000  0.5027510000000  0.4038900000000 1.0
C      1  0.5660600000000  0.5748730000000  0.5399200000000 1.0
C      1  0.5635380000000  0.3952690000000  0.4803930000000 1.0
C      1  0.5171030000000  0.4620220000000  0.4933390000000 1.0
C      1  0.4272860000000  0.4874370000000  0.4983420000000 1.0
C      1  0.4595290000000  0.5980480000000  0.5375480000000 1.0
C      1  0.4245840000000  0.4760540000000  0.6137130000000 1.0
C      1  0.4326120000000  0.6022280000000  0.4937940000000 1.0
C      1  0.5116070000000  0.5827670000000  0.6061320000000 1.0
C      1  0.5014550000000  0.4873990000000  0.6118900000000 1.0
C      1  0.4631420000000  0.4106070000000  0.4619880000000 1.0
C      1  0.5139470000000  0.6181530000000  0.4888600000000 1.0
C      1  0.4526060000000  0.5266690000000  0.5516340000000 1.0
C      1  0.4445600000000  0.5876140000000  0.5152160000000 1.0
C      1  0.5766550000000  0.4588340000000  0.5705300000000 1.0
C      1  0.3791320000000  0.5235090000000  0.5110710000000 1.0
C      1  0.5183130000000  0.5612220000000  0.5395130000000 1.0
C      1  0.5385730000000  0.4621230000000  0.5426880000000 1.0
C      1  0.4018940000000  0.5726200000000  0.5694040000000 1.0
C      1  0.4839170000000  0.3715050000000  0.4368470000000 1.0
C      1  0.4700630000000  0.4309710000000  0.5773290000000 1.0
C      1  0.5260140000000  0.4534080000000  0.4658400000000 1.0
C      1  0.4020220000000  0.5373090000000  0.4329440000000 1.0
C      1  0.4488870000000  0.4806830000000  0.5603080000000 1.0
C      1  0.5210580000000  0.4527180000000  0.5210300000000 1.0
C      1  0.5145020000000  0.3847340000000  0.4899430000000 1.0
C      1  0.4086580000000  0.4180730000000  0.5033640000000 1.0
C      1  0.5043010000000  0.5137390000000  0.4954270000000 1.0
C      1  0.5747580000000  0.5674050000000  0.5669120000000 1.0
C      1  0.5622900000000  0.4175100000000  0.5600710000000 1.0
C      1  0.5743380000000  0.4692670000000  0.4409650000000 1.0
C      1  0.5767070000000  0.5182780000000  0.4051510000000 1.0
C      1  0.4246790000000  0.4659570000000  0.4426980000000 1.0
C      1  0.5568500000000  0.4752770000000  0.4149320000000 1.0
C      1  0.4831370000000  0.4436900000000  0.5540710000000 1.0
C      1  0.4078260000000  0.5895260000000  0.4851820000000 1.0
C      1  0.4523030000000  0.4219460000000  0.4158330000000 1.0
C      1  0.4831990000000  0.5585710000000  0.5033610000000 1.0
C      1  0.5651430000000  0.4726920000000  0.5948920000000 1.0
C      1  0.4119400000000  0.4895320000000  0.4512500000000 1.0
C      1  0.5412580000000  0.3980870000000  0.5245550000000 1.0
C      1  0.5410820000000  0.5320170000000  0.4496640000000 1.0
C      1  0.4493170000000  0.3931090000000  0.4832480000000 1.0
C      1  0.4865610000000  0.5423160000000  0.6113260000000 1.0
C      1  0.4738610000000  0.4809570000000  0.5110420000000 1.0
C      1  0.5969360000000  0.6121850000000  0.5318500000000 1.0
C      1  0.5985360000000  0.5104210000000  0.4664030000000 1.0
C      1  0.5974700000000  0.4580390000000  0.5482960000000 1.0
C      1  0.5668750000000  0.5416030000000  0.4448760000000 1.0
C      1  0.5840990000000  0.5902960000000  0.3964800000000 1.0
C      1  0.4982240000000  0.5193320000000  0.5534210000000 1.0
C      1  0.6131710000000  0.5009400000000  0.4889310000000 1.0
C      1  0.4524730000000  0.6092750000000  0.4732980000000 1.0
C      1  0.5749430000000  0.5976400000000  0.5248990000000 1.0
C      1  0.4025290000000  0.4871060000000  0.6027620000000 1.0
C      1  0.5359540000000  0.5828280000000  0.4049670000000 1.0
C      1  0.5581860000000  0.5975200000000  0.3944350000000 1.0
C      1  0.4974810000000  0.5668970000000  0.4779580000000 1.0
C      1  0.4495420000000  0.4722680000000  0.4293530000000 1.0
C      1  0.4234500000000  0.5881490000000  0.5685250000000 1.0
C      1  0.4422140000000  0.4209700000000  0.4426710000000 1.0
C      1  0.4863430000000  0.5698090000000  0.6031160000000 1.0
C      1  0.5984710000000  0.5053810000000  0.4178840000000 1.0
C      1  0.5491270000000  0.5039790000000  0.5078940000000 1.0
C      1  0.5282020000000  0.5450760000000  0.5839580000000 1.0
C      1  0.4374800000000  0.5381260000000  0.5008590000000 1.0
C      1  0.5138270000000  0.5423110000000  0.5598290000000 1.0
C      1  0.4740210000000  0.5188160000000  0.4460100000000 1.0
C      1  0.5405160000000  0.3909520000000  0.4972350000000 1.0
C      1  0.4979420000000  0.5083250000000  0.4446170000000 1.0
C      1  0.5926640000000  0.4442580000000  0.4466460000000 1.0
C      1  0.4897470000000  0.3913790000000  0.5012720000000 1.0
C      1  0.5382050000000  0.4024980000000  0.4361420000000 1.0
C      1  0.3531250000000  0.5131770000000  0.5051290000000 1.0
C      1  0.3886050000000  0.5216020000000  0.5634250000000 1.0
C      1  0.4406610000000  0.4512920000000  0.5258580000000 1.0
C      1  0.4855120000000  0.5142000000000  0.6076580000000 1.0
C      1  0.4776390000000  0.4622290000000  0.4705490000000 1.0
C      1  0.5660860000000  0.4624210000000  0.4854630000000 1.0
C      1  0.5113130000000  0.4388610000000  0.4455170000000 1.0
C      1  0.5782730000000  0.5250480000000  0.5354810000000 1.0
C      1  0.5372140000000  0.4999770000000  0.5762490000000 1.0
C      1  0.5745040000000  0.5463660000000  0.4916910000000 1.0
C      1  0.4764610000000  0.4338830000000  0.4796470000000 1.0
C      1  0.5618500000000  0.4014360000000  0.4526360000000 1.0
C      1  0.4680640000000  0.5816590000000  0.5849920000000 1.0
C      1  0.5659000000000  0.4857320000000  0.4971580000000 1.0
C      1  0.5887280000000  0.5401180000000  0.5154990000000 1.0
C      1  0.4201180000000  0.4174030000000  0.5559190000000 1.0
C      1  0.6079130000000  0.4402340000000  0.4724680000000 1.0
C      1  0.5342270000000  0.5705490000000  0.5949550000000 1.0
C      1  0.5429290000000  0.4897670000000  0.5510620000000 1.0
C      1  0.5181710000000  0.4072280000000  0.5401310000000 1.0
C      1  0.5595210000000  0.5800000000000  0.5875540000000 1.0
C      1  0.4772640000000  0.5721230000000  0.4045650000000 1.0
C      1  0.4723290000000  0.6287590000000  0.4682880000000 1.0
C      1  0.5068910000000  0.4813110000000  0.3828360000000 1.0
C      1  0.5272640000000  0.5225260000000  0.3990170000000 1.0
C      1  0.4574490000000  0.5583990000000  0.3908220000000 1.0
C      1  0.5235150000000  0.5126290000000  0.4478910000000 1.0
C      1  0.5885570000000  0.4014360000000  0.4936500000000 1.0
C      1  0.5873330000000  0.4127890000000  0.5200010000000 1.0
C      1  0.5547750000000  0.4444450000000  0.5584870000000 1.0
C      1  0.3957450000000  0.5487460000000  0.4599710000000 1.0
C      1  0.4485170000000  0.5069590000000  0.5717630000000 1.0
C      1  0.3877650000000  0.5443300000000  0.4907380000000 1.0
C      1  0.4804720000000  0.5716220000000  0.4552950000000 1.0
C      1  0.5592260000000  0.6038820000000  0.5020210000000 1.0
C      1  0.4524010000000  0.4253860000000  0.5188160000000 1.0
C      1  0.4871950000000  0.6002540000000  0.5301480000000 1.0
C      1  0.4522160000000  0.4806670000000  0.6120740000000 1.0
C      1  0.4586940000000  0.5058560000000  0.5984980000000 1.0
C      1  0.5433400000000  0.5506590000000  0.4973180000000 1.0
C      1  0.4875880000000  0.3965200000000  0.4473830000000 1.0
C      1  0.4765270000000  0.5257500000000  0.5362560000000 1.0
C      1  0.5008000000000  0.5082430000000  0.3918600000000 1.0
C      1  0.6114900000000  0.5029880000000  0.5589430000000 1.0
C      1  0.5403090000000  0.5525460000000  0.4048130000000 1.0
C      1  0.4025000000000  0.4835000000000  0.5357630000000 1.0
C      1  0.4039040000000  0.4185700000000  0.5328430000000 1.0
C      1  0.5263530000000  0.5717740000000  0.4826190000000 1.0
C      1  0.4936720000000  0.4807080000000  0.4900850000000 1.0
C      1  0.4021540000000  0.4781830000000  0.5073080000000 1.0
C      1  0.4511010000000  0.5912190000000  0.5642760000000 1.0
C      1  0.5377210000000  0.5207700000000  0.5930450000000 1.0
C      1  0.4085840000000  0.5757890000000  0.4594850000000 1.0
C      1  0.4972750000000  0.5738700000000  0.5259270000000 1.0
C      1  0.5310080000000  0.5222040000000  0.4969320000000 1.0
C      1  0.5525910000000  0.4614200000000  0.4609430000000 1.0
C      1  0.4431230000000  0.4206790000000  0.5714360000000 1.0
C      1  0.4997630000000  0.6198870000000  0.5138700000000 1.0
C      1  0.6097100000000  0.4535750000000  0.4997410000000 1.0
C      1  0.5779740000000  0.4212310000000  0.4369380000000 1.0
C      1  0.5891700000000  0.5437430000000  0.5755040000000 1.0
C      1  0.4853400000000  0.4423980000000  0.6008170000000 1.0
C      1  0.5840190000000  0.5358170000000  0.4667870000000 1.0
C      1  0.4906950000000  0.5960080000000  0.3991660000000 1.0
C      1  0.4854270000000  0.5615480000000  0.4296370000000 1.0
C      1  0.5561010000000  0.5079080000000  0.5344650000000 1.0
C      1  0.5299330000000  0.4668970000000  0.6043660000000 1.0
C      1  0.5807110000000  0.4975740000000  0.5972320000000 1.0
C      1  0.3301580000000  0.5024820000000  0.4990420000000 1.0
C      1  0.3894420000000  0.5492350000000  0.5674580000000 1.0
C      1  0.4203880000000  0.5336340000000  0.4121280000000 1.0
C      1  0.4675320000000  0.3745460000000  0.4949720000000 1.0
C      1  0.5180470000000  0.4015000000000  0.5679810000000 1.0
C      1  0.5934590000000  0.4933940000000  0.4434790000000 1.0
C      1  0.5350510000000  0.5990050000000  0.4881750000000 1.0
C      1  0.4643110000000  0.3480960000000  0.4994060000000 1.0
C      1  0.4814150000000  0.4220640000000  0.5088510000000 1.0
C      1  0.6097000000000  0.4117550000000  0.4779170000000 1.0
C      1  0.4355110000000  0.4082500000000  0.5028190000000 1.0
C      1  0.5150880000000  0.4401250000000  0.6004770000000 1.0
C      1  0.4319790000000  0.5789640000000  0.4441580000000 1.0
C      1  0.4296020000000  0.5137050000000  0.4890030000000 1.0
C      1  0.5233860000000  0.4150830000000  0.5906690000000 1.0
C      1  0.5144530000000  0.6000270000000  0.4143970000000 1.0
C      1  0.5708110000000  0.5461190000000  0.4151010000000 1.0
C      1  0.5225860000000  0.4594870000000  0.3864440000000 1.0
C      1  0.4657790000000  0.5110230000000  0.3968290000000 1.0
C      1  0.4537740000000  0.4868480000000  0.4056420000000 1.0
C      1  0.5952650000000  0.5156550000000  0.5793160000000 1.0
C      1  0.4266670000000  0.5118350000000  0.4611100000000 1.0
END
