TITL C-3623286-7563-1586 -6.78915021729167e-07 125000 -648.648851661109 0 0 108 (C1) n - 1
REM
REM in /home/nfs/bkarasulu/CARBON/AIRSS/Generating-Clusters/LCBOP/Higher-Symm/SD-CG/FIRE-CG
REM
REM
REM
REM
REM
REM ./C.cell (b20cbc046b6831c77cfcea5457e17084)
REM AIRSS Version 0.9.1 bugfix July 2018 build 013d7b7c2542+ Fri, 06 Jul 2018 19:26:36 +0100
REM compiler GCC version 9.2.1 20190827 (Red Hat 9.2.1-1)
REM options -cpp -mtune=generic -march=x86-64 -g -O0 -fpre-include=/usr/include/finclude/math-vector-fortran.h
REM seed -1737594033 -700760862 168917633 -1650879293 1840952048 -1469244906 -1937144776 1979862386 -56723029 -802714633 -1485438277 828378927 -1895163962 417709213 1933517590 -2009911954 69913457 1025985914 289971274 -810366212 338213764 -1756429234 -53083043 -1783830332 -133616161 1057950045 423872478 -232789863 -1861794826 971320944 506754027 -1193125532 536401817
REM
CELL 1.54180   50.00000   50.00000   50.00000   90.00000   90.00000   90.00000
LATT -1
SFAC C  
C      1  0.5216030000000  0.5694640000000  0.5069230000000 1.0
C      1  0.5114920000000  0.5724340000000  0.4772460000000 1.0
C      1  0.4808330000000  0.5731960000000  0.4782270000000 1.0
C      1  0.4721000000000  0.5719760000000  0.5074870000000 1.0
C      1  0.4973280000000  0.5702040000000  0.5252120000000 1.0
C      1  0.5283030000000  0.4234360000000  0.5083840000000 1.0
C      1  0.5179060000000  0.4238000000000  0.4788770000000 1.0
C      1  0.4871310000000  0.4282600000000  0.4795750000000 1.0
C      1  0.4787400000000  0.4280900000000  0.5095320000000 1.0
C      1  0.5048150000000  0.4268270000000  0.5275320000000 1.0
C      1  0.5712500000000  0.5604530000000  0.4772340000000 1.0
C      1  0.4942660000000  0.5608980000000  0.4184760000000 1.0
C      1  0.4233080000000  0.5854790000000  0.4736580000000 1.0
C      1  0.4508690000000  0.5660030000000  0.5631500000000 1.0
C      1  0.5402660000000  0.5774480000000  0.5656100000000 1.0
C      1  0.5788660000000  0.4160530000000  0.4780770000000 1.0
C      1  0.5033080000000  0.4259370000000  0.4208620000000 1.0
C      1  0.4285570000000  0.4420810000000  0.4753710000000 1.0
C      1  0.4605120000000  0.4320690000000  0.5661390000000 1.0
C      1  0.5526390000000  0.4311390000000  0.5679070000000 1.0
C      1  0.4724080000000  0.5071470000000  0.4128250000000 1.0
C      1  0.4019770000000  0.5191520000000  0.4916000000000 1.0
C      1  0.4586510000000  0.5131300000000  0.5888610000000 1.0
C      1  0.5670050000000  0.5136560000000  0.5653830000000 1.0
C      1  0.5704000000000  0.5071620000000  0.4498260000000 1.0
C      1  0.4729550000000  0.4977050000000  0.3885270000000 1.0
C      1  0.4089970000000  0.4946910000000  0.5005950000000 1.0
C      1  0.4685160000000  0.4910670000000  0.5869900000000 1.0
C      1  0.5714050000000  0.4886890000000  0.5560380000000 1.0
C      1  0.5775910000000  0.4823750000000  0.4562010000000 1.0
C      1  0.5410450000000  0.5117040000000  0.4031830000000 1.0
C      1  0.4170440000000  0.5215640000000  0.4342670000000 1.0
C      1  0.4142390000000  0.5104100000000  0.5533950000000 1.0
C      1  0.5233120000000  0.5136370000000  0.6025320000000 1.0
C      1  0.5989660000000  0.5065040000000  0.5113730000000 1.0
C      1  0.5427070000000  0.4844770000000  0.4050130000000 1.0
C      1  0.4222830000000  0.4947880000000  0.4325160000000 1.0
C      1  0.4192520000000  0.4844900000000  0.5578230000000 1.0
C      1  0.5243960000000  0.4859820000000  0.6047610000000 1.0
C      1  0.6005600000000  0.4797600000000  0.5084130000000 1.0
C      1  0.4637820000000  0.5677070000000  0.4544820000000 1.0
C      1  0.4437030000000  0.5672820000000  0.5151790000000 1.0
C      1  0.4970470000000  0.5624720000000  0.5539790000000 1.0
C      1  0.5475780000000  0.5608070000000  0.5187440000000 1.0
C      1  0.5280340000000  0.5657090000000  0.4531100000000 1.0
C      1  0.4723020000000  0.4402630000000  0.4558810000000 1.0
C      1  0.4513500000000  0.4366540000000  0.5182950000000 1.0
C      1  0.5063970000000  0.4353820000000  0.5569990000000 1.0
C      1  0.5558010000000  0.4275220000000  0.5188520000000 1.0
C      1  0.5366550000000  0.4279010000000  0.4555140000000 1.0
C      1  0.5210480000000  0.5153260000000  0.5468730000000 1.0
C      1  0.5239020000000  0.5099430000000  0.5193880000000 1.0
C      1  0.5058030000000  0.5259910000000  0.4789520000000 1.0
C      1  0.4479330000000  0.5245600000000  0.4792980000000 1.0
C      1  0.4727380000000  0.5186580000000  0.5195900000000 1.0
C      1  0.5253570000000  0.4728100000000  0.5548000000000 1.0
C      1  0.5427270000000  0.4731690000000  0.4909840000000 1.0
C      1  0.5152590000000  0.4865020000000  0.4553470000000 1.0
C      1  0.4741890000000  0.4858590000000  0.4728160000000 1.0
C      1  0.4782120000000  0.4755520000000  0.5197010000000 1.0
C      1  0.5212860000000  0.5580620000000  0.4252330000000 1.0
C      1  0.4350400000000  0.5713500000000  0.4511060000000 1.0
C      1  0.4349810000000  0.5575960000000  0.5407310000000 1.0
C      1  0.5163050000000  0.5644090000000  0.5760660000000 1.0
C      1  0.5706980000000  0.5522450000000  0.5040260000000 1.0
C      1  0.5310580000000  0.4330430000000  0.4271240000000 1.0
C      1  0.4445200000000  0.4490230000000  0.4532940000000 1.0
C      1  0.4440560000000  0.4419050000000  0.5455620000000 1.0
C      1  0.5267770000000  0.4366100000000  0.5783260000000 1.0
C      1  0.5803970000000  0.4286090000000  0.5039480000000 1.0
C      1  0.5878390000000  0.4568580000000  0.4982020000000 1.0
C      1  0.5312480000000  0.4622520000000  0.4185640000000 1.0
C      1  0.4339160000000  0.4706010000000  0.4373390000000 1.0
C      1  0.4412890000000  0.4692330000000  0.5524780000000 1.0
C      1  0.5249380000000  0.4590460000000  0.5979990000000 1.0
C      1  0.5878120000000  0.5309550000000  0.5115530000000 1.0
C      1  0.5351850000000  0.5373510000000  0.4103710000000 1.0
C      1  0.4195030000000  0.5453930000000  0.4502270000000 1.0
C      1  0.4332350000000  0.5287800000000  0.5454660000000 1.0
C      1  0.5268770000000  0.5378270000000  0.5863710000000 1.0
C      1  0.5629570000000  0.4350200000000  0.4632740000000 1.0
C      1  0.4887390000000  0.4477010000000  0.4338480000000 1.0
C      1  0.4347980000000  0.4521440000000  0.5005920000000 1.0
C      1  0.4831850000000  0.4482750000000  0.5655340000000 1.0
C      1  0.5581160000000  0.4428310000000  0.5425870000000 1.0
C      1  0.5520150000000  0.5514800000000  0.4593870000000 1.0
C      1  0.4745800000000  0.5501020000000  0.4350090000000 1.0
C      1  0.4241700000000  0.5654380000000  0.4945010000000 1.0
C      1  0.4739910000000  0.5485190000000  0.5612800000000 1.0
C      1  0.5497590000000  0.5572150000000  0.5469970000000 1.0
C      1  0.4706910000000  0.5218030000000  0.4365780000000 1.0
C      1  0.4213110000000  0.5381630000000  0.4806690000000 1.0
C      1  0.4650760000000  0.5199730000000  0.5501810000000 1.0
C      1  0.5431370000000  0.5302050000000  0.5607960000000 1.0
C      1  0.5487540000000  0.5236400000000  0.4553670000000 1.0
C      1  0.5073750000000  0.4707910000000  0.4335460000000 1.0
C      1  0.4330170000000  0.4807830000000  0.5049550000000 1.0
C      1  0.4770300000000  0.4840850000000  0.5563670000000 1.0
C      1  0.5518190000000  0.4724540000000  0.5408940000000 1.0
C      1  0.5671390000000  0.4630080000000  0.4754740000000 1.0
C      1  0.5433770000000  0.4877460000000  0.5151370000000 1.0
C      1  0.4643100000000  0.5098570000000  0.4618950000000 1.0
C      1  0.4575760000000  0.4938690000000  0.5127110000000 1.0
C      1  0.5063510000000  0.4928760000000  0.5575560000000 1.0
C      1  0.5222220000000  0.5135660000000  0.4593540000000 1.0
C      1  0.5001290000000  0.5202350000000  0.5059580000000 1.0
C      1  0.5168080000000  0.4725510000000  0.4803220000000 1.0
C      1  0.4914760000000  0.4733390000000  0.4937450000000 1.0
END
