TITL C-3623288-6813-1731 -9.14399766568909e-09 125000 -1057.68451815182 0 0 166 (C1) n - 1
REM
REM in /home/nfs/bkarasulu/CARBON/AIRSS/Generating-Clusters/LCBOP/Higher-Symm/SD-CG/FIRE-CG
REM
REM
REM
REM
REM
REM ./C.cell (b20cbc046b6831c77cfcea5457e17084)
REM AIRSS Version 0.9.1 bugfix July 2018 build 013d7b7c2542+ Fri, 06 Jul 2018 19:26:36 +0100
REM compiler GCC version 9.2.1 20190827 (Red Hat 9.2.1-1)
REM options -cpp -mtune=generic -march=x86-64 -g -O0 -fpre-include=/usr/include/finclude/math-vector-fortran.h
REM seed -921538717 1957876647 1240155835 -606126038 837736733 -839300077 840451007 1749158954 415539273 1858522027 52863934 1152743456 1707813490 -1654855159 -211123687 1523855634 1851185118 1468221237 318749248 -158247432 1753096421 -1639169555 1639835231 932058439 259364215 28532480 -617554959 -475346484 776339061 -97158355 -817878446 -1994115801 -1762184701
REM
CELL 1.54180   50.00000   50.00000   50.00000   90.00000   90.00000   90.00000
LATT -1
SFAC C  
C      1  0.5336860000000  0.3717630000000  0.5282420000000 1.0
C      1  0.4658780000000  0.6292700000000  0.5276580000000 1.0
C      1  0.5309200000000  0.3697440000000  0.4731740000000 1.0
C      1  0.4683160000000  0.6308970000000  0.4725740000000 1.0
C      1  0.4573100000000  0.3766550000000  0.5282910000000 1.0
C      1  0.5422530000000  0.6244050000000  0.5279230000000 1.0
C      1  0.4548300000000  0.3774530000000  0.4739270000000 1.0
C      1  0.5444120000000  0.6237700000000  0.4734810000000 1.0
C      1  0.5289470000000  0.5365180000000  0.4454720000000 1.0
C      1  0.4703720000000  0.4646690000000  0.4457210000000 1.0
C      1  0.5267150000000  0.5370190000000  0.5558070000000 1.0
C      1  0.4740480000000  0.4636730000000  0.5564120000000 1.0
C      1  0.4492130000000  0.5115070000000  0.4413670000000 1.0
C      1  0.5490550000000  0.4893570000000  0.4399350000000 1.0
C      1  0.4505000000000  0.5095130000000  0.5612150000000 1.0
C      1  0.5511060000000  0.4915940000000  0.5596000000000 1.0
C      1  0.5082750000000  0.3654650000000  0.5340620000000 1.0
C      1  0.4912700000000  0.6356030000000  0.5335190000000 1.0
C      1  0.5052270000000  0.3641570000000  0.4679650000000 1.0
C      1  0.4939570000000  0.6367050000000  0.4673720000000 1.0
C      1  0.4814790000000  0.3662160000000  0.5339580000000 1.0
C      1  0.5180640000000  0.6348210000000  0.5335380000000 1.0
C      1  0.4785030000000  0.3661350000000  0.4679180000000 1.0
C      1  0.5206920000000  0.6349390000000  0.4674030000000 1.0
C      1  0.5263940000000  0.5925160000000  0.5921060000000 1.0
C      1  0.4745830000000  0.4075910000000  0.5927380000000 1.0
C      1  0.5386310000000  0.5907670000000  0.4091920000000 1.0
C      1  0.4617850000000  0.4101120000000  0.4095270000000 1.0
C      1  0.4513410000000  0.6037440000000  0.5897200000000 1.0
C      1  0.5492360000000  0.3960760000000  0.5901400000000 1.0
C      1  0.4647750000000  0.6075450000000  0.4080890000000 1.0
C      1  0.5357980000000  0.3933990000000  0.4081540000000 1.0
C      1  0.5068580000000  0.4280390000000  0.5285720000000 1.0
C      1  0.4930680000000  0.5731950000000  0.5286660000000 1.0
C      1  0.5039490000000  0.4272740000000  0.4699650000000 1.0
C      1  0.4954050000000  0.5732730000000  0.4699600000000 1.0
C      1  0.5291860000000  0.4450320000000  0.5257050000000 1.0
C      1  0.4708740000000  0.5560040000000  0.5258770000000 1.0
C      1  0.5265220000000  0.4439460000000  0.4717750000000 1.0
C      1  0.4728670000000  0.5565980000000  0.4719090000000 1.0
C      1  0.4759900000000  0.5200400000000  0.3967880000000 1.0
C      1  0.5217370000000  0.4821760000000  0.3956200000000 1.0
C      1  0.4772790000000  0.5182250000000  0.6059990000000 1.0
C      1  0.5253110000000  0.4819930000000  0.6049110000000 1.0
C      1  0.5037900000000  0.5301330000000  0.3977470000000 1.0
C      1  0.4940050000000  0.4720490000000  0.3973700000000 1.0
C      1  0.5047130000000  0.5289750000000  0.6041810000000 1.0
C      1  0.4978080000000  0.4712540000000  0.6040320000000 1.0
C      1  0.4366980000000  0.5893700000000  0.5250370000000 1.0
C      1  0.5630660000000  0.4115560000000  0.5251670000000 1.0
C      1  0.4398270000000  0.5908350000000  0.4705050000000 1.0
C      1  0.5596790000000  0.4095220000000  0.4706720000000 1.0
C      1  0.5424280000000  0.5764700000000  0.5280750000000 1.0
C      1  0.4576130000000  0.4245400000000  0.5285930000000 1.0
C      1  0.5445950000000  0.5756280000000  0.4742730000000 1.0
C      1  0.4546650000000  0.4256360000000  0.4745730000000 1.0
C      1  0.5756390000000  0.5398300000000  0.4534190000000 1.0
C      1  0.4237210000000  0.4613320000000  0.4524260000000 1.0
C      1  0.5729380000000  0.5446450000000  0.5549950000000 1.0
C      1  0.4277080000000  0.4556790000000  0.5566880000000 1.0
C      1  0.4198670000000  0.5606680000000  0.4376680000000 1.0
C      1  0.5816040000000  0.4392290000000  0.4389310000000 1.0
C      1  0.4128160000000  0.5563180000000  0.5518630000000 1.0
C      1  0.5860860000000  0.4449430000000  0.5527210000000 1.0
C      1  0.5244270000000  0.3939380000000  0.5994480000000 1.0
C      1  0.4763040000000  0.6056350000000  0.5986770000000 1.0
C      1  0.5102780000000  0.3930900000000  0.4007100000000 1.0
C      1  0.4902380000000  0.6079780000000  0.4004600000000 1.0
C      1  0.4981590000000  0.3978990000000  0.6002670000000 1.0
C      1  0.5026050000000  0.6018460000000  0.5994520000000 1.0
C      1  0.4843240000000  0.3988300000000  0.4010430000000 1.0
C      1  0.5161860000000  0.6022020000000  0.4006590000000 1.0
C      1  0.4831070000000  0.4767630000000  0.6286050000000 1.0
C      1  0.5203470000000  0.5232440000000  0.6281140000000 1.0
C      1  0.4787960000000  0.4786610000000  0.3733380000000 1.0
C      1  0.5181260000000  0.5239690000000  0.3730620000000 1.0
C      1  0.5307190000000  0.4975550000000  0.6289620000000 1.0
C      1  0.4727610000000  0.5024340000000  0.6300690000000 1.0
C      1  0.5269020000000  0.4977150000000  0.3714630000000 1.0
C      1  0.4699920000000  0.5049430000000  0.3725200000000 1.0
C      1  0.6156340000000  0.5266100000000  0.5442480000000 1.0
C      1  0.3956300000000  0.4769170000000  0.5284380000000 1.0
C      1  0.6020880000000  0.5099300000000  0.4822490000000 1.0
C      1  0.3942500000000  0.4860370000000  0.4812790000000 1.0
C      1  0.3958130000000  0.5243790000000  0.5188400000000 1.0
C      1  0.6077550000000  0.4717100000000  0.5193620000000 1.0
C      1  0.3815300000000  0.5392170000000  0.4556900000000 1.0
C      1  0.6068930000000  0.4628000000000  0.4720220000000 1.0
C      1  0.5201530000000  0.4709860000000  0.4740540000000 1.0
C      1  0.4790570000000  0.5295910000000  0.4744580000000 1.0
C      1  0.5223410000000  0.4720910000000  0.5252120000000 1.0
C      1  0.4780730000000  0.5289960000000  0.5256580000000 1.0
C      1  0.4950730000000  0.4764070000000  0.4865240000000 1.0
C      1  0.5043970000000  0.5242880000000  0.4863260000000 1.0
C      1  0.4961840000000  0.4767180000000  0.5144260000000 1.0
C      1  0.5039570000000  0.5243350000000  0.5142280000000 1.0
C      1  0.4643930000000  0.5081130000000  0.4651810000000 1.0
C      1  0.5340710000000  0.4925280000000  0.4639170000000 1.0
C      1  0.4656060000000  0.5070990000000  0.5371890000000 1.0
C      1  0.5355660000000  0.4940300000000  0.5358740000000 1.0
C      1  0.5249160000000  0.5190360000000  0.4682270000000 1.0
C      1  0.4741990000000  0.4817270000000  0.4688260000000 1.0
C      1  0.5244650000000  0.5200400000000  0.5325590000000 1.0
C      1  0.4761360000000  0.4809270000000  0.5333040000000 1.0
C      1  0.5750080000000  0.4187860000000  0.5501940000000 1.0
C      1  0.4244090000000  0.5822610000000  0.5498730000000 1.0
C      1  0.5685280000000  0.4144960000000  0.4439250000000 1.0
C      1  0.4320470000000  0.5856490000000  0.4434640000000 1.0
C      1  0.4538380000000  0.4403900000000  0.5546160000000 1.0
C      1  0.5468960000000  0.5601850000000  0.5537110000000 1.0
C      1  0.4483760000000  0.4432510000000  0.4498530000000 1.0
C      1  0.5510890000000  0.5578340000000  0.4499010000000 1.0
C      1  0.5171660000000  0.5729480000000  0.5145080000000 1.0
C      1  0.4826270000000  0.4281430000000  0.5146360000000 1.0
C      1  0.5183080000000  0.5727320000000  0.4859450000000 1.0
C      1  0.4811270000000  0.4282700000000  0.4860780000000 1.0
C      1  0.4488360000000  0.5669880000000  0.5120970000000 1.0
C      1  0.5510590000000  0.4338400000000  0.5119310000000 1.0
C      1  0.4499950000000  0.5677360000000  0.4838370000000 1.0
C      1  0.5494460000000  0.4327940000000  0.4836840000000 1.0
C      1  0.4464370000000  0.6141750000000  0.5135690000000 1.0
C      1  0.5531480000000  0.3866560000000  0.5139610000000 1.0
C      1  0.4479440000000  0.6149850000000  0.4842020000000 1.0
C      1  0.5514740000000  0.3855710000000  0.4846030000000 1.0
C      1  0.5532020000000  0.6008620000000  0.5161030000000 1.0
C      1  0.4464840000000  0.4003310000000  0.5166090000000 1.0
C      1  0.5544080000000  0.6004410000000  0.4864940000000 1.0
C      1  0.4449370000000  0.4008210000000  0.4869880000000 1.0
C      1  0.4069530000000  0.5362280000000  0.4440500000000 1.0
C      1  0.5902600000000  0.4640760000000  0.4492580000000 1.0
C      1  0.4090800000000  0.5293910000000  0.5438600000000 1.0
C      1  0.5924070000000  0.4712340000000  0.5433440000000 1.0
C      1  0.5866620000000  0.5139810000000  0.4584280000000 1.0
C      1  0.4113110000000  0.4866460000000  0.4585520000000 1.0
C      1  0.5895810000000  0.5215510000000  0.5536410000000 1.0
C      1  0.4134010000000  0.4792860000000  0.5501900000000 1.0
C      1  0.5210030000000  0.5236480000000  0.5805510000000 1.0
C      1  0.4805710000000  0.4767750000000  0.5811210000000 1.0
C      1  0.5212830000000  0.5241680000000  0.4204750000000 1.0
C      1  0.4773980000000  0.4776010000000  0.4208430000000 1.0
C      1  0.4670320000000  0.5033370000000  0.5835490000000 1.0
C      1  0.5348010000000  0.4971730000000  0.5823080000000 1.0
C      1  0.4653560000000  0.5049680000000  0.4189640000000 1.0
C      1  0.5330130000000  0.4967350000000  0.4177920000000 1.0
C      1  0.4475880000000  0.4256110000000  0.4258820000000 1.0
C      1  0.5524960000000  0.5751790000000  0.4257530000000 1.0
C      1  0.4581340000000  0.4220440000000  0.5776490000000 1.0
C      1  0.5431050000000  0.5783040000000  0.5770390000000 1.0
C      1  0.5568800000000  0.4002120000000  0.4228720000000 1.0
C      1  0.4437900000000  0.6004590000000  0.4228120000000 1.0
C      1  0.5679050000000  0.4043340000000  0.5730840000000 1.0
C      1  0.4321470000000  0.5960620000000  0.5729670000000 1.0
C      1  0.3795700000000  0.5425780000000  0.5051550000000 1.0
C      1  0.6238000000000  0.4480890000000  0.5125400000000 1.0
C      1  0.3718420000000  0.5457630000000  0.4797470000000 1.0
C      1  0.6223430000000  0.4426310000000  0.4854340000000 1.0
C      1  0.6256980000000  0.5333050000000  0.5203270000000 1.0
C      1  0.3820640000000  0.4555470000000  0.5148280000000 1.0
C      1  0.6178940000000  0.5291390000000  0.4950460000000 1.0
C      1  0.3802820000000  0.4610570000000  0.4877340000000 1.0
C      1  0.5792590000000  0.4943950000000  0.5548410000000 1.0
C      1  0.4224710000000  0.5065690000000  0.5563520000000 1.0
C      1  0.5771140000000  0.4895940000000  0.4447750000000 1.0
C      1  0.4209600000000  0.5111130000000  0.4456990000000 1.0
C      1  0.6029410000000  0.4836030000000  0.4927000000000 1.0
C      1  0.3974810000000  0.4982460000000  0.5080550000000 1.0
END
