TITL C-3623284-6838-1419 0.250826619664293 125000 -240.520105888676 0 0 41 (C1) n - 1
REM
REM in /home/nfs/bkarasulu/CARBON/AIRSS/Generating-Clusters/LCBOP/Higher-Symm/SD-CG/FIRE-CG
REM
REM
REM
REM
REM
REM ./C.cell (b20cbc046b6831c77cfcea5457e17084)
REM AIRSS Version 0.9.1 bugfix July 2018 build 013d7b7c2542+ Fri, 06 Jul 2018 19:26:36 +0100
REM compiler GCC version 9.2.1 20190827 (Red Hat 9.2.1-1)
REM options -cpp -mtune=generic -march=x86-64 -g -O0 -fpre-include=/usr/include/finclude/math-vector-fortran.h
REM seed 24709465 441838220 370769287 1909828678 -1050663355 2024387556 -1728373216 676617964 195199041 45983593 1637326391 -282004810 955878615 -1640346962 -1385648700 -1010822497 522414243 1725531206 1374031856 -1519248168 358728035 1288929199 -618124864 -502712104 -1067839932 1389113462 -72038681 1066853840 1028624643 -1063730288 1413565753 242830953 299606626
REM
CELL 1.54180   50.00000   50.00000   50.00000   90.00000   90.00000   90.00000
LATT -1
SFAC C  
C      1  0.4668990000000  0.5335980000000  0.5941970000000 1.0
C      1  0.5000450000000  0.4756060000000  0.4415710000000 1.0
C      1  0.4534910000000  0.5232060000000  0.5055950000000 1.0
C      1  0.5600450000000  0.4312900000000  0.5077990000000 1.0
C      1  0.4853240000000  0.5585980000000  0.5124200000000 1.0
C      1  0.4652150000000  0.5031870000000  0.4897780000000 1.0
C      1  0.4864730000000  0.4858240000000  0.4203930000000 1.0
C      1  0.4665750000000  0.4482230000000  0.4907520000000 1.0
C      1  0.5046330000000  0.4174750000000  0.5078860000000 1.0
C      1  0.4400580000000  0.5627100000000  0.5316280000000 1.0
C      1  0.5659190000000  0.4835820000000  0.4697000000000 1.0
C      1  0.4884180000000  0.5106590000000  0.4741150000000 1.0
C      1  0.5060210000000  0.5336450000000  0.4749390000000 1.0
C      1  0.5525330000000  0.5093060000000  0.4669710000000 1.0
C      1  0.4515250000000  0.5477170000000  0.5785970000000 1.0
C      1  0.4589710000000  0.5485340000000  0.5169230000000 1.0
C      1  0.5414770000000  0.4536280000000  0.4359120000000 1.0
C      1  0.5773610000000  0.4359350000000  0.4621240000000 1.0
C      1  0.5734170000000  0.4208820000000  0.4845750000000 1.0
C      1  0.4044630000000  0.5855940000000  0.5926220000000 1.0
C      1  0.5333310000000  0.5189610000000  0.5104920000000 1.0
C      1  0.5250860000000  0.4498890000000  0.4857040000000 1.0
C      1  0.4141740000000  0.5802970000000  0.5678870000000 1.0
C      1  0.5753440000000  0.4773000000000  0.4963480000000 1.0
C      1  0.5183990000000  0.4767050000000  0.4890090000000 1.0
C      1  0.4865110000000  0.4279690000000  0.4856400000000 1.0
C      1  0.5029950000000  0.4878950000000  0.4670000000000 1.0
C      1  0.4049480000000  0.5909840000000  0.5426810000000 1.0
C      1  0.4601430000000  0.4747530000000  0.4921560000000 1.0
C      1  0.5338560000000  0.5259010000000  0.4818870000000 1.0
C      1  0.5713000000000  0.4570480000000  0.5142720000000 1.0
C      1  0.4948990000000  0.5573740000000  0.4855720000000 1.0
C      1  0.5057160000000  0.5550500000000  0.5317590000000 1.0
C      1  0.5072150000000  0.4367690000000  0.4661360000000 1.0
C      1  0.5267870000000  0.5381970000000  0.5298720000000 1.0
C      1  0.4363310000000  0.5624880000000  0.5607300000000 1.0
C      1  0.5311920000000  0.4304830000000  0.5065070000000 1.0
C      1  0.5254590000000  0.4917330000000  0.5119830000000 1.0
C      1  0.5639990000000  0.4595330000000  0.4524510000000 1.0
C      1  0.4198700000000  0.5808500000000  0.5217550000000 1.0
C      1  0.5135810000000  0.4506220000000  0.4416580000000 1.0
END
