TITL C-3623288-6813-1534 -0.1972765295388 125000 -561.558488276575 0 0 93 (Cs) n - 1
REM
REM in /home/nfs/bkarasulu/CARBON/AIRSS/Generating-Clusters/LCBOP/Higher-Symm/SD-CG/FIRE-CG
REM
REM
REM
REM
REM
REM ./C.cell (b20cbc046b6831c77cfcea5457e17084)
REM AIRSS Version 0.9.1 bugfix July 2018 build 013d7b7c2542+ Fri, 06 Jul 2018 19:26:36 +0100
REM compiler GCC version 9.2.1 20190827 (Red Hat 9.2.1-1)
REM options -cpp -mtune=generic -march=x86-64 -g -O0 -fpre-include=/usr/include/finclude/math-vector-fortran.h
REM seed -1518721603 686520099 -959199145 -1131892173 -1374236763 500677062 196656232 921399093 -1856334015 -1101744702 1584346169 -513980723 1532343447 -372733571 -404150718 1183538278 -1714903315 -1940873054 -1640928613 -381504684 2114839481 -198533036 1701156764 -1300454070 -567888610 1431843456 663534888 -1795716747 -645752434 1833757973 1294831256 -864053311 -1990942208
REM
CELL 1.54180   50.00000   50.00000   50.00000   90.00000   90.00000   90.00000
LATT -1
SFAC C  
C      1  0.5437450000000  0.5247930000000  0.5535610000000 1.0
C      1  0.4836700000000  0.5513060000000  0.5533830000000 1.0
C      1  0.4554850000000  0.4916460000000  0.5512490000000 1.0
C      1  0.5174150000000  0.4592920000000  0.5533830000000 1.0
C      1  0.5437440000000  0.5247920000000  0.4459770000000 1.0
C      1  0.4836700000000  0.5513060000000  0.4461550000000 1.0
C      1  0.4554840000000  0.4916460000000  0.4482900000000 1.0
C      1  0.5174140000000  0.4592910000000  0.4461560000000 1.0
C      1  0.4709730000000  0.4473580000000  0.4316190000000 1.0
C      1  0.5638780000000  0.4794520000000  0.4334440000000 1.0
C      1  0.5239040000000  0.5743910000000  0.4329130000000 1.0
C      1  0.4366400000000  0.5318370000000  0.4293670000000 1.0
C      1  0.4709740000000  0.4473590000000  0.5679200000000 1.0
C      1  0.5638790000000  0.4794530000000  0.5660940000000 1.0
C      1  0.5239050000000  0.5743920000000  0.5666240000000 1.0
C      1  0.4366410000000  0.5318370000000  0.5701720000000 1.0
C      1  0.4516640000000  0.4622470000000  0.4459730000000 1.0
C      1  0.5450390000000  0.4597210000000  0.4325420000000 1.0
C      1  0.5421150000000  0.5539880000000  0.4358870000000 1.0
C      1  0.4533420000000  0.5493670000000  0.4445000000000 1.0
C      1  0.4516650000000  0.4622480000000  0.5535670000000 1.0
C      1  0.5450400000000  0.4597220000000  0.5669970000000 1.0
C      1  0.5421160000000  0.5539890000000  0.5636500000000 1.0
C      1  0.4533430000000  0.5493670000000  0.5550390000000 1.0
C      1  0.5255470000000  0.4598730000000  0.5244590000000 1.0
C      1  0.5406530000000  0.5259900000000  0.5230060000000 1.0
C      1  0.4937870000000  0.5491000000000  0.5238100000000 1.0
C      1  0.4620680000000  0.5034590000000  0.5224770000000 1.0
C      1  0.5255470000000  0.4598730000000  0.4750800000000 1.0
C      1  0.5406520000000  0.5259900000000  0.4765310000000 1.0
C      1  0.4937860000000  0.5491000000000  0.4757280000000 1.0
C      1  0.4620670000000  0.5034590000000  0.4770620000000 1.0
C      1  0.5686500000000  0.5051090000000  0.4450510000000 1.0
C      1  0.4962450000000  0.5798810000000  0.4412310000000 1.0
C      1  0.4292800000000  0.5072860000000  0.4427790000000 1.0
C      1  0.4936420000000  0.4394680000000  0.4470460000000 1.0
C      1  0.5686510000000  0.5051100000000  0.5544860000000 1.0
C      1  0.4962460000000  0.5798810000000  0.5583060000000 1.0
C      1  0.4292810000000  0.5072870000000  0.5567600000000 1.0
C      1  0.4936430000000  0.4394680000000  0.5524930000000 1.0
C      1  0.4403710000000  0.4499850000000  0.4690440000000 1.0
C      1  0.5304050000000  0.3683120000000  0.4861460000000 1.0
C      1  0.6420540000000  0.4629940000000  0.4861570000000 1.0
C      1  0.4420980000000  0.5536260000000  0.4707870000000 1.0
C      1  0.4403720000000  0.4499850000000  0.5304960000000 1.0
C      1  0.5304050000000  0.3683120000000  0.5133930000000 1.0
C      1  0.6420540000000  0.4629940000000  0.5133800000000 1.0
C      1  0.4420980000000  0.5536270000000  0.5287520000000 1.0
C      1  0.5685750000000  0.5263850000000  0.4858210000000 1.0
C      1  0.5057710000000  0.5748500000000  0.4855210000000 1.0
C      1  0.4380820000000  0.5258760000000  0.4845690000000 1.0
C      1  0.4601050000000  0.4362310000000  0.4852980000000 1.0
C      1  0.5685760000000  0.5263850000000  0.5137160000000 1.0
C      1  0.5057710000000  0.5748500000000  0.5140170000000 1.0
C      1  0.4380830000000  0.5258760000000  0.5149710000000 1.0
C      1  0.4601060000000  0.4362310000000  0.5142420000000 1.0
C      1  0.4849330000000  0.4267930000000  0.4719250000000 1.0
C      1  0.5844870000000  0.5087900000000  0.4698390000000 1.0
C      1  0.4911060000000  0.5935680000000  0.4683020000000 1.0
C      1  0.4158140000000  0.5095950000000  0.4697050000000 1.0
C      1  0.4849330000000  0.4267940000000  0.5276140000000 1.0
C      1  0.5844880000000  0.5087910000000  0.5296980000000 1.0
C      1  0.4911060000000  0.5935680000000  0.5312360000000 1.0
C      1  0.4158150000000  0.5095950000000  0.5298350000000 1.0
C      1  0.6034050000000  0.4937390000000  0.5147160000000 1.0
C      1  0.4663730000000  0.5979140000000  0.5149340000000 1.0
C      1  0.4072970000000  0.4865450000000  0.5142930000000 1.0
C      1  0.5002410000000  0.4071400000000  0.5143010000000 1.0
C      1  0.6034050000000  0.4937390000000  0.4848210000000 1.0
C      1  0.4663730000000  0.5979140000000  0.4846040000000 1.0
C      1  0.4072970000000  0.4865450000000  0.4852470000000 1.0
C      1  0.5002400000000  0.4071400000000  0.4852380000000 1.0
C      1  0.5158540000000  0.3870010000000  0.5268200000000 1.0
C      1  0.6235690000000  0.4777130000000  0.5268550000000 1.0
C      1  0.4437690000000  0.5812030000000  0.5225090000000 1.0
C      1  0.4149570000000  0.4607380000000  0.5243360000000 1.0
C      1  0.5158540000000  0.3870010000000  0.4727190000000 1.0
C      1  0.6235680000000  0.4777130000000  0.4726820000000 1.0
C      1  0.4437690000000  0.5812020000000  0.4770290000000 1.0
C      1  0.4149570000000  0.4607380000000  0.4752040000000 1.0
C      1  0.5207420000000  0.5118260000000  0.4332570000000 1.0
C      1  0.4934170000000  0.5283570000000  0.4300380000000 1.0
C      1  0.4791500000000  0.4992250000000  0.4323660000000 1.0
C      1  0.5061580000000  0.4855260000000  0.4357840000000 1.0
C      1  0.5207430000000  0.5118270000000  0.5662810000000 1.0
C      1  0.4934180000000  0.5283580000000  0.5695000000000 1.0
C      1  0.4791510000000  0.4992260000000  0.5671730000000 1.0
C      1  0.5061590000000  0.4855260000000  0.5637550000000 1.0
C      1  0.5192290000000  0.4704330000000  0.4997690000000 1.0
C      1  0.5242840000000  0.5175940000000  0.4997690000000 1.0
C      1  0.4872260000000  0.5371520000000  0.4997690000000 1.0
C      1  0.4775810000000  0.4965300000000  0.4997690000000 1.0
C      1  0.5062460000000  0.4953700000000  0.4997690000000 1.0
END
