TITL C-3623284-6838-283 4.41210910155948 125000 -1161.45160085827 0 0 186 (C1) n - 1
REM
REM in /home/nfs/bkarasulu/CARBON/AIRSS/Generating-Clusters/LCBOP/Higher-Symm/SD-CG/FIRE-CG
REM
REM
REM
REM
REM
REM ./C.cell (b20cbc046b6831c77cfcea5457e17084)
REM AIRSS Version 0.9.1 bugfix July 2018 build 013d7b7c2542+ Fri, 06 Jul 2018 19:26:36 +0100
REM compiler GCC version 9.2.1 20190827 (Red Hat 9.2.1-1)
REM options -cpp -mtune=generic -march=x86-64 -g -O0 -fpre-include=/usr/include/finclude/math-vector-fortran.h
REM seed 997559561 -1387467445 -1456142525 36820674 1988679953 -1875895731 -1253347183 951743194 1508911762 -1682039603 1535078410 1844808081 -1576118100 -1213727395 -1543470432 -617986249 654148981 -970575710 591313810 -1195573134 1019127783 -1162566082 1889144449 1790160143 1140725930 -752958392 -1410154876 913409376 -675351163 -1031513203 1260487871 846525021 -382072324
REM
CELL 1.54180   50.00000   50.00000   50.00000   90.00000   90.00000   90.00000
LATT -1
SFAC C  
C      1  0.5686540000000  0.4332210000000  0.5613690000000 1.0
C      1  0.3997880000000  0.4307850000000  0.5278840000000 1.0
C      1  0.5219840000000  0.4523670000000  0.3937940000000 1.0
C      1  0.3873250000000  0.5005040000000  0.5623770000000 1.0
C      1  0.5112080000000  0.4786930000000  0.3851340000000 1.0
C      1  0.6250750000000  0.5174350000000  0.5710990000000 1.0
C      1  0.5523900000000  0.5870150000000  0.5155740000000 1.0
C      1  0.4601150000000  0.5877220000000  0.5417020000000 1.0
C      1  0.4817120000000  0.5885930000000  0.4455650000000 1.0
C      1  0.5354130000000  0.5072020000000  0.5177090000000 1.0
C      1  0.4605830000000  0.5019930000000  0.5054760000000 1.0
C      1  0.4952510000000  0.5071610000000  0.4644890000000 1.0
C      1  0.4285160000000  0.4803530000000  0.5990700000000 1.0
C      1  0.4474630000000  0.4819760000000  0.3858490000000 1.0
C      1  0.6037180000000  0.3434000000000  0.5660100000000 1.0
C      1  0.4230750000000  0.4369140000000  0.4718880000000 1.0
C      1  0.5697390000000  0.4480320000000  0.4397590000000 1.0
C      1  0.5162250000000  0.4386590000000  0.5818170000000 1.0
C      1  0.6142670000000  0.5372860000000  0.4734350000000 1.0
C      1  0.4455020000000  0.5030860000000  0.6057960000000 1.0
C      1  0.4362000000000  0.5041060000000  0.4008280000000 1.0
C      1  0.3752010000000  0.5399620000000  0.5115980000000 1.0
C      1  0.5481220000000  0.5436260000000  0.3853120000000 1.0
C      1  0.5605960000000  0.5440080000000  0.5834990000000 1.0
C      1  0.5779300000000  0.5209190000000  0.5838710000000 1.0
C      1  0.3864280000000  0.5143420000000  0.5165750000000 1.0
C      1  0.5382440000000  0.5179980000000  0.3804840000000 1.0
C      1  0.5633390000000  0.5703690000000  0.5370830000000 1.0
C      1  0.4353350000000  0.5741360000000  0.5398690000000 1.0
C      1  0.4960670000000  0.5726380000000  0.4261420000000 1.0
C      1  0.4933210000000  0.5216110000000  0.4062500000000 1.0
C      1  0.5907970000000  0.5284080000000  0.5382080000000 1.0
C      1  0.4272840000000  0.5240210000000  0.5486920000000 1.0
C      1  0.5618910000000  0.5609560000000  0.4001660000000 1.0
C      1  0.5451170000000  0.5517570000000  0.6067480000000 1.0
C      1  0.3780510000000  0.5626090000000  0.4975390000000 1.0
C      1  0.5422450000000  0.4038790000000  0.5235860000000 1.0
C      1  0.4466580000000  0.4073130000000  0.5293230000000 1.0
C      1  0.5027930000000  0.4123750000000  0.4361190000000 1.0
C      1  0.5235900000000  0.4034200000000  0.4562730000000 1.0
C      1  0.5160940000000  0.3906230000000  0.5245500000000 1.0
C      1  0.4577230000000  0.3930590000000  0.4983370000000 1.0
C      1  0.5071490000000  0.4814300000000  0.4734450000000 1.0
C      1  0.5242980000000  0.4812730000000  0.5158450000000 1.0
C      1  0.4785140000000  0.4800270000000  0.5064930000000 1.0
C      1  0.4295420000000  0.4883840000000  0.4741520000000 1.0
C      1  0.5622650000000  0.4951030000000  0.4502490000000 1.0
C      1  0.5137870000000  0.4923080000000  0.5814680000000 1.0
C      1  0.3852530000000  0.5305970000000  0.4565730000000 1.0
C      1  0.6116140000000  0.5491240000000  0.4179440000000 1.0
C      1  0.5116050000000  0.5912720000000  0.6433190000000 1.0
C      1  0.4692670000000  0.4006970000000  0.5458600000000 1.0
C      1  0.4775120000000  0.4022150000000  0.4489440000000 1.0
C      1  0.5509330000000  0.4078910000000  0.4966940000000 1.0
C      1  0.4985450000000  0.4733650000000  0.5251910000000 1.0
C      1  0.4835220000000  0.4669380000000  0.4816720000000 1.0
C      1  0.5305900000000  0.4722200000000  0.4890690000000 1.0
C      1  0.3972890000000  0.5711330000000  0.4784160000000 1.0
C      1  0.5690930000000  0.5707960000000  0.4258500000000 1.0
C      1  0.5247370000000  0.5709540000000  0.6008110000000 1.0
C      1  0.4761590000000  0.5968890000000  0.5190720000000 1.0
C      1  0.4928490000000  0.5977420000000  0.4715730000000 1.0
C      1  0.5252600000000  0.5968810000000  0.5106550000000 1.0
C      1  0.4128590000000  0.5637330000000  0.4329120000000 1.0
C      1  0.5994720000000  0.5603910000000  0.4628990000000 1.0
C      1  0.4783620000000  0.5744440000000  0.6118320000000 1.0
C      1  0.5153250000000  0.3816050000000  0.4738230000000 1.0
C      1  0.5052900000000  0.3781690000000  0.5002140000000 1.0
C      1  0.4772240000000  0.3728850000000  0.5019470000000 1.0
C      1  0.4205170000000  0.5837560000000  0.4892930000000 1.0
C      1  0.5471690000000  0.5817760000000  0.4405470000000 1.0
C      1  0.5263000000000  0.5768220000000  0.5721270000000 1.0
C      1  0.5666090000000  0.4754700000000  0.3894240000000 1.0
C      1  0.5616660000000  0.4700570000000  0.6042440000000 1.0
C      1  0.3760940000000  0.4640990000000  0.4934110000000 1.0
C      1  0.5989810000000  0.5219600000000  0.5645810000000 1.0
C      1  0.4011530000000  0.5126220000000  0.5416680000000 1.0
C      1  0.5125420000000  0.5081500000000  0.3883580000000 1.0
C      1  0.4501740000000  0.4314050000000  0.4723540000000 1.0
C      1  0.5569250000000  0.4408320000000  0.4636200000000 1.0
C      1  0.5073630000000  0.4352140000000  0.5555240000000 1.0
C      1  0.5025350000000  0.4320570000000  0.4063220000000 1.0
C      1  0.5616000000000  0.4093370000000  0.5453850000000 1.0
C      1  0.4237500000000  0.4233690000000  0.5419380000000 1.0
C      1  0.4162160000000  0.4545960000000  0.4211670000000 1.0
C      1  0.6224280000000  0.4634930000000  0.4794380000000 1.0
C      1  0.4735510000000  0.4525250000000  0.6119810000000 1.0
C      1  0.6161300000000  0.5251150000000  0.4071910000000 1.0
C      1  0.5181740000000  0.6026210000000  0.6658410000000 1.0
C      1  0.3820210000000  0.5048080000000  0.4668230000000 1.0
C      1  0.4838710000000  0.5498810000000  0.4119510000000 1.0
C      1  0.5875190000000  0.5559760000000  0.5306780000000 1.0
C      1  0.4313680000000  0.5513750000000  0.5572730000000 1.0
C      1  0.4648520000000  0.5707880000000  0.5876560000000 1.0
C      1  0.4400040000000  0.5691430000000  0.4283150000000 1.0
C      1  0.5904610000000  0.5756930000000  0.4856730000000 1.0
C      1  0.4234760000000  0.4361210000000  0.5684640000000 1.0
C      1  0.4773770000000  0.4379180000000  0.3917660000000 1.0
C      1  0.5767760000000  0.3864790000000  0.5525580000000 1.0
C      1  0.4937010000000  0.5294110000000  0.5412320000000 1.0
C      1  0.4570890000000  0.5442570000000  0.4817060000000 1.0
C      1  0.5230780000000  0.5452310000000  0.4823320000000 1.0
C      1  0.5122900000000  0.4654840000000  0.5885480000000 1.0
C      1  0.4186080000000  0.4638640000000  0.4678370000000 1.0
C      1  0.5785980000000  0.4754280000000  0.4362650000000 1.0
C      1  0.4351000000000  0.4906010000000  0.5014160000000 1.0
C      1  0.5360250000000  0.4928770000000  0.4401550000000 1.0
C      1  0.5359490000000  0.4982460000000  0.5661100000000 1.0
C      1  0.4547490000000  0.5523880000000  0.4098170000000 1.0
C      1  0.6041020000000  0.5653880000000  0.5097500000000 1.0
C      1  0.4427290000000  0.5527960000000  0.5841540000000 1.0
C      1  0.6240610000000  0.5474430000000  0.4988530000000 1.0
C      1  0.4380350000000  0.5303560000000  0.6012900000000 1.0
C      1  0.4417620000000  0.5314040000000  0.3956720000000 1.0
C      1  0.4750910000000  0.5428630000000  0.5249690000000 1.0
C      1  0.4787040000000  0.5496460000000  0.4667560000000 1.0
C      1  0.5237800000000  0.5489410000000  0.5089160000000 1.0
C      1  0.4210830000000  0.4572070000000  0.5861100000000 1.0
C      1  0.4612600000000  0.4584630000000  0.3828740000000 1.0
C      1  0.5903760000000  0.3647760000000  0.5593260000000 1.0
C      1  0.6034250000000  0.4452120000000  0.4882200000000 1.0
C      1  0.4662000000000  0.4492690000000  0.5859080000000 1.0
C      1  0.4429280000000  0.4493770000000  0.4240560000000 1.0
C      1  0.3816270000000  0.4822230000000  0.4477650000000 1.0
C      1  0.6072940000000  0.5001060000000  0.4045660000000 1.0
C      1  0.5134970000000  0.4757000000000  0.6315370000000 1.0
C      1  0.3969950000000  0.5559850000000  0.4544550000000 1.0
C      1  0.5943500000000  0.5628020000000  0.4355850000000 1.0
C      1  0.5050320000000  0.5790480000000  0.6191850000000 1.0
C      1  0.5193510000000  0.5285140000000  0.5281040000000 1.0
C      1  0.4608830000000  0.5299250000000  0.5051260000000 1.0
C      1  0.5023000000000  0.5343330000000  0.4678580000000 1.0
C      1  0.4031910000000  0.4792660000000  0.4287280000000 1.0
C      1  0.6146300000000  0.4899790000000  0.4876740000000 1.0
C      1  0.4856580000000  0.4763050000000  0.6228060000000 1.0
C      1  0.4307440000000  0.4745090000000  0.5248060000000 1.0
C      1  0.5166170000000  0.4758750000000  0.4319000000000 1.0
C      1  0.5556540000000  0.4858620000000  0.5540830000000 1.0
C      1  0.4701350000000  0.5982580000000  0.4910640000000 1.0
C      1  0.5198170000000  0.5981540000000  0.4813110000000 1.0
C      1  0.5040960000000  0.5962760000000  0.5291610000000 1.0
C      1  0.4008390000000  0.4241260000000  0.4828900000000 1.0
C      1  0.5624200000000  0.4354720000000  0.4154100000000 1.0
C      1  0.5387240000000  0.4281150000000  0.5945380000000 1.0
C      1  0.4448740000000  0.5916510000000  0.4759850000000 1.0
C      1  0.5451700000000  0.5909880000000  0.4676270000000 1.0
C      1  0.5046040000000  0.5868990000000  0.5570270000000 1.0
C      1  0.4473850000000  0.4784680000000  0.5479810000000 1.0
C      1  0.4886980000000  0.4746470000000  0.4258760000000 1.0
C      1  0.5953980000000  0.4844600000000  0.5104210000000 1.0
C      1  0.5740150000000  0.4955040000000  0.5974730000000 1.0
C      1  0.3813890000000  0.4945040000000  0.4955800000000 1.0
C      1  0.5567340000000  0.4972250000000  0.3744260000000 1.0
C      1  0.4661980000000  0.4596250000000  0.5590740000000 1.0
C      1  0.4680160000000  0.4569100000000  0.4362640000000 1.0
C      1  0.5809890000000  0.4597840000000  0.5006950000000 1.0
C      1  0.5720310000000  0.5093150000000  0.4736000000000 1.0
C      1  0.4898970000000  0.5067400000000  0.5851260000000 1.0
C      1  0.4408910000000  0.5023480000000  0.4516350000000 1.0
C      1  0.4605030000000  0.4057170000000  0.4725350000000 1.0
C      1  0.5454630000000  0.4161880000000  0.4697450000000 1.0
C      1  0.4955390000000  0.3938480000000  0.5441810000000 1.0
C      1  0.5231300000000  0.5787570000000  0.4261390000000 1.0
C      1  0.5508600000000  0.5635160000000  0.5620910000000 1.0
C      1  0.4207540000000  0.5819110000000  0.5175370000000 1.0
C      1  0.5601870000000  0.5118560000000  0.5021760000000 1.0
C      1  0.4779750000000  0.5155330000000  0.5611480000000 1.0
C      1  0.4693460000000  0.5068550000000  0.4488390000000 1.0
C      1  0.4528650000000  0.5858300000000  0.4478040000000 1.0
C      1  0.5649340000000  0.5866380000000  0.4886320000000 1.0
C      1  0.4766310000000  0.5830260000000  0.5647580000000 1.0
C      1  0.6020030000000  0.5118620000000  0.4736800000000 1.0
C      1  0.4743010000000  0.4990700000000  0.6082580000000 1.0
C      1  0.4247070000000  0.4993140000000  0.4270070000000 1.0
C      1  0.3693110000000  0.4616260000000  0.4642170000000 1.0
C      1  0.5864780000000  0.4821730000000  0.4094690000000 1.0
C      1  0.5399690000000  0.4724140000000  0.6244550000000 1.0
C      1  0.4796200000000  0.5018730000000  0.4224130000000 1.0
C      1  0.5830820000000  0.5081130000000  0.5201330000000 1.0
C      1  0.4507460000000  0.5065490000000  0.5540840000000 1.0
C      1  0.4903990000000  0.4546850000000  0.5443650000000 1.0
C      1  0.4685610000000  0.4514310000000  0.4643460000000 1.0
C      1  0.5559070000000  0.4590570000000  0.4857340000000 1.0
C      1  0.5507620000000  0.4515420000000  0.3951130000000 1.0
C      1  0.5622750000000  0.4439900000000  0.5884040000000 1.0
C      1  0.3878790000000  0.4393380000000  0.5037860000000 1.0
END
