TITL C-3623283-6828-552 5.01739746276191e-07 125000 -170.582307304426 0 0 29 (C2) n - 1
REM
REM in /home/nfs/bkarasulu/CARBON/AIRSS/Generating-Clusters/LCBOP/Higher-Symm/SD-CG/FIRE-CG
REM
REM
REM
REM
REM
REM ./C.cell (b20cbc046b6831c77cfcea5457e17084)
REM AIRSS Version 0.9.1 bugfix July 2018 build 013d7b7c2542+ Fri, 06 Jul 2018 19:26:36 +0100
REM compiler GCC version 9.2.1 20190827 (Red Hat 9.2.1-1)
REM options -cpp -mtune=generic -march=x86-64 -g -O0 -fpre-include=/usr/include/finclude/math-vector-fortran.h
REM seed -181645755 -2114056267 -1295454276 1238434733 1530678016 1514267563 306779630 235771044 -1748657042 -1710180470 865423560 286156235 1209917847 143082470 -328062379 -865897822 1779753174 -339981792 1329458042 -1870033678 -137424384 879907435 -779102225 -601283722 828642905 480220142 2013594294 -377328070 1462097113 839967972 1776100907 -479951401 -899511253
REM
CELL 1.54180   50.00000   50.00000   50.00000   90.00000   90.00000   90.00000
LATT -1
SFAC C  
C      1  0.5215880000000  0.5508400000000  0.5011610000000 1.0
C      1  0.4562020000000  0.4659380000000  0.4998690000000 1.0
C      1  0.4559640000000  0.4643570000000  0.4720180000000 1.0
C      1  0.5225950000000  0.5518290000000  0.5290220000000 1.0
C      1  0.5737450000000  0.4969790000000  0.4961740000000 1.0
C      1  0.5214930000000  0.4293240000000  0.5064050000000 1.0
C      1  0.5789540000000  0.4710560000000  0.4990690000000 1.0
C      1  0.5479310000000  0.4308680000000  0.5039270000000 1.0
C      1  0.5148860000000  0.5441730000000  0.5548480000000 1.0
C      1  0.4618270000000  0.4734350000000  0.4461670000000 1.0
C      1  0.4875890000000  0.4818680000000  0.5334620000000 1.0
C      1  0.5147470000000  0.5160010000000  0.4678920000000 1.0
C      1  0.4912030000000  0.5190530000000  0.4526700000000 1.0
C      1  0.4783820000000  0.5040450000000  0.5482510000000 1.0
C      1  0.4977310000000  0.4407860000000  0.5095370000000 1.0
C      1  0.5566560000000  0.5169860000000  0.4925030000000 1.0
C      1  0.4533810000000  0.4597270000000  0.4241130000000 1.0
C      1  0.5256190000000  0.5561180000000  0.5769330000000 1.0
C      1  0.4806560000000  0.4623190000000  0.5143540000000 1.0
C      1  0.5315630000000  0.5279370000000  0.4871300000000 1.0
C      1  0.5058180000000  0.5690820000000  0.4864920000000 1.0
C      1  0.4343010000000  0.4767150000000  0.5140420000000 1.0
C      1  0.4957780000000  0.5238130000000  0.5572050000000 1.0
C      1  0.4766760000000  0.4970750000000  0.4437550000000 1.0
C      1  0.4886390000000  0.5669730000000  0.4658880000000 1.0
C      1  0.4316180000000  0.4941250000000  0.5343830000000 1.0
C      1  0.4502570000000  0.5064870000000  0.5494420000000 1.0
C      1  0.4816900000000  0.5456050000000  0.4509830000000 1.0
C      1  0.5694890000000  0.4463040000000  0.5015780000000 1.0
END
