TITL C-3623284-6838-636 -365.373719148693 125000 -934.366997716539 0 0 153 (C1) n - 1
REM
REM in /home/nfs/bkarasulu/CARBON/AIRSS/Generating-Clusters/LCBOP/Higher-Symm/SD-CG/FIRE-CG
REM
REM
REM
REM
REM
REM ./C.cell (b20cbc046b6831c77cfcea5457e17084)
REM AIRSS Version 0.9.1 bugfix July 2018 build 013d7b7c2542+ Fri, 06 Jul 2018 19:26:36 +0100
REM compiler GCC version 9.2.1 20190827 (Red Hat 9.2.1-1)
REM options -cpp -mtune=generic -march=x86-64 -g -O0 -fpre-include=/usr/include/finclude/math-vector-fortran.h
REM seed 1874504778 1891170866 -1414332517 2015974664 207439964 885287204 65713757 540857056 1472510529 -1526724443 873486343 -901064089 -311315853 127883272 -80583848 -1046174752 505028136 493915088 797469965 12583326 712005662 1976266954 -1721545661 1396650884 -1777775768 -676221124 -1653941698 1726229938 704084354 -628628466 -434295846 369619214 -340809054
REM
CELL 1.54180   50.00000   50.00000   50.00000   90.00000   90.00000   90.00000
LATT -1
SFAC C  
C      1  0.4701990000000  0.5932160000000  0.5575150000000 1.0
C      1  0.4702870000000  0.4013620000000  0.5526970000000 1.0
C      1  0.4689440000000  0.5012730000000  0.3867770000000 1.0
C      1  0.4685730000000  0.5044380000000  0.5510560000000 1.0
C      1  0.4645940000000  0.4557030000000  0.4812750000000 1.0
C      1  0.4731250000000  0.5393890000000  0.4703070000000 1.0
C      1  0.5156240000000  0.3816990000000  0.5429030000000 1.0
C      1  0.5130900000000  0.5215390000000  0.3728230000000 1.0
C      1  0.5141280000000  0.5975560000000  0.5814990000000 1.0
C      1  0.5753110000000  0.5658750000000  0.4363740000000 1.0
C      1  0.5777100000000  0.5252700000000  0.5928070000000 1.0
C      1  0.5788290000000  0.4140320000000  0.4774760000000 1.0
C      1  0.4741980000000  0.5480980000000  0.3725800000000 1.0
C      1  0.4763210000000  0.5808990000000  0.6044440000000 1.0
C      1  0.4782120000000  0.3684260000000  0.5173070000000 1.0
C      1  0.3828240000000  0.4882840000000  0.4833600000000 1.0
C      1  0.3884890000000  0.5194190000000  0.4997330000000 1.0
C      1  0.3828160000000  0.4912520000000  0.5204770000000 1.0
C      1  0.5021410000000  0.5675480000000  0.4087270000000 1.0
C      1  0.5058100000000  0.5415660000000  0.6006300000000 1.0
C      1  0.5052360000000  0.3953230000000  0.4861290000000 1.0
C      1  0.4275210000000  0.4304150000000  0.5597500000000 1.0
C      1  0.4266750000000  0.4824090000000  0.4111070000000 1.0
C      1  0.4304190000000  0.5820450000000  0.5264940000000 1.0
C      1  0.5055010000000  0.4972000000000  0.5152080000000 1.0
C      1  0.4993570000000  0.4779230000000  0.4956970000000 1.0
C      1  0.5050980000000  0.5212750000000  0.4999860000000 1.0
C      1  0.5371550000000  0.4495850000000  0.5170350000000 1.0
C      1  0.5347470000000  0.5179610000000  0.4174900000000 1.0
C      1  0.5434350000000  0.5397480000000  0.5349970000000 1.0
C      1  0.5959720000000  0.5282270000000  0.4601020000000 1.0
C      1  0.5988420000000  0.5227430000000  0.5520760000000 1.0
C      1  0.5937730000000  0.4612520000000  0.4976730000000 1.0
C      1  0.4313040000000  0.5335150000000  0.5173830000000 1.0
C      1  0.4180350000000  0.4586200000000  0.5208050000000 1.0
C      1  0.4179120000000  0.5046210000000  0.4540900000000 1.0
C      1  0.4316220000000  0.5309710000000  0.4152330000000 1.0
C      1  0.4347160000000  0.5523470000000  0.5651620000000 1.0
C      1  0.4312720000000  0.4117340000000  0.5145680000000 1.0
C      1  0.4529580000000  0.4788150000000  0.4725900000000 1.0
C      1  0.4792250000000  0.5322060000000  0.4957880000000 1.0
C      1  0.4530860000000  0.4865260000000  0.5376950000000 1.0
C      1  0.4878550000000  0.3737820000000  0.4924720000000 1.0
C      1  0.4832560000000  0.5689080000000  0.3875380000000 1.0
C      1  0.4864730000000  0.5575210000000  0.6137950000000 1.0
C      1  0.5833160000000  0.4202700000000  0.5306770000000 1.0
C      1  0.5814030000000  0.5168480000000  0.4167080000000 1.0
C      1  0.5825720000000  0.5679350000000  0.5595390000000 1.0
C      1  0.4357260000000  0.5293320000000  0.5828060000000 1.0
C      1  0.4338970000000  0.4111270000000  0.4855170000000 1.0
C      1  0.4362480000000  0.5564260000000  0.4288690000000 1.0
C      1  0.4971120000000  0.5261010000000  0.5785450000000 1.0
C      1  0.4934600000000  0.4211680000000  0.4860000000000 1.0
C      1  0.4931690000000  0.5539760000000  0.4326730000000 1.0
C      1  0.5322810000000  0.3944810000000  0.4964210000000 1.0
C      1  0.5301870000000  0.5623140000000  0.4015260000000 1.0
C      1  0.5321840000000  0.5523990000000  0.5964570000000 1.0
C      1  0.4858740000000  0.5946490000000  0.5812750000000 1.0
C      1  0.4872240000000  0.3814650000000  0.5411140000000 1.0
C      1  0.4846350000000  0.5214580000000  0.3734700000000 1.0
C      1  0.5307690000000  0.4860160000000  0.5838080000000 1.0
C      1  0.5315600000000  0.4353720000000  0.4451730000000 1.0
C      1  0.5340670000000  0.5683450000000  0.4749000000000 1.0
C      1  0.5753920000000  0.5818140000000  0.4619450000000 1.0
C      1  0.5761140000000  0.4937130000000  0.5946360000000 1.0
C      1  0.5780220000000  0.4287730000000  0.4498550000000 1.0
C      1  0.5324870000000  0.5426820000000  0.4646440000000 1.0
C      1  0.5281750000000  0.5010110000000  0.5601430000000 1.0
C      1  0.5260120000000  0.4489130000000  0.4690940000000 1.0
C      1  0.4841650000000  0.4992770000000  0.5749350000000 1.0
C      1  0.4806530000000  0.4378590000000  0.4650510000000 1.0
C      1  0.4859830000000  0.5633730000000  0.4599500000000 1.0
C      1  0.5140780000000  0.4394870000000  0.5306330000000 1.0
C      1  0.5093050000000  0.5044290000000  0.4249240000000 1.0
C      1  0.5184720000000  0.5539350000000  0.5362290000000 1.0
C      1  0.4021280000000  0.4612550000000  0.4459730000000 1.0
C      1  0.4085120000000  0.5627680000000  0.4890610000000 1.0
C      1  0.4028040000000  0.4713600000000  0.5627770000000 1.0
C      1  0.5950300000000  0.4721520000000  0.5222400000000 1.0
C      1  0.5846730000000  0.5031240000000  0.4652200000000 1.0
C      1  0.6098150000000  0.5318170000000  0.5281500000000 1.0
C      1  0.5339570000000  0.3844650000000  0.5230560000000 1.0
C      1  0.5306780000000  0.5339340000000  0.3913420000000 1.0
C      1  0.5327990000000  0.5802240000000  0.5907910000000 1.0
C      1  0.5723040000000  0.4835610000000  0.5341520000000 1.0
C      1  0.5629690000000  0.4872030000000  0.4721530000000 1.0
C      1  0.5919980000000  0.5406770000000  0.5081840000000 1.0
C      1  0.4100950000000  0.5359850000000  0.4981860000000 1.0
C      1  0.3995770000000  0.4753890000000  0.5347870000000 1.0
C      1  0.3996860000000  0.4840780000000  0.4625150000000 1.0
C      1  0.5492200000000  0.4461360000000  0.5687710000000 1.0
C      1  0.5468770000000  0.4709080000000  0.4209580000000 1.0
C      1  0.5500080000000  0.5856860000000  0.5145670000000 1.0
C      1  0.4374660000000  0.5024000000000  0.5891980000000 1.0
C      1  0.4353320000000  0.4206950000000  0.4594620000000 1.0
C      1  0.4401470000000  0.5744350000000  0.4496920000000 1.0
C      1  0.5688960000000  0.5816030000000  0.5386340000000 1.0
C      1  0.5690260000000  0.4306200000000  0.5522720000000 1.0
C      1  0.5584130000000  0.4985310000000  0.4161320000000 1.0
C      1  0.4906270000000  0.4345450000000  0.5134790000000 1.0
C      1  0.4884260000000  0.5232150000000  0.4318110000000 1.0
C      1  0.4968700000000  0.5414350000000  0.5520690000000 1.0
C      1  0.6020270000000  0.5434520000000  0.4824400000000 1.0
C      1  0.5747070000000  0.5070560000000  0.5492660000000 1.0
C      1  0.5692930000000  0.4616880000000  0.4835570000000 1.0
C      1  0.4797060000000  0.5990440000000  0.5311170000000 1.0
C      1  0.4787070000000  0.4207040000000  0.5721000000000 1.0
C      1  0.4771910000000  0.4748950000000  0.3952550000000 1.0
C      1  0.4740050000000  0.4434780000000  0.4366040000000 1.0
C      1  0.4789310000000  0.5834610000000  0.4813250000000 1.0
C      1  0.4766310000000  0.4709860000000  0.5820440000000 1.0
C      1  0.4440310000000  0.4390350000000  0.4367810000000 1.0
C      1  0.4488990000000  0.5849020000000  0.4770660000000 1.0
C      1  0.4461170000000  0.4735400000000  0.5850590000000 1.0
C      1  0.4459250000000  0.5019950000000  0.4596440000000 1.0
C      1  0.4600680000000  0.5332160000000  0.5157820000000 1.0
C      1  0.4459140000000  0.4648820000000  0.5226670000000 1.0
C      1  0.5510070000000  0.5345660000000  0.5858730000000 1.0
C      1  0.5510100000000  0.4129600000000  0.4863170000000 1.0
C      1  0.5491830000000  0.5630940000000  0.4237490000000 1.0
C      1  0.4662420000000  0.4507500000000  0.5093580000000 1.0
C      1  0.4671150000000  0.5189720000000  0.4515940000000 1.0
C      1  0.4732850000000  0.5298440000000  0.5401660000000 1.0
C      1  0.4457530000000  0.4069210000000  0.5403550000000 1.0
C      1  0.4450430000000  0.5099720000000  0.3986160000000 1.0
C      1  0.4458680000000  0.5793010000000  0.5584780000000 1.0
C      1  0.4244120000000  0.4590490000000  0.4276140000000 1.0
C      1  0.4289360000000  0.5811920000000  0.4980910000000 1.0
C      1  0.4256370000000  0.4560130000000  0.5726690000000 1.0
C      1  0.5641860000000  0.5401820000000  0.5151510000000 1.0
C      1  0.5460760000000  0.4743720000000  0.5270300000000 1.0
C      1  0.5358940000000  0.4955350000000  0.4724730000000 1.0
C      1  0.5919930000000  0.4144140000000  0.5044670000000 1.0
C      1  0.5889420000000  0.5390580000000  0.4347470000000 1.0
C      1  0.5933740000000  0.5423700000000  0.5727880000000 1.0
C      1  0.4940390000000  0.5882290000000  0.5081870000000 1.0
C      1  0.4922440000000  0.4461390000000  0.5745270000000 1.0
C      1  0.4895780000000  0.4607210000000  0.4177160000000 1.0
C      1  0.5485660000000  0.5221140000000  0.5582320000000 1.0
C      1  0.5458440000000  0.4423670000000  0.4901810000000 1.0
C      1  0.5395600000000  0.5392840000000  0.4380630000000 1.0
C      1  0.5566890000000  0.4444920000000  0.4332350000000 1.0
C      1  0.5566900000000  0.5829920000000  0.4851650000000 1.0
C      1  0.5560190000000  0.4712490000000  0.5860300000000 1.0
C      1  0.4134370000000  0.5133300000000  0.4284320000000 1.0
C      1  0.4226940000000  0.5475600000000  0.5398710000000 1.0
C      1  0.4135550000000  0.4317810000000  0.5245960000000 1.0
C      1  0.5182660000000  0.4436930000000  0.5601310000000 1.0
C      1  0.5149930000000  0.4753310000000  0.4226150000000 1.0
C      1  0.5201640000000  0.5779680000000  0.5192860000000 1.0
C      1  0.5239490000000  0.4905640000000  0.5348330000000 1.0
C      1  0.5163760000000  0.4746370000000  0.4737830000000 1.0
C      1  0.5256840000000  0.5209880000000  0.4800960000000 1.0
END
