TITL C-3623286-7563-1868 4159008.45350701 125000 -1118.71646318209 0 0 187 (C1) n - 1
REM
REM in /home/nfs/bkarasulu/CARBON/AIRSS/Generating-Clusters/LCBOP/Higher-Symm/SD-CG/FIRE-CG
REM
REM
REM
REM
REM
REM ./C.cell (b20cbc046b6831c77cfcea5457e17084)
REM AIRSS Version 0.9.1 bugfix July 2018 build 013d7b7c2542+ Fri, 06 Jul 2018 19:26:36 +0100
REM compiler GCC version 9.2.1 20190827 (Red Hat 9.2.1-1)
REM options -cpp -mtune=generic -march=x86-64 -g -O0 -fpre-include=/usr/include/finclude/math-vector-fortran.h
REM seed -667540361 -1754666942 1486517877 1608430698 -1302461571 -828760696 -1774561684 76272203 -1783696490 1877111392 -1563669159 819496679 -823369023 -1655051421 -1686696545 -308148687 -632564264 2023446853 -686655237 2056237830 -1656532793 -455695461 1898076562 1618833249 1887890346 367306362 -1489307110 -2116181933 -1115683106 -802178889 -39174035 -1900305974 -1093349700
REM
CELL 1.54180   50.00000   50.00000   50.00000   90.00000   90.00000   90.00000
LATT -1
SFAC C  
C      1  0.4776960000000  0.5456800000000  0.4056510000000 1.0
C      1  0.4754130000000  0.4608760000000  0.4010480000000 1.0
C      1  0.5507390000000  0.4991060000000  0.4050620000000 1.0
C      1  0.4773590000000  0.5453040000000  0.5944420000000 1.0
C      1  0.4755780000000  0.4607740000000  0.5990940000000 1.0
C      1  0.5506100000000  0.4992760000000  0.5949460000000 1.0
C      1  0.4370180000000  0.5289770000000  0.4194820000000 1.0
C      1  0.5089640000000  0.4322360000000  0.4162650000000 1.0
C      1  0.5564690000000  0.5415380000000  0.4217610000000 1.0
C      1  0.4364560000000  0.5284370000000  0.5814160000000 1.0
C      1  0.5090820000000  0.4321890000000  0.5838170000000 1.0
C      1  0.5561560000000  0.5417060000000  0.5781450000000 1.0
C      1  0.5496780000000  0.4283860000000  0.4839760000000 1.0
C      1  0.5358780000000  0.5841260000000  0.4840500000000 1.0
C      1  0.4124160000000  0.4877710000000  0.4732920000000 1.0
C      1  0.5496830000000  0.4283740000000  0.5161800000000 1.0
C      1  0.5354660000000  0.5840770000000  0.5163870000000 1.0
C      1  0.4127330000000  0.4883710000000  0.5270850000000 1.0
C      1  0.4636750000000  0.5637940000000  0.5501230000000 1.0
C      1  0.4640370000000  0.4390780000000  0.5575910000000 1.0
C      1  0.5738130000000  0.4979990000000  0.5510580000000 1.0
C      1  0.4645750000000  0.5643180000000  0.4498740000000 1.0
C      1  0.4640060000000  0.4390680000000  0.4425320000000 1.0
C      1  0.5738210000000  0.4979280000000  0.4490100000000 1.0
C      1  0.5813800000000  0.3974850000000  0.4533860000000 1.0
C      1  0.5441190000000  0.6261520000000  0.4525940000000 1.0
C      1  0.3679510000000  0.4701610000000  0.4697030000000 1.0
C      1  0.5813650000000  0.3974440000000  0.5467650000000 1.0
C      1  0.5426510000000  0.6259530000000  0.5483060000000 1.0
C      1  0.3682050000000  0.4712340000000  0.5314660000000 1.0
C      1  0.4572220000000  0.6343750000000  0.4681710000000 1.0
C      1  0.4073850000000  0.3936490000000  0.4709770000000 1.0
C      1  0.6368390000000  0.4642450000000  0.4690580000000 1.0
C      1  0.4561560000000  0.6336480000000  0.5306490000000 1.0
C      1  0.4072960000000  0.3941030000000  0.5299760000000 1.0
C      1  0.6369030000000  0.4641540000000  0.5310530000000 1.0
C      1  0.5000420000000  0.4664200000000  0.3868830000000 1.0
C      1  0.5338560000000  0.5177830000000  0.3904000000000 1.0
C      1  0.4708100000000  0.5227120000000  0.3892470000000 1.0
C      1  0.5001990000000  0.4663340000000  0.6132670000000 1.0
C      1  0.5335700000000  0.5179420000000  0.6094560000000 1.0
C      1  0.4707930000000  0.5223900000000  0.6110190000000 1.0
C      1  0.5703030000000  0.5634350000000  0.5686760000000 1.0
C      1  0.4107390000000  0.5297420000000  0.5712720000000 1.0
C      1  0.5193410000000  0.4100020000000  0.5707980000000 1.0
C      1  0.5704610000000  0.5632330000000  0.4315110000000 1.0
C      1  0.4113560000000  0.5301900000000  0.4297430000000 1.0
C      1  0.5192640000000  0.4100770000000  0.4292930000000 1.0
C      1  0.4806870000000  0.4375050000000  0.5810290000000 1.0
C      1  0.5663770000000  0.5145530000000  0.5742160000000 1.0
C      1  0.4546900000000  0.5503590000000  0.5750150000000 1.0
C      1  0.4805800000000  0.4375600000000  0.4190450000000 1.0
C      1  0.5665690000000  0.5143740000000  0.4257560000000 1.0
C      1  0.4554050000000  0.5508810000000  0.4255010000000 1.0
C      1  0.5020540000000  0.4824230000000  0.3651140000000 1.0
C      1  0.5201490000000  0.5128830000000  0.3674870000000 1.0
C      1  0.4841000000000  0.5148670000000  0.3669230000000 1.0
C      1  0.5022650000000  0.4823530000000  0.6350230000000 1.0
C      1  0.5201250000000  0.5129930000000  0.6325140000000 1.0
C      1  0.4841410000000  0.5147350000000  0.6333600000000 1.0
C      1  0.5191360000000  0.4895660000000  0.5625210000000 1.0
C      1  0.4997350000000  0.5224370000000  0.5609070000000 1.0
C      1  0.4817290000000  0.4903030000000  0.5629600000000 1.0
C      1  0.5190910000000  0.4897570000000  0.4375280000000 1.0
C      1  0.4995700000000  0.5225710000000  0.4391290000000 1.0
C      1  0.4816780000000  0.4903600000000  0.4372050000000 1.0
C      1  0.6136630000000  0.4623900000000  0.5138900000000 1.0
C      1  0.4708920000000  0.6158870000000  0.5132790000000 1.0
C      1  0.4191810000000  0.4156170000000  0.5142960000000 1.0
C      1  0.6136250000000  0.4624350000000  0.4862500000000 1.0
C      1  0.4713570000000  0.6162800000000  0.4856910000000 1.0
C      1  0.4192870000000  0.4153740000000  0.4863570000000 1.0
C      1  0.4217950000000  0.5151860000000  0.5279660000000 1.0
C      1  0.5209690000000  0.4254630000000  0.5258530000000 1.0
C      1  0.5533100000000  0.5608510000000  0.5249600000000 1.0
C      1  0.4215600000000  0.5145310000000  0.4728370000000 1.0
C      1  0.5209830000000  0.4254520000000  0.4742730000000 1.0
C      1  0.5534340000000  0.5608150000000  0.4752770000000 1.0
C      1  0.5756740000000  0.5663200000000  0.5414950000000 1.0
C      1  0.4064220000000  0.5330070000000  0.5438240000000 1.0
C      1  0.5157470000000  0.4038630000000  0.5437730000000 1.0
C      1  0.5758130000000  0.5660580000000  0.4587000000000 1.0
C      1  0.4065790000000  0.5327520000000  0.4571590000000 1.0
C      1  0.5157610000000  0.4038860000000  0.4563160000000 1.0
C      1  0.5465870000000  0.6097500000000  0.5273650000000 1.0
C      1  0.3875410000000  0.4825470000000  0.5145460000000 1.0
C      1  0.5653940000000  0.4043490000000  0.5264320000000 1.0
C      1  0.5474990000000  0.6097800000000  0.4735080000000 1.0
C      1  0.3873940000000  0.4819680000000  0.4861660000000 1.0
C      1  0.5654120000000  0.4043780000000  0.4737250000000 1.0
C      1  0.5380080000000  0.4750900000000  0.4194430000000 1.0
C      1  0.5040620000000  0.5461830000000  0.4214070000000 1.0
C      1  0.4600690000000  0.4818530000000  0.4179840000000 1.0
C      1  0.5380940000000  0.4750860000000  0.5806630000000 1.0
C      1  0.5035060000000  0.5463810000000  0.5783780000000 1.0
C      1  0.4602000000000  0.4817630000000  0.5822090000000 1.0
C      1  0.3908530000000  0.4325720000000  0.4516740000000 1.0
C      1  0.6072790000000  0.4363300000000  0.4467190000000 1.0
C      1  0.4973060000000  0.6252550000000  0.4466610000000 1.0
C      1  0.3908890000000  0.4332590000000  0.5489090000000 1.0
C      1  0.6073470000000  0.4362370000000  0.5534010000000 1.0
C      1  0.4957210000000  0.6245240000000  0.5530700000000 1.0
C      1  0.4297100000000  0.4644990000000  0.4658590000000 1.0
C      1  0.5629680000000  0.4532920000000  0.4693080000000 1.0
C      1  0.5077830000000  0.5792850000000  0.4702010000000 1.0
C      1  0.4298240000000  0.4648720000000  0.5343460000000 1.0
C      1  0.5630460000000  0.4532580000000  0.5308440000000 1.0
C      1  0.5070790000000  0.5787800000000  0.5297410000000 1.0
C      1  0.6200830000000  0.5694380000000  0.5134650000000 1.0
C      1  0.3825140000000  0.5688840000000  0.5138170000000 1.0
C      1  0.4983410000000  0.3651760000000  0.5133470000000 1.0
C      1  0.6201550000000  0.5692350000000  0.4868310000000 1.0
C      1  0.3826500000000  0.5687240000000  0.4872110000000 1.0
C      1  0.4983650000000  0.3651720000000  0.4867090000000 1.0
C      1  0.3700100000000  0.4519320000000  0.5520480000000 1.0
C      1  0.5983120000000  0.4118310000000  0.5640240000000 1.0
C      1  0.5204710000000  0.6305240000000  0.5649890000000 1.0
C      1  0.3697540000000  0.4510690000000  0.4489140000000 1.0
C      1  0.5982900000000  0.4118970000000  0.4361140000000 1.0
C      1  0.5223990000000  0.6310850000000  0.4354070000000 1.0
C      1  0.5612250000000  0.4681350000000  0.4405630000000 1.0
C      1  0.4970980000000  0.5697130000000  0.4417720000000 1.0
C      1  0.4435640000000  0.4619730000000  0.4374600000000 1.0
C      1  0.5613450000000  0.4681920000000  0.5595750000000 1.0
C      1  0.4953740000000  0.5691750000000  0.5576970000000 1.0
C      1  0.4436730000000  0.4619970000000  0.5627420000000 1.0
C      1  0.5270340000000  0.4878680000000  0.4655940000000 1.0
C      1  0.4982990000000  0.5287580000000  0.4687610000000 1.0
C      1  0.4751510000000  0.4852590000000  0.4654110000000 1.0
C      1  0.5270940000000  0.4876490000000  0.5344550000000 1.0
C      1  0.4985610000000  0.5285060000000  0.5312210000000 1.0
C      1  0.4751850000000  0.4853070000000  0.5347240000000 1.0
C      1  0.4957000000000  0.5553630000000  0.4852710000000 1.0
C      1  0.4559430000000  0.4645920000000  0.4829080000000 1.0
C      1  0.5505350000000  0.4768960000000  0.4848410000000 1.0
C      1  0.4970460000000  0.5545990000000  0.5144900000000 1.0
C      1  0.4559670000000  0.4647040000000  0.5172550000000 1.0
C      1  0.5506050000000  0.4768120000000  0.5152600000000 1.0
C      1  0.4604990000000  0.5628980000000  0.5194290000000 1.0
C      1  0.4712240000000  0.4385500000000  0.5284760000000 1.0
C      1  0.5736570000000  0.4987370000000  0.5197810000000 1.0
C      1  0.4649740000000  0.5627800000000  0.4828500000000 1.0
C      1  0.4712470000000  0.4384780000000  0.4716530000000 1.0
C      1  0.5736200000000  0.4987720000000  0.4802950000000 1.0
C      1  0.4138330000000  0.4393190000000  0.5309530000000 1.0
C      1  0.5934410000000  0.4489320000000  0.5302480000000 1.0
C      1  0.4934810000000  0.6064520000000  0.5293140000000 1.0
C      1  0.4139510000000  0.4388350000000  0.4693660000000 1.0
C      1  0.5933780000000  0.4490010000000  0.4698940000000 1.0
C      1  0.4943550000000  0.6070280000000  0.4701700000000 1.0
C      1  0.3910720000000  0.5539150000000  0.5340060000000 1.0
C      1  0.5056040000000  0.3796800000000  0.5344410000000 1.0
C      1  0.6017670000000  0.5696780000000  0.5326950000000 1.0
C      1  0.3912960000000  0.5535970000000  0.4671880000000 1.0
C      1  0.5056540000000  0.3796770000000  0.4656250000000 1.0
C      1  0.6019300000000  0.5692420000000  0.4675130000000 1.0
C      1  0.6042940000000  0.4035670000000  0.4108950000000 1.0
C      1  0.5255240000000  0.6393240000000  0.4096380000000 1.0
C      1  0.3533160000000  0.4515480000000  0.4271890000000 1.0
C      1  0.6042970000000  0.4035100000000  0.5892500000000 1.0
C      1  0.5228990000000  0.6386180000000  0.5908780000000 1.0
C      1  0.3537340000000  0.4523230000000  0.5738940000000 1.0
C      1  0.5451010000000  0.5357630000000  0.5142790000000 1.0
C      1  0.4461560000000  0.5203380000000  0.5144410000000 1.0
C      1  0.4994000000000  0.4439890000000  0.5163020000000 1.0
C      1  0.5449610000000  0.5358240000000  0.4858930000000 1.0
C      1  0.4459760000000  0.5199320000000  0.4861220000000 1.0
C      1  0.4994180000000  0.4439770000000  0.4838170000000 1.0
C      1  0.4506840000000  0.5076040000000  0.4048530000000 1.0
C      1  0.5218830000000  0.4551990000000  0.4035690000000 1.0
C      1  0.5308000000000  0.5414360000000  0.4077680000000 1.0
C      1  0.4505510000000  0.5071540000000  0.5956800000000 1.0
C      1  0.5220200000000  0.4551410000000  0.5965360000000 1.0
C      1  0.5304030000000  0.5415780000000  0.5920210000000 1.0
C      1  0.5021080000000  0.4748160000000  0.5239000000000 1.0
C      1  0.5263610000000  0.5176520000000  0.5252060000000 1.0
C      1  0.4715470000000  0.5138050000000  0.5252280000000 1.0
C      1  0.5021060000000  0.4748440000000  0.4761830000000 1.0
C      1  0.5260260000000  0.5178990000000  0.4750010000000 1.0
C      1  0.4713200000000  0.5137000000000  0.4749970000000 1.0
C      1  0.4706660000000  0.6388440000000  0.5535940000000 1.0
C      1  0.3905580000000  0.4043700000000  0.5495180000000 1.0
C      1  0.6333080000000  0.4488210000000  0.5537850000000 1.0
C      1  0.4723550000000  0.6397360000000  0.4456660000000 1.0
C      1  0.3905650000000  0.4036690000000  0.4513720000000 1.0
C      1  0.6332290000000  0.4489370000000  0.4463140000000 1.0
C      1  0.5008890000000  0.4899000000000  0.5000640000000 1.0
END
