TITL C-3623285-6872-1567 5569.87577759582 125000 -391.798170601991 0 0 67 (C1) n - 1
REM
REM in /home/nfs/bkarasulu/CARBON/AIRSS/Generating-Clusters/LCBOP/Higher-Symm/SD-CG/FIRE-CG
REM
REM
REM
REM
REM
REM ./C.cell (b20cbc046b6831c77cfcea5457e17084)
REM AIRSS Version 0.9.1 bugfix July 2018 build 013d7b7c2542+ Fri, 06 Jul 2018 19:26:36 +0100
REM compiler GCC version 9.2.1 20190827 (Red Hat 9.2.1-1)
REM options -cpp -mtune=generic -march=x86-64 -g -O0 -fpre-include=/usr/include/finclude/math-vector-fortran.h
REM seed 1153051525 -1167084219 524501684 -544418868 1080910244 1602675464 925731106 -1574072570 -2019706342 -282839767 -741619687 -1048418014 -860571511 1486265207 -181910165 -1842602495 -384057634 -1952164037 560982655 827121311 258781286 -1244337369 -1076454319 529316909 -1398330810 -135632877 -1337300935 -1477980130 -1640895589 -1278377209 1537480714 675463024 -768567954
REM
CELL 1.54180   50.00000   50.00000   50.00000   90.00000   90.00000   90.00000
LATT -1
SFAC C  
C      1  0.5667660000000  0.5416500000000  0.4905890000000 1.0
C      1  0.4462850000000  0.5422440000000  0.4989820000000 1.0
C      1  0.4496330000000  0.4531410000000  0.4978880000000 1.0
C      1  0.5420490000000  0.4533680000000  0.5001600000000 1.0
C      1  0.5021880000000  0.5455310000000  0.5831660000000 1.0
C      1  0.4713280000000  0.5396530000000  0.4463340000000 1.0
C      1  0.4995420000000  0.5671700000000  0.4741780000000 1.0
C      1  0.4982550000000  0.5742300000000  0.5438040000000 1.0
C      1  0.5111190000000  0.4212830000000  0.5724530000000 1.0
C      1  0.4858260000000  0.4167410000000  0.4272050000000 1.0
C      1  0.4293030000000  0.4730700000000  0.4891600000000 1.0
C      1  0.5673390000000  0.4678320000000  0.5074110000000 1.0
C      1  0.5318520000000  0.4690540000000  0.4525920000000 1.0
C      1  0.4642370000000  0.4666490000000  0.5404760000000 1.0
C      1  0.4592590000000  0.5711650000000  0.5669900000000 1.0
C      1  0.5188570000000  0.5664160000000  0.4335060000000 1.0
C      1  0.5468010000000  0.5185640000000  0.4573990000000 1.0
C      1  0.4614480000000  0.5196120000000  0.5377130000000 1.0
C      1  0.5372120000000  0.5290250000000  0.5303230000000 1.0
C      1  0.4776070000000  0.5132150000000  0.4816930000000 1.0
C      1  0.5495120000000  0.5615850000000  0.4748740000000 1.0
C      1  0.4569620000000  0.5637510000000  0.5167740000000 1.0
C      1  0.4365870000000  0.4744230000000  0.5372960000000 1.0
C      1  0.5610100000000  0.4713680000000  0.4603310000000 1.0
C      1  0.4719340000000  0.4699260000000  0.4966080000000 1.0
C      1  0.5240990000000  0.4764420000000  0.5030020000000 1.0
C      1  0.5642460000000  0.4725060000000  0.5359780000000 1.0
C      1  0.4359100000000  0.4805470000000  0.4615570000000 1.0
C      1  0.5221800000000  0.5524650000000  0.4824900000000 1.0
C      1  0.4855780000000  0.5590040000000  0.5233960000000 1.0
C      1  0.5033930000000  0.5065260000000  0.4745640000000 1.0
C      1  0.5117320000000  0.5169330000000  0.5288560000000 1.0
C      1  0.5124310000000  0.5200800000000  0.5838380000000 1.0
C      1  0.4729980000000  0.5141890000000  0.4321140000000 1.0
C      1  0.5220160000000  0.4401360000000  0.4525910000000 1.0
C      1  0.4794310000000  0.4418250000000  0.5415100000000 1.0
C      1  0.4881130000000  0.5668080000000  0.5700810000000 1.0
C      1  0.4925960000000  0.5605730000000  0.4465260000000 1.0
C      1  0.5443660000000  0.4718870000000  0.5549770000000 1.0
C      1  0.4572450000000  0.4815840000000  0.4426890000000 1.0
C      1  0.4956290000000  0.4402760000000  0.4374790000000 1.0
C      1  0.5024630000000  0.4441510000000  0.5596350000000 1.0
C      1  0.4590310000000  0.5089750000000  0.5637830000000 1.0
C      1  0.5424510000000  0.5094430000000  0.4311090000000 1.0
C      1  0.5079180000000  0.4899160000000  0.5216930000000 1.0
C      1  0.4906310000000  0.4596530000000  0.4793190000000 1.0
C      1  0.5261660000000  0.4326460000000  0.4833410000000 1.0
C      1  0.4777630000000  0.4304210000000  0.5137520000000 1.0
C      1  0.4407570000000  0.5180140000000  0.5161560000000 1.0
C      1  0.5684080000000  0.5152150000000  0.4769310000000 1.0
C      1  0.4458530000000  0.5723020000000  0.5425460000000 1.0
C      1  0.5438120000000  0.5699120000000  0.4468500000000 1.0
C      1  0.5037900000000  0.4928930000000  0.5783490000000 1.0
C      1  0.4970000000000  0.4890070000000  0.4240880000000 1.0
C      1  0.4805410000000  0.4656850000000  0.4334820000000 1.0
C      1  0.5172220000000  0.4696780000000  0.5654840000000 1.0
C      1  0.5590490000000  0.5392260000000  0.5181100000000 1.0
C      1  0.4604730000000  0.5349630000000  0.4741160000000 1.0
C      1  0.5245890000000  0.4873270000000  0.4292960000000 1.0
C      1  0.4751510000000  0.4933500000000  0.5789340000000 1.0
C      1  0.5228200000000  0.5257630000000  0.4717420000000 1.0
C      1  0.4872130000000  0.5310720000000  0.5297100000000 1.0
C      1  0.5719180000000  0.4862400000000  0.4835040000000 1.0
C      1  0.4289220000000  0.4912030000000  0.5136310000000 1.0
C      1  0.5127050000000  0.4789740000000  0.4752100000000 1.0
C      1  0.4809360000000  0.4810350000000  0.5212140000000 1.0
C      1  0.4977610000000  0.4335730000000  0.4923900000000 1.0
END
