TITL C-3623289-7120-1489 -8.5262388216262e-08 125000 -27.5148249493044 0 0 7 (C3v) n - 1
REM
REM in /home/nfs/bkarasulu/CARBON/AIRSS/Generating-Clusters/LCBOP/Higher-Symm/SD-CG/FIRE-CG
REM
REM
REM
REM
REM
REM ./C.cell (b20cbc046b6831c77cfcea5457e17084)
REM AIRSS Version 0.9.1 bugfix July 2018 build 013d7b7c2542+ Fri, 06 Jul 2018 19:26:36 +0100
REM compiler GCC version 9.2.1 20190827 (Red Hat 9.2.1-1)
REM options -cpp -mtune=generic -march=x86-64 -g -O0 -fpre-include=/usr/include/finclude/math-vector-fortran.h
REM seed 1324092575 778593464 1684457142 -266111998 -1055825241 -1459041442 1138056560 22882880 -1040811606 -843496377 -1226415653 -953099000 -1264002173 -399965084 -1955875995 -298742634 531518060 -1606725394 -963787516 -473900556 1635084772 -1961081992 -1552827145 -337523454 -2015476527 259698590 -496780242 -285038118 433574698 -1706560720 1887980755 -540452685 573828563
REM
CELL 1.54180   50.00000   50.00000   50.00000   90.00000   90.00000   90.00000
LATT -1
SFAC C  
C      1  0.4926030000000  0.5220180000000  0.5402640000000 1.0
C      1  0.5347880000000  0.4961500000000  0.5402640000000 1.0
C      1  0.4912940000000  0.4725500000000  0.5402640000000 1.0
C      1  0.5062280000000  0.4969060000000  0.4737330000000 1.0
C      1  0.5062280000000  0.4969060000000  0.4476630000000 1.0
C      1  0.5062280000000  0.4969060000000  0.5002170000000 1.0
C      1  0.5062280000000  0.4969060000000  0.5299030000000 1.0
END
