TITL C-3623289-7120-1670 -1.16196541085087e-06 125000 -1033.38636167517 0 0 160 (C1) n - 1
REM
REM in /home/nfs/bkarasulu/CARBON/AIRSS/Generating-Clusters/LCBOP/Higher-Symm/SD-CG/FIRE-CG
REM
REM
REM
REM
REM
REM ./C.cell (b20cbc046b6831c77cfcea5457e17084)
REM AIRSS Version 0.9.1 bugfix July 2018 build 013d7b7c2542+ Fri, 06 Jul 2018 19:26:36 +0100
REM compiler GCC version 9.2.1 20190827 (Red Hat 9.2.1-1)
REM options -cpp -mtune=generic -march=x86-64 -g -O0 -fpre-include=/usr/include/finclude/math-vector-fortran.h
REM seed 1541502207 1457645110 -135669113 1703879651 -1112754306 -1862679234 -1460881720 -1354117656 1414502248 -867215417 -531851691 300356719 1097476425 -1790246180 -1283229283 1021917639 -450088330 -1370204727 -1114208447 623470731 1648202231 -544105415 858499047 -267425162 894138115 2015037801 -2089654672 -1353857708 -880012109 -870726387 -398984256 1848992320 1865108930
REM
CELL 1.54180   50.00000   50.00000   50.00000   90.00000   90.00000   90.00000
LATT -1
SFAC C  
C      1  0.6078580000000  0.5607770000000  0.4633490000000 1.0
C      1  0.5614890000000  0.4608250000000  0.6117570000000 1.0
C      1  0.4579030000000  0.6044220000000  0.5557700000000 1.0
C      1  0.3830610000000  0.5651290000000  0.5291400000000 1.0
C      1  0.3928080000000  0.4302020000000  0.4844030000000 1.0
C      1  0.6082080000000  0.4413190000000  0.5403850000000 1.0
C      1  0.4288970000000  0.4650460000000  0.3873540000000 1.0
C      1  0.4348490000000  0.5269960000000  0.6136200000000 1.0
C      1  0.5639110000000  0.5105030000000  0.3861690000000 1.0
C      1  0.5402920000000  0.6017960000000  0.4417850000000 1.0
C      1  0.5288160000000  0.3838800000000  0.5429390000000 1.0
C      1  0.4658880000000  0.4039840000000  0.4258680000000 1.0
C      1  0.5012970000000  0.6144900000000  0.5350700000000 1.0
C      1  0.6143310000000  0.5372270000000  0.5059090000000 1.0
C      1  0.5319170000000  0.4999580000000  0.6147460000000 1.0
C      1  0.4967120000000  0.6127320000000  0.4618100000000 1.0
C      1  0.5009620000000  0.3660840000000  0.5061290000000 1.0
C      1  0.5176560000000  0.4014090000000  0.4426300000000 1.0
C      1  0.3856630000000  0.5305680000000  0.4942980000000 1.0
C      1  0.3957180000000  0.4626890000000  0.5237370000000 1.0
C      1  0.6150730000000  0.4653300000000  0.4982330000000 1.0
C      1  0.4626720000000  0.5016720000000  0.3860380000000 1.0
C      1  0.4599340000000  0.4820880000000  0.6074670000000 1.0
C      1  0.5304930000000  0.4725970000000  0.3925570000000 1.0
C      1  0.5259270000000  0.5237110000000  0.5618550000000 1.0
C      1  0.5221200000000  0.5636730000000  0.5273400000000 1.0
C      1  0.5615370000000  0.5276630000000  0.5244220000000 1.0
C      1  0.4767480000000  0.5197360000000  0.4419500000000 1.0
C      1  0.4787820000000  0.4902400000000  0.5589860000000 1.0
C      1  0.5238220000000  0.4883580000000  0.4415060000000 1.0
C      1  0.4799790000000  0.5613970000000  0.4733150000000 1.0
C      1  0.4822170000000  0.4405540000000  0.5273940000000 1.0
C      1  0.5205710000000  0.4451120000000  0.4780540000000 1.0
C      1  0.4418320000000  0.5242600000000  0.4801600000000 1.0
C      1  0.4442860000000  0.4806200000000  0.5173190000000 1.0
C      1  0.5609360000000  0.4788130000000  0.4819960000000 1.0
C      1  0.4524180000000  0.5694070000000  0.4831240000000 1.0
C      1  0.5687080000000  0.4866430000000  0.4549630000000 1.0
C      1  0.4884190000000  0.4632820000000  0.5659410000000 1.0
C      1  0.5483610000000  0.5723060000000  0.5169840000000 1.0
C      1  0.5462690000000  0.4348660000000  0.4882100000000 1.0
C      1  0.4614880000000  0.4333860000000  0.5080770000000 1.0
C      1  0.4352310000000  0.4972800000000  0.5408700000000 1.0
C      1  0.4338410000000  0.5079080000000  0.4569570000000 1.0
C      1  0.5700180000000  0.5149830000000  0.5500800000000 1.0
C      1  0.5030170000000  0.4672500000000  0.4385520000000 1.0
C      1  0.5115610000000  0.5474390000000  0.5708220000000 1.0
C      1  0.4895990000000  0.5432700000000  0.4303740000000 1.0
C      1  0.4150200000000  0.5164580000000  0.5479250000000 1.0
C      1  0.5105920000000  0.5411580000000  0.4104840000000 1.0
C      1  0.5535700000000  0.4104760000000  0.5003990000000 1.0
C      1  0.5929840000000  0.5002480000000  0.4484130000000 1.0
C      1  0.5928030000000  0.4985630000000  0.5554980000000 1.0
C      1  0.4125010000000  0.4883190000000  0.4557510000000 1.0
C      1  0.4902180000000  0.5465670000000  0.5903940000000 1.0
C      1  0.4792890000000  0.4609390000000  0.4243670000000 1.0
C      1  0.5078570000000  0.4497440000000  0.5817240000000 1.0
C      1  0.4592240000000  0.4114150000000  0.4888790000000 1.0
C      1  0.4451140000000  0.5929730000000  0.4976350000000 1.0
C      1  0.5537410000000  0.5944080000000  0.4997390000000 1.0
C      1  0.4891870000000  0.5041260000000  0.4625860000000 1.0
C      1  0.5019020000000  0.4621780000000  0.4909660000000 1.0
C      1  0.4633650000000  0.4910740000000  0.5001750000000 1.0
C      1  0.5171660000000  0.5044640000000  0.5420800000000 1.0
C      1  0.5175310000000  0.5087330000000  0.4605410000000 1.0
C      1  0.4891560000000  0.5090030000000  0.5407130000000 1.0
C      1  0.5044250000000  0.4599280000000  0.5196270000000 1.0
C      1  0.5036580000000  0.5487730000000  0.4861500000000 1.0
C      1  0.5007890000000  0.5491370000000  0.5144520000000 1.0
C      1  0.5440740000000  0.4899440000000  0.5028330000000 1.0
C      1  0.5445310000000  0.5188020000000  0.5017740000000 1.0
C      1  0.4615820000000  0.5194810000000  0.5011970000000 1.0
C      1  0.4055340000000  0.4771720000000  0.4308340000000 1.0
C      1  0.4562120000000  0.4490930000000  0.4352770000000 1.0
C      1  0.4329530000000  0.4014010000000  0.4858620000000 1.0
C      1  0.5936880000000  0.4834650000000  0.5792800000000 1.0
C      1  0.5984440000000  0.5066280000000  0.4217330000000 1.0
C      1  0.4180290000000  0.5351150000000  0.5685080000000 1.0
C      1  0.5205860000000  0.4263250000000  0.5730510000000 1.0
C      1  0.5301450000000  0.5614940000000  0.4112030000000 1.0
C      1  0.4717700000000  0.5679130000000  0.5892990000000 1.0
C      1  0.5731520000000  0.4100010000000  0.5205800000000 1.0
C      1  0.5777660000000  0.5953730000000  0.4851190000000 1.0
C      1  0.4194750000000  0.5952220000000  0.5091080000000 1.0
C      1  0.3967770000000  0.4807830000000  0.4781780000000 1.0
C      1  0.4793840000000  0.4608170000000  0.3957300000000 1.0
C      1  0.4783100000000  0.3978780000000  0.4720310000000 1.0
C      1  0.6121990000000  0.4926590000000  0.5360270000000 1.0
C      1  0.6108160000000  0.5092050000000  0.4682470000000 1.0
C      1  0.3892950000000  0.5146510000000  0.5372790000000 1.0
C      1  0.5101720000000  0.4596010000000  0.6079400000000 1.0
C      1  0.5138980000000  0.5187270000000  0.3929920000000 1.0
C      1  0.4846460000000  0.5245380000000  0.6077910000000 1.0
C      1  0.5395910000000  0.3873570000000  0.4936340000000 1.0
C      1  0.5332860000000  0.6116800000000  0.4915650000000 1.0
C      1  0.4647740000000  0.6112990000000  0.5054180000000 1.0
C      1  0.4919410000000  0.5024860000000  0.3834370000000 1.0
C      1  0.5235290000000  0.3862570000000  0.4689460000000 1.0
C      1  0.3849910000000  0.4904740000000  0.5226150000000 1.0
C      1  0.5033480000000  0.5043880000000  0.6159980000000 1.0
C      1  0.5024440000000  0.4738230000000  0.3849330000000 1.0
C      1  0.4885330000000  0.4777250000000  0.6149770000000 1.0
C      1  0.4968120000000  0.3780990000000  0.4809570000000 1.0
C      1  0.4872410000000  0.6179630000000  0.4887640000000 1.0
C      1  0.5107070000000  0.6185770000000  0.5079050000000 1.0
C      1  0.6191870000000  0.4924770000000  0.4900120000000 1.0
C      1  0.6191790000000  0.5101800000000  0.5143670000000 1.0
C      1  0.3852500000000  0.5013940000000  0.4942860000000 1.0
C      1  0.4441130000000  0.4717680000000  0.5832110000000 1.0
C      1  0.4856980000000  0.5953770000000  0.4420850000000 1.0
C      1  0.5963400000000  0.4481490000000  0.4860940000000 1.0
C      1  0.5433290000000  0.4558890000000  0.4145660000000 1.0
C      1  0.5510350000000  0.5146040000000  0.5997680000000 1.0
C      1  0.4473780000000  0.5150420000000  0.4059210000000 1.0
C      1  0.5128190000000  0.5988850000000  0.5559410000000 1.0
C      1  0.5285520000000  0.4279560000000  0.4329240000000 1.0
C      1  0.4404310000000  0.4484130000000  0.5631870000000 1.0
C      1  0.4200820000000  0.4493850000000  0.5383340000000 1.0
C      1  0.4027060000000  0.5486470000000  0.4801890000000 1.0
C      1  0.5981970000000  0.5562180000000  0.5192550000000 1.0
C      1  0.5701490000000  0.5545600000000  0.5219030000000 1.0
C      1  0.5516850000000  0.5191460000000  0.5718750000000 1.0
C      1  0.5165040000000  0.5708060000000  0.5544570000000 1.0
C      1  0.4311330000000  0.5501500000000  0.4799100000000 1.0
C      1  0.4400530000000  0.4520730000000  0.5160380000000 1.0
C      1  0.5684570000000  0.4521220000000  0.4858860000000 1.0
C      1  0.4502860000000  0.5138560000000  0.4340430000000 1.0
C      1  0.4512790000000  0.4923330000000  0.5636100000000 1.0
C      1  0.5499930000000  0.4776690000000  0.4353420000000 1.0
C      1  0.4842770000000  0.5672770000000  0.4454170000000 1.0
C      1  0.4699590000000  0.4442200000000  0.5537300000000 1.0
C      1  0.5150570000000  0.4445980000000  0.4509880000000 1.0
C      1  0.5379050000000  0.5017020000000  0.3904260000000 1.0
C      1  0.5261390000000  0.3745240000000  0.5167290000000 1.0
C      1  0.3809740000000  0.5381250000000  0.5223470000000 1.0
C      1  0.4581650000000  0.5119750000000  0.6113670000000 1.0
C      1  0.4554400000000  0.4730140000000  0.3843800000000 1.0
C      1  0.5357560000000  0.4709040000000  0.6152460000000 1.0
C      1  0.4870700000000  0.4012350000000  0.4439500000000 1.0
C      1  0.4721240000000  0.6130640000000  0.5333490000000 1.0
C      1  0.5258960000000  0.6119120000000  0.4635170000000 1.0
C      1  0.6127840000000  0.5368050000000  0.4765970000000 1.0
C      1  0.6151310000000  0.4650300000000  0.5274510000000 1.0
C      1  0.3950670000000  0.4561610000000  0.4939950000000 1.0
C      1  0.5877210000000  0.5118140000000  0.3979590000000 1.0
C      1  0.5263860000000  0.4031030000000  0.5613110000000 1.0
C      1  0.3983500000000  0.5861310000000  0.5226530000000 1.0
C      1  0.4197720000000  0.5385390000000  0.5948480000000 1.0
C      1  0.4100920000000  0.4680600000000  0.4061870000000 1.0
C      1  0.5833550000000  0.4673400000000  0.5978190000000 1.0
C      1  0.4481740000000  0.4242250000000  0.4283220000000 1.0
C      1  0.4591110000000  0.5875840000000  0.5764780000000 1.0
C      1  0.5410540000000  0.5828430000000  0.4229520000000 1.0
C      1  0.5952470000000  0.5837190000000  0.4687060000000 1.0
C      1  0.5917440000000  0.4206230000000  0.5364540000000 1.0
C      1  0.4074580000000  0.4080810000000  0.4822760000000 1.0
C      1  0.4805670000000  0.5292460000000  0.5218260000000 1.0
C      1  0.5256690000000  0.5288530000000  0.4800610000000 1.0
C      1  0.5253260000000  0.4816110000000  0.5251490000000 1.0
C      1  0.4833060000000  0.4829420000000  0.4819890000000 1.0
END
