TITL C-3623287-7182-1798 4922.07171005894 125000 -604.757324459817 0 0 104 (S4) n - 1
REM
REM in /home/nfs/bkarasulu/CARBON/AIRSS/Generating-Clusters/LCBOP/Higher-Symm/SD-CG/FIRE-CG
REM
REM
REM
REM
REM
REM ./C.cell (b20cbc046b6831c77cfcea5457e17084)
REM AIRSS Version 0.9.1 bugfix July 2018 build 013d7b7c2542+ Fri, 06 Jul 2018 19:26:36 +0100
REM compiler GCC version 9.2.1 20190827 (Red Hat 9.2.1-1)
REM options -cpp -mtune=generic -march=x86-64 -g -O0 -fpre-include=/usr/include/finclude/math-vector-fortran.h
REM seed 1978448876 1518688527 290655330 -1391835512 1803552548 615790230 1332670192 -1195324527 1033921597 1666379728 -475758179 1442991483 -679193608 -140847245 1393508546 -243597207 940217934 -1625120525 496752288 -875011720 -171876644 -1990430264 -513855671 1851605348 708899209 -421901018 -1628538879 -1297570787 1937251897 699788401 2115510465 -577525834 -1348913714
REM
CELL 1.54180   50.00000   50.00000   50.00000   90.00000   90.00000   90.00000
LATT -1
SFAC C  
C      1  0.5848490000000  0.5042740000000  0.5465500000000 1.0
C      1  0.4151520000000  0.5465520000000  0.4957310000000 1.0
C      1  0.5848450000000  0.4957300000000  0.4534410000000 1.0
C      1  0.4151550000000  0.4534440000000  0.5042760000000 1.0
C      1  0.5869160000000  0.5566610000000  0.4969850000000 1.0
C      1  0.4130810000000  0.4969830000000  0.4433470000000 1.0
C      1  0.5869190000000  0.4433460000000  0.5030110000000 1.0
C      1  0.4130860000000  0.5030100000000  0.5566630000000 1.0
C      1  0.5428880000000  0.5874150000000  0.4814390000000 1.0
C      1  0.4571050000000  0.4814390000000  0.4125880000000 1.0
C      1  0.5428940000000  0.4125880000000  0.5185580000000 1.0
C      1  0.4571120000000  0.5185580000000  0.5874160000000 1.0
C      1  0.4968030000000  0.4953000000000  0.4484830000000 1.0
C      1  0.5031970000000  0.4484830000000  0.5046990000000 1.0
C      1  0.4968070000000  0.5046990000000  0.5515180000000 1.0
C      1  0.5031940000000  0.5515170000000  0.4953000000000 1.0
C      1  0.5231340000000  0.5202740000000  0.5554380000000 1.0
C      1  0.4768650000000  0.5554380000000  0.4797270000000 1.0
C      1  0.5231300000000  0.4797260000000  0.4445590000000 1.0
C      1  0.4768700000000  0.4445620000000  0.5202740000000 1.0
C      1  0.5004140000000  0.4581440000000  0.4789150000000 1.0
C      1  0.4995890000000  0.4789160000000  0.5418540000000 1.0
C      1  0.5004140000000  0.5418540000000  0.5210840000000 1.0
C      1  0.4995840000000  0.5210840000000  0.4581450000000 1.0
C      1  0.4780910000000  0.5901670000000  0.5099660000000 1.0
C      1  0.5219030000000  0.5099650000000  0.4098310000000 1.0
C      1  0.4780940000000  0.4098310000000  0.4900370000000 1.0
C      1  0.5219110000000  0.4900370000000  0.5901670000000 1.0
C      1  0.4707260000000  0.4869490000000  0.4584460000000 1.0
C      1  0.5292740000000  0.4584460000000  0.5130480000000 1.0
C      1  0.4707290000000  0.5130490000000  0.5415570000000 1.0
C      1  0.5292710000000  0.5415560000000  0.4869490000000 1.0
C      1  0.4541960000000  0.4912020000000  0.5335290000000 1.0
C      1  0.5458050000000  0.5335280000000  0.5087950000000 1.0
C      1  0.4541930000000  0.5087960000000  0.4664750000000 1.0
C      1  0.5458060000000  0.4664740000000  0.4912000000000 1.0
C      1  0.4850350000000  0.5807400000000  0.5442830000000 1.0
C      1  0.5149600000000  0.5442830000000  0.4192590000000 1.0
C      1  0.4850340000000  0.4192580000000  0.4557180000000 1.0
C      1  0.5149700000000  0.4557190000000  0.5807390000000 1.0
C      1  0.4677460000000  0.5584210000000  0.5531510000000 1.0
C      1  0.5322500000000  0.5531510000000  0.4415770000000 1.0
C      1  0.4677440000000  0.4415770000000  0.4468510000000 1.0
C      1  0.5322590000000  0.4468520000000  0.5584200000000 1.0
C      1  0.5401080000000  0.5001610000000  0.4298240000000 1.0
C      1  0.4598910000000  0.4298260000000  0.4998420000000 1.0
C      1  0.5401140000000  0.4998410000000  0.5701720000000 1.0
C      1  0.4598870000000  0.5701720000000  0.5001620000000 1.0
C      1  0.4670690000000  0.5350330000000  0.4177400000000 1.0
C      1  0.5329260000000  0.4177390000000  0.4649640000000 1.0
C      1  0.4670780000000  0.4649640000000  0.5822620000000 1.0
C      1  0.5329260000000  0.5822620000000  0.5350340000000 1.0
C      1  0.6033210000000  0.5745570000000  0.4874740000000 1.0
C      1  0.3966740000000  0.4874700000000  0.4254540000000 1.0
C      1  0.6033260000000  0.4254530000000  0.5125250000000 1.0
C      1  0.3966800000000  0.5125200000000  0.5745590000000 1.0
C      1  0.5151590000000  0.4576810000000  0.4248240000000 1.0
C      1  0.4848410000000  0.4248250000000  0.5423180000000 1.0
C      1  0.5151650000000  0.5423170000000  0.5751750000000 1.0
C      1  0.4848330000000  0.5751740000000  0.4576820000000 1.0
C      1  0.5740230000000  0.5351080000000  0.5096030000000 1.0
C      1  0.4259750000000  0.5096040000000  0.4648980000000 1.0
C      1  0.5740240000000  0.4648970000000  0.4903900000000 1.0
C      1  0.4259780000000  0.4903920000000  0.5351100000000 1.0
C      1  0.4585320000000  0.5443210000000  0.5769810000000 1.0
C      1  0.5414650000000  0.5769810000000  0.4556760000000 1.0
C      1  0.4585270000000  0.4556760000000  0.4230220000000 1.0
C      1  0.5414750000000  0.4230230000000  0.5443200000000 1.0
C      1  0.5669260000000  0.4969840000000  0.5646140000000 1.0
C      1  0.4330750000000  0.5646150000000  0.5030210000000 1.0
C      1  0.5669200000000  0.5030190000000  0.4353790000000 1.0
C      1  0.4330780000000  0.4353810000000  0.4969850000000 1.0
C      1  0.6162830000000  0.5097340000000  0.5103170000000 1.0
C      1  0.3837170000000  0.5103190000000  0.4902740000000 1.0
C      1  0.6162820000000  0.4902720000000  0.4896720000000 1.0
C      1  0.3837180000000  0.4896750000000  0.5097370000000 1.0
C      1  0.5264850000000  0.4685460000000  0.4705280000000 1.0
C      1  0.4735180000000  0.4705310000000  0.5314530000000 1.0
C      1  0.5264850000000  0.5314530000000  0.5294680000000 1.0
C      1  0.4735140000000  0.5294680000000  0.4685480000000 1.0
C      1  0.5249380000000  0.5334390000000  0.4611380000000 1.0
C      1  0.4750600000000  0.4611380000000  0.4665620000000 1.0
C      1  0.5249430000000  0.4665630000000  0.5388590000000 1.0
C      1  0.4750610000000  0.5388600000000  0.5334400000000 1.0
C      1  0.5127850000000  0.4273380000000  0.4457730000000 1.0
C      1  0.4872190000000  0.4457750000000  0.5726630000000 1.0
C      1  0.5127860000000  0.5726650000000  0.5542230000000 1.0
C      1  0.4872090000000  0.5542250000000  0.4273390000000 1.0
C      1  0.5913210000000  0.4836990000000  0.4776600000000 1.0
C      1  0.4086790000000  0.4776630000000  0.5163080000000 1.0
C      1  0.5913230000000  0.5163050000000  0.5223310000000 1.0
C      1  0.4086770000000  0.5223320000000  0.4837010000000 1.0
C      1  0.6393690000000  0.5217720000000  0.5186980000000 1.0
C      1  0.3606300000000  0.5187000000000  0.4782360000000 1.0
C      1  0.6393690000000  0.4782350000000  0.4812870000000 1.0
C      1  0.3606330000000  0.4812940000000  0.5217780000000 1.0
C      1  0.4898410000000  0.4004020000000  0.5219150000000 1.0
C      1  0.5101660000000  0.5219150000000  0.5995970000000 1.0
C      1  0.4898330000000  0.5995980000000  0.4780890000000 1.0
C      1  0.5101580000000  0.4780890000000  0.4004010000000 1.0
C      1  0.5400670000000  0.4115650000000  0.4910130000000 1.0
C      1  0.4599390000000  0.4910140000000  0.5884370000000 1.0
C      1  0.5400640000000  0.5884360000000  0.5089840000000 1.0
C      1  0.4599290000000  0.5089830000000  0.4115660000000 1.0
END
