TITL C-3623289-7120-1296 -2.93529031290877e-07 125000 -654.893527335563 0 0 114 (Cs) n - 1
REM
REM in /home/nfs/bkarasulu/CARBON/AIRSS/Generating-Clusters/LCBOP/Higher-Symm/SD-CG/FIRE-CG
REM
REM
REM
REM
REM
REM ./C.cell (b20cbc046b6831c77cfcea5457e17084)
REM AIRSS Version 0.9.1 bugfix July 2018 build 013d7b7c2542+ Fri, 06 Jul 2018 19:26:36 +0100
REM compiler GCC version 9.2.1 20190827 (Red Hat 9.2.1-1)
REM options -cpp -mtune=generic -march=x86-64 -g -O0 -fpre-include=/usr/include/finclude/math-vector-fortran.h
REM seed -412040564 -618918016 1970742089 -147451256 -1063783951 91664401 -1875269982 1420321367 115628123 -1780772678 185105612 -1442606777 -59764808 -347475318 1910204523 -457140361 -2122087553 943567198 1204078692 -241539779 -228270256 -293691506 1558379886 -394688260 -519581027 -1770756203 1262770551 -174828075 -507594061 -1965791525 412429234 1482674430 699870722
REM
CELL 1.54180   50.00000   50.00000   50.00000   90.00000   90.00000   90.00000
LATT -1
SFAC C  
C      1  0.5979220000000  0.5041650000000  0.5140670000000 1.0
C      1  0.4529330000000  0.4151700000000  0.5140510000000 1.0
C      1  0.4484740000000  0.5841760000000  0.5139970000000 1.0
C      1  0.5979240000000  0.5041640000000  0.4859400000000 1.0
C      1  0.4529340000000  0.4151700000000  0.4859470000000 1.0
C      1  0.4484750000000  0.5841760000000  0.4859980000000 1.0
C      1  0.4754770000000  0.4308200000000  0.4726530000000 1.0
C      1  0.4516830000000  0.5571120000000  0.4726710000000 1.0
C      1  0.5722220000000  0.5141480000000  0.4723480000000 1.0
C      1  0.4754750000000  0.4308210000000  0.5273460000000 1.0
C      1  0.4516810000000  0.5571120000000  0.5273240000000 1.0
C      1  0.5722200000000  0.5141480000000  0.5276570000000 1.0
C      1  0.4461340000000  0.5216480000000  0.4360090000000 1.0
C      1  0.5422320000000  0.5343890000000  0.4348060000000 1.0
C      1  0.5110470000000  0.4432890000000  0.4386150000000 1.0
C      1  0.4461290000000  0.5216490000000  0.5639870000000 1.0
C      1  0.5422280000000  0.5343910000000  0.5651970000000 1.0
C      1  0.5110420000000  0.4432900000000  0.5613870000000 1.0
C      1  0.5621670000000  0.5148760000000  0.4433660000000 1.0
C      1  0.4831660000000  0.4389920000000  0.4443330000000 1.0
C      1  0.4549340000000  0.5479610000000  0.4442020000000 1.0
C      1  0.5621630000000  0.5148770000000  0.5566390000000 1.0
C      1  0.4831620000000  0.4389930000000  0.5556670000000 1.0
C      1  0.4549300000000  0.5479620000000  0.5557930000000 1.0
C      1  0.5467380000000  0.4658490000000  0.5287610000000 1.0
C      1  0.4485690000000  0.4782800000000  0.5309090000000 1.0
C      1  0.5068490000000  0.5573180000000  0.5304740000000 1.0
C      1  0.5467400000000  0.4658490000000  0.4712430000000 1.0
C      1  0.4485710000000  0.4782790000000  0.4690870000000 1.0
C      1  0.5068510000000  0.5573170000000  0.4695250000000 1.0
C      1  0.4161360000000  0.4511120000000  0.4462450000000 1.0
C      1  0.4992270000000  0.5989050000000  0.4464870000000 1.0
C      1  0.5845010000000  0.4495760000000  0.4466590000000 1.0
C      1  0.4161320000000  0.4511130000000  0.5537500000000 1.0
C      1  0.4992230000000  0.5989060000000  0.5535110000000 1.0
C      1  0.5844970000000  0.4495770000000  0.5533480000000 1.0
C      1  0.4422020000000  0.4620370000000  0.5543640000000 1.0
C      1  0.4960040000000  0.5708520000000  0.5539290000000 1.0
C      1  0.5627290000000  0.4675890000000  0.5530100000000 1.0
C      1  0.4422060000000  0.4620360000000  0.4456320000000 1.0
C      1  0.4960080000000  0.5708510000000  0.4460690000000 1.0
C      1  0.5627330000000  0.4675880000000  0.4469950000000 1.0
C      1  0.5297940000000  0.5455060000000  0.5418470000000 1.0
C      1  0.5253740000000  0.4498800000000  0.5375030000000 1.0
C      1  0.4449590000000  0.5042280000000  0.5413420000000 1.0
C      1  0.5297980000000  0.5455050000000  0.4581540000000 1.0
C      1  0.5253770000000  0.4498800000000  0.4625000000000 1.0
C      1  0.4449620000000  0.5042280000000  0.4586540000000 1.0
C      1  0.5505850000000  0.4889500000000  0.4865790000000 1.0
C      1  0.4651330000000  0.4636950000000  0.4865090000000 1.0
C      1  0.4855860000000  0.5503030000000  0.4865600000000 1.0
C      1  0.5505840000000  0.4889500000000  0.5134250000000 1.0
C      1  0.4651320000000  0.4636950000000  0.5134890000000 1.0
C      1  0.4855850000000  0.5503030000000  0.5134380000000 1.0
C      1  0.5582530000000  0.5905640000000  0.4736830000000 1.0
C      1  0.5473650000000  0.4018870000000  0.4737120000000 1.0
C      1  0.3929090000000  0.5065160000000  0.4737350000000 1.0
C      1  0.5582510000000  0.5905650000000  0.5263200000000 1.0
C      1  0.5473630000000  0.4018870000000  0.5262930000000 1.0
C      1  0.3929070000000  0.5065170000000  0.5262570000000 1.0
C      1  0.5702510000000  0.5665750000000  0.4729480000000 1.0
C      1  0.5205400000000  0.4034010000000  0.4730710000000 1.0
C      1  0.4069540000000  0.5293990000000  0.4731170000000 1.0
C      1  0.5702490000000  0.5665750000000  0.5270560000000 1.0
C      1  0.5205380000000  0.4034020000000  0.5269320000000 1.0
C      1  0.4069520000000  0.5293990000000  0.5268750000000 1.0
C      1  0.5697390000000  0.5413840000000  0.4856300000000 1.0
C      1  0.4993610000000  0.4171840000000  0.4857050000000 1.0
C      1  0.4289260000000  0.5418570000000  0.4857230000000 1.0
C      1  0.5697380000000  0.5413840000000  0.5143750000000 1.0
C      1  0.4993600000000  0.4171840000000  0.5142960000000 1.0
C      1  0.4289250000000  0.5418570000000  0.5142710000000 1.0
C      1  0.4821180000000  0.5485470000000  0.5651570000000 1.0
C      1  0.5496750000000  0.4901690000000  0.5647050000000 1.0
C      1  0.4683160000000  0.4611380000000  0.5659880000000 1.0
C      1  0.4821220000000  0.5485460000000  0.4348410000000 1.0
C      1  0.5496800000000  0.4901680000000  0.4352990000000 1.0
C      1  0.4683210000000  0.4611370000000  0.4340100000000 1.0
C      1  0.3996900000000  0.4593420000000  0.5319060000000 1.0
C      1  0.5144910000000  0.6093210000000  0.5317840000000 1.0
C      1  0.5853350000000  0.4307350000000  0.5318920000000 1.0
C      1  0.3996920000000  0.4593410000000  0.4680880000000 1.0
C      1  0.5144930000000  0.6093200000000  0.4682150000000 1.0
C      1  0.5853380000000  0.4307340000000  0.4681160000000 1.0
C      1  0.4071230000000  0.4337490000000  0.5727500000000 1.0
C      1  0.4884340000000  0.6151460000000  0.5725740000000 1.0
C      1  0.6035790000000  0.4500490000000  0.5728200000000 1.0
C      1  0.4071290000000  0.4337470000000  0.4272450000000 1.0
C      1  0.4884390000000  0.6151450000000  0.4274230000000 1.0
C      1  0.6035840000000  0.4500470000000  0.4271890000000 1.0
C      1  0.4847680000000  0.4852950000000  0.4349090000000 1.0
C      1  0.4937740000000  0.5210780000000  0.4378190000000 1.0
C      1  0.5200430000000  0.4933270000000  0.4389590000000 1.0
C      1  0.4847630000000  0.4852960000000  0.5650900000000 1.0
C      1  0.4937690000000  0.5210800000000  0.5621800000000 1.0
C      1  0.5200390000000  0.4933290000000  0.5610430000000 1.0
C      1  0.4800200000000  0.5123050000000  0.6048050000000 1.0
C      1  0.5089660000000  0.5067310000000  0.6035200000000 1.0
C      1  0.5159750000000  0.4780280000000  0.6030010000000 1.0
C      1  0.4800280000000  0.5123030000000  0.3951940000000 1.0
C      1  0.5089740000000  0.5067290000000  0.3964810000000 1.0
C      1  0.5159830000000  0.4780260000000  0.3970000000000 1.0
C      1  0.4563250000000  0.5143330000000  0.4094390000000 1.0
C      1  0.5279230000000  0.5268650000000  0.4092010000000 1.0
C      1  0.5171270000000  0.4550850000000  0.4124520000000 1.0
C      1  0.4563180000000  0.5143340000000  0.5905570000000 1.0
C      1  0.5279160000000  0.5268670000000  0.5908000000000 1.0
C      1  0.5171200000000  0.4550870000000  0.5875510000000 1.0
C      1  0.5361420000000  0.6040000000000  0.5144280000000 1.0
C      1  0.5699870000000  0.4145790000000  0.5144610000000 1.0
C      1  0.3931130000000  0.4805840000000  0.5144420000000 1.0
C      1  0.5361430000000  0.6040000000000  0.4855720000000 1.0
C      1  0.5699880000000  0.4145780000000  0.4855450000000 1.0
C      1  0.3931140000000  0.4805840000000  0.4855500000000 1.0
END
