TITL C-3623282-6910-471 0.0220324671126135 125000 -634.014822321743 0 0 104 (C1) n - 1
REM
REM in /home/nfs/bkarasulu/CARBON/AIRSS/Generating-Clusters/LCBOP/Higher-Symm/SD-CG/FIRE-CG
REM
REM
REM
REM
REM
REM ./C.cell (b20cbc046b6831c77cfcea5457e17084)
REM AIRSS Version 0.9.1 bugfix July 2018 build 013d7b7c2542+ Fri, 06 Jul 2018 19:26:36 +0100
REM compiler GCC version 9.2.1 20190827 (Red Hat 9.2.1-1)
REM options -cpp -mtune=generic -march=x86-64 -g -O0 -fpre-include=/usr/include/finclude/math-vector-fortran.h
REM seed -1811498005 1535984132 -1439730820 -154648836 -146603168 1332715841 -1657067445 1701807063 580183896 1723803102 367769246 -1614651334 -1457178711 -1750671692 -691043684 -1523875760 954763560 339492669 -1032496346 -93754991 -1251291922 603240771 1806079723 1592213836 -1039597930 2018427783 -23806695 -375968745 997484257 418537148 -273852976 53012227 482981806
REM
CELL 1.54180   50.00000   50.00000   50.00000   90.00000   90.00000   90.00000
LATT -1
SFAC C  
C      1  0.5910610000000  0.5055620000000  0.4711540000000 1.0
C      1  0.4090480000000  0.5283480000000  0.4892170000000 1.0
C      1  0.5909110000000  0.5235260000000  0.5186100000000 1.0
C      1  0.4078080000000  0.4971500000000  0.5288510000000 1.0
C      1  0.5921410000000  0.4737940000000  0.5103380000000 1.0
C      1  0.4089090000000  0.4783760000000  0.4817270000000 1.0
C      1  0.4957600000000  0.4870750000000  0.5548600000000 1.0
C      1  0.5056650000000  0.4471320000000  0.5183620000000 1.0
C      1  0.4971330000000  0.4575830000000  0.4628250000000 1.0
C      1  0.5027630000000  0.5119730000000  0.4443440000000 1.0
C      1  0.4974100000000  0.5546910000000  0.4823140000000 1.0
C      1  0.5024110000000  0.5428070000000  0.5381980000000 1.0
C      1  0.5140980000000  0.4222690000000  0.5010140000000 1.0
C      1  0.4868980000000  0.4610020000000  0.4329030000000 1.0
C      1  0.5130440000000  0.5397340000000  0.4322830000000 1.0
C      1  0.4871060000000  0.5789220000000  0.5005130000000 1.0
C      1  0.5125280000000  0.5384720000000  0.5679860000000 1.0
C      1  0.4854720000000  0.4555020000000  0.5631070000000 1.0
C      1  0.4535730000000  0.5601010000000  0.5277670000000 1.0
C      1  0.5454560000000  0.5045960000000  0.5653770000000 1.0
C      1  0.4474160000000  0.4481130000000  0.5397510000000 1.0
C      1  0.5469120000000  0.4411170000000  0.4725030000000 1.0
C      1  0.4536970000000  0.4943590000000  0.4353710000000 1.0
C      1  0.5464110000000  0.5540340000000  0.4625690000000 1.0
C      1  0.4532530000000  0.4591030000000  0.5655880000000 1.0
C      1  0.5427880000000  0.4243310000000  0.4955140000000 1.0
C      1  0.4583520000000  0.4659360000000  0.4328120000000 1.0
C      1  0.5416320000000  0.5424450000000  0.4365630000000 1.0
C      1  0.4585060000000  0.5767160000000  0.5047520000000 1.0
C      1  0.5409410000000  0.5329950000000  0.5683430000000 1.0
C      1  0.5472900000000  0.4910380000000  0.4653550000000 1.0
C      1  0.4531260000000  0.5259560000000  0.4747610000000 1.0
C      1  0.5469260000000  0.5352590000000  0.5094420000000 1.0
C      1  0.4519650000000  0.5102000000000  0.5353120000000 1.0
C      1  0.5484140000000  0.4749990000000  0.5254360000000 1.0
C      1  0.4525450000000  0.4658440000000  0.4922620000000 1.0
C      1  0.5892020000000  0.4968250000000  0.5293620000000 1.0
C      1  0.4103170000000  0.4744850000000  0.5111990000000 1.0
C      1  0.5891460000000  0.4777930000000  0.4818960000000 1.0
C      1  0.4115380000000  0.5048840000000  0.4709100000000 1.0
C      1  0.5885400000000  0.5279320000000  0.4891420000000 1.0
C      1  0.4110020000000  0.5246580000000  0.5177070000000 1.0
C      1  0.5293740000000  0.4831510000000  0.4152570000000 1.0
C      1  0.4707350000000  0.5656140000000  0.4427490000000 1.0
C      1  0.5293980000000  0.5822920000000  0.5284960000000 1.0
C      1  0.4704770000000  0.5168170000000  0.5849010000000 1.0
C      1  0.5324270000000  0.4348450000000  0.5569790000000 1.0
C      1  0.4701290000000  0.4186090000000  0.4758950000000 1.0
C      1  0.5590940000000  0.5207310000000  0.4277240000000 1.0
C      1  0.4411430000000  0.5734780000000  0.4814440000000 1.0
C      1  0.5585830000000  0.5518860000000  0.5544220000000 1.0
C      1  0.4381970000000  0.4820190000000  0.5736150000000 1.0
C      1  0.5611210000000  0.4277750000000  0.5179860000000 1.0
C      1  0.4411460000000  0.4475730000000  0.4477730000000 1.0
C      1  0.5495520000000  0.5021560000000  0.4065240000000 1.0
C      1  0.4506900000000  0.5826770000000  0.4549030000000 1.0
C      1  0.5491640000000  0.5797090000000  0.5496320000000 1.0
C      1  0.4489830000000  0.5000050000000  0.5941260000000 1.0
C      1  0.5522950000000  0.4182220000000  0.5443870000000 1.0
C      1  0.4505000000000  0.4200040000000  0.4543900000000 1.0
C      1  0.4351520000000  0.4579820000000  0.5173200000000 1.0
C      1  0.5635460000000  0.4648790000000  0.4709770000000 1.0
C      1  0.4371820000000  0.5078590000000  0.4548640000000 1.0
C      1  0.5630400000000  0.5437270000000  0.4838930000000 1.0
C      1  0.4366250000000  0.5367890000000  0.5290530000000 1.0
C      1  0.5634810000000  0.4927920000000  0.5456730000000 1.0
C      1  0.5697130000000  0.5395110000000  0.5306820000000 1.0
C      1  0.4281100000000  0.4954580000000  0.5498750000000 1.0
C      1  0.5715450000000  0.4548780000000  0.5185080000000 1.0
C      1  0.4299990000000  0.4614380000000  0.4705900000000 1.0
C      1  0.5701090000000  0.5072100000000  0.4508800000000 1.0
C      1  0.4302170000000  0.5466360000000  0.4810270000000 1.0
C      1  0.5227570000000  0.4668400000000  0.5907430000000 1.0
C      1  0.4765020000000  0.4093810000000  0.5231700000000 1.0
C      1  0.5253760000000  0.4371300000000  0.4275460000000 1.0
C      1  0.4745160000000  0.5318420000000  0.4091670000000 1.0
C      1  0.5257560000000  0.5951130000000  0.4825630000000 1.0
C      1  0.4744570000000  0.5628530000000  0.5733920000000 1.0
C      1  0.4744260000000  0.5467300000000  0.4644910000000 1.0
C      1  0.5255470000000  0.5541500000000  0.5225290000000 1.0
C      1  0.4733110000000  0.5066020000000  0.5578200000000 1.0
C      1  0.5285060000000  0.4548330000000  0.5359810000000 1.0
C      1  0.4742210000000  0.4470540000000  0.4797890000000 1.0
C      1  0.5258530000000  0.4926200000000  0.4424200000000 1.0
C      1  0.5234810000000  0.5686590000000  0.4712720000000 1.0
C      1  0.4765130000000  0.5595300000000  0.5448170000000 1.0
C      1  0.5217520000000  0.4894380000000  0.5732970000000 1.0
C      1  0.4821660000000  0.4361970000000  0.5343740000000 1.0
C      1  0.5236050000000  0.4409540000000  0.4560270000000 1.0
C      1  0.4766840000000  0.5090910000000  0.4267740000000 1.0
C      1  0.4979430000000  0.5200290000000  0.5200740000000 1.0
C      1  0.5013330000000  0.4931660000000  0.5266870000000 1.0
C      1  0.5009050000000  0.4736550000000  0.5070330000000 1.0
C      1  0.5024220000000  0.4809240000000  0.4801540000000 1.0
C      1  0.4985360000000  0.5078950000000  0.4733050000000 1.0
C      1  0.5015560000000  0.5274960000000  0.4932290000000 1.0
C      1  0.5121520000000  0.5947460000000  0.5083150000000 1.0
C      1  0.4877910000000  0.5400350000000  0.5855550000000 1.0
C      1  0.5131910000000  0.4435080000000  0.5769640000000 1.0
C      1  0.4879290000000  0.4073960000000  0.4963700000000 1.0
C      1  0.5117620000000  0.4596440000000  0.4150440000000 1.0
C      1  0.4880390000000  0.5541510000000  0.4221290000000 1.0
C      1  0.4568560000000  0.5005890000000  0.5007840000000 1.0
C      1  0.5433130000000  0.5005040000000  0.5001500000000 1.0
END
