TITL C-3623287-7182-830 222393.529548424 125000 -803.021668591456 0 0 132 (C1) n - 1
REM
REM in /home/nfs/bkarasulu/CARBON/AIRSS/Generating-Clusters/LCBOP/Higher-Symm/SD-CG/FIRE-CG
REM
REM
REM
REM
REM
REM ./C.cell (b20cbc046b6831c77cfcea5457e17084)
REM AIRSS Version 0.9.1 bugfix July 2018 build 013d7b7c2542+ Fri, 06 Jul 2018 19:26:36 +0100
REM compiler GCC version 9.2.1 20190827 (Red Hat 9.2.1-1)
REM options -cpp -mtune=generic -march=x86-64 -g -O0 -fpre-include=/usr/include/finclude/math-vector-fortran.h
REM seed 1687590401 982905767 -761062388 -342228820 1732658199 -1085950198 1393794925 -1153849563 -892890841 1687207350 291713576 -1283522456 -2002375579 -523712525 1659773065 2061675434 538505767 -436577272 1149762046 340644896 394037717 1376267154 1460999341 -1359003204 -274221011 1384069529 -6157413 2077758748 2100208302 -2071395454 1951600293 -266612698 941405511
REM
CELL 1.54180   50.00000   50.00000   50.00000   90.00000   90.00000   90.00000
LATT -1
SFAC C  
C      1  0.4872350000000  0.5190100000000  0.5571800000000 1.0
C      1  0.5469340000000  0.4785100000000  0.5304990000000 1.0
C      1  0.5279320000000  0.5471360000000  0.5017230000000 1.0
C      1  0.5105420000000  0.5300450000000  0.4545970000000 1.0
C      1  0.4961250000000  0.4796010000000  0.4541810000000 1.0
C      1  0.4997840000000  0.4761840000000  0.5405880000000 1.0
C      1  0.4549430000000  0.5000380000000  0.4763980000000 1.0
C      1  0.5444650000000  0.5061640000000  0.4799070000000 1.0
C      1  0.4547920000000  0.4921880000000  0.5277800000000 1.0
C      1  0.4784420000000  0.5312050000000  0.5084060000000 1.0
C      1  0.5151670000000  0.4528250000000  0.5030760000000 1.0
C      1  0.4641760000000  0.4502780000000  0.4703230000000 1.0
C      1  0.5474790000000  0.5250500000000  0.5011430000000 1.0
C      1  0.5253340000000  0.4862700000000  0.5513810000000 1.0
C      1  0.4797060000000  0.5408970000000  0.5349000000000 1.0
C      1  0.4640110000000  0.5064910000000  0.5045720000000 1.0
C      1  0.4455560000000  0.4715000000000  0.4730410000000 1.0
C      1  0.5372390000000  0.4708050000000  0.5049600000000 1.0
C      1  0.4786380000000  0.5004660000000  0.4558090000000 1.0
C      1  0.4756830000000  0.4905040000000  0.5502370000000 1.0
C      1  0.5273830000000  0.5094240000000  0.4579350000000 1.0
C      1  0.5109130000000  0.5532150000000  0.4760060000000 1.0
C      1  0.4948960000000  0.4549800000000  0.5222470000000 1.0
C      1  0.4907320000000  0.4561680000000  0.4672180000000 1.0
C      1  0.5217610000000  0.4872210000000  0.6041830000000 1.0
C      1  0.6265410000000  0.5101170000000  0.4739480000000 1.0
C      1  0.4864310000000  0.6278500000000  0.5081470000000 1.0
C      1  0.4858600000000  0.4888060000000  0.4006600000000 1.0
C      1  0.5140430000000  0.5262300000000  0.3952390000000 1.0
C      1  0.4736470000000  0.4950570000000  0.6108830000000 1.0
C      1  0.3882290000000  0.5284830000000  0.5249100000000 1.0
C      1  0.6153090000000  0.4739070000000  0.5095200000000 1.0
C      1  0.3721140000000  0.5037010000000  0.4816490000000 1.0
C      1  0.5151380000000  0.6042050000000  0.4734240000000 1.0
C      1  0.5028710000000  0.4060870000000  0.4917130000000 1.0
C      1  0.5100780000000  0.3874200000000  0.5378860000000 1.0
C      1  0.6265070000000  0.4912920000000  0.4927610000000 1.0
C      1  0.4836960000000  0.5220700000000  0.6097050000000 1.0
C      1  0.5036830000000  0.6226680000000  0.4885780000000 1.0
C      1  0.3806720000000  0.4890140000000  0.4609120000000 1.0
C      1  0.3750550000000  0.5163720000000  0.5050040000000 1.0
C      1  0.6153510000000  0.5280060000000  0.4576860000000 1.0
C      1  0.4905110000000  0.5162060000000  0.4063190000000 1.0
C      1  0.4954450000000  0.4755790000000  0.6084460000000 1.0
C      1  0.5107040000000  0.4770240000000  0.4070120000000 1.0
C      1  0.4691710000000  0.6146440000000  0.5235520000000 1.0
C      1  0.4995060000000  0.3886130000000  0.5118620000000 1.0
C      1  0.5388060000000  0.3853930000000  0.5395780000000 1.0
C      1  0.5597910000000  0.5787800000000  0.5163650000000 1.0
C      1  0.5207250000000  0.5502180000000  0.5689900000000 1.0
C      1  0.5710340000000  0.5224660000000  0.5467990000000 1.0
C      1  0.4568270000000  0.5631300000000  0.4824450000000 1.0
C      1  0.5464690000000  0.4253200000000  0.4839140000000 1.0
C      1  0.4485250000000  0.4320680000000  0.5193110000000 1.0
C      1  0.4746920000000  0.5545610000000  0.4303710000000 1.0
C      1  0.5295330000000  0.4478630000000  0.4371830000000 1.0
C      1  0.4770280000000  0.4445880000000  0.5761340000000 1.0
C      1  0.4276210000000  0.5254730000000  0.4436570000000 1.0
C      1  0.5693900000000  0.4780620000000  0.4504440000000 1.0
C      1  0.4194930000000  0.4813790000000  0.5601290000000 1.0
C      1  0.5244930000000  0.5686430000000  0.5484810000000 1.0
C      1  0.5801080000000  0.5578760000000  0.5147910000000 1.0
C      1  0.5534920000000  0.5179080000000  0.5676870000000 1.0
C      1  0.4912500000000  0.5755100000000  0.4272110000000 1.0
C      1  0.4807930000000  0.4252130000000  0.5556940000000 1.0
C      1  0.5142200000000  0.4266310000000  0.4457190000000 1.0
C      1  0.4343380000000  0.5450470000000  0.4870190000000 1.0
C      1  0.4268530000000  0.4522190000000  0.5205350000000 1.0
C      1  0.5674310000000  0.4438350000000  0.4823110000000 1.0
C      1  0.4446630000000  0.5149700000000  0.4245890000000 1.0
C      1  0.4389770000000  0.4768240000000  0.5803380000000 1.0
C      1  0.5533470000000  0.4888950000000  0.4287800000000 1.0
C      1  0.5044540000000  0.4096280000000  0.5560320000000 1.0
C      1  0.5583300000000  0.5143830000000  0.4159190000000 1.0
C      1  0.4251010000000  0.5547030000000  0.5132510000000 1.0
C      1  0.4898640000000  0.4160470000000  0.4355970000000 1.0
C      1  0.5186350000000  0.5798490000000  0.4327140000000 1.0
C      1  0.4885080000000  0.5787520000000  0.5630740000000 1.0
C      1  0.4469080000000  0.4989910000000  0.5969770000000 1.0
C      1  0.5625450000000  0.4920870000000  0.5791260000000 1.0
C      1  0.4395680000000  0.4885270000000  0.4156210000000 1.0
C      1  0.5950430000000  0.5604460000000  0.4909390000000 1.0
C      1  0.4134840000000  0.4474420000000  0.4960970000000 1.0
C      1  0.5813020000000  0.4387520000000  0.5076650000000 1.0
C      1  0.5637600000000  0.4214420000000  0.5205070000000 1.0
C      1  0.4058440000000  0.5056160000000  0.5642480000000 1.0
C      1  0.5381380000000  0.5787240000000  0.4125940000000 1.0
C      1  0.4417100000000  0.4186100000000  0.4953740000000 1.0
C      1  0.4381670000000  0.5790230000000  0.5141410000000 1.0
C      1  0.5599200000000  0.5944760000000  0.4924680000000 1.0
C      1  0.5797650000000  0.5291080000000  0.4266010000000 1.0
C      1  0.5826580000000  0.4863920000000  0.5605290000000 1.0
C      1  0.4162700000000  0.4763540000000  0.4272420000000 1.0
C      1  0.4952510000000  0.5588400000000  0.5813190000000 1.0
C      1  0.4787620000000  0.4262300000000  0.4116110000000 1.0
C      1  0.4986130000000  0.4500100000000  0.5937100000000 1.0
C      1  0.5411400000000  0.5309510000000  0.3998520000000 1.0
C      1  0.4128740000000  0.5401110000000  0.5341890000000 1.0
C      1  0.5298280000000  0.4248440000000  0.5619910000000 1.0
C      1  0.4454770000000  0.5266070000000  0.5812320000000 1.0
C      1  0.5367990000000  0.4758170000000  0.5797660000000 1.0
C      1  0.4614130000000  0.4745840000000  0.4034000000000 1.0
C      1  0.5810810000000  0.5611120000000  0.4653150000000 1.0
C      1  0.4184850000000  0.4632870000000  0.4737190000000 1.0
C      1  0.5927750000000  0.4611090000000  0.5199330000000 1.0
C      1  0.4700140000000  0.4064670000000  0.4540100000000 1.0
C      1  0.5259290000000  0.5780770000000  0.4619490000000 1.0
C      1  0.4749530000000  0.5693700000000  0.5409890000000 1.0
C      1  0.4224480000000  0.5296750000000  0.5609180000000 1.0
C      1  0.5481570000000  0.5584060000000  0.3981120000000 1.0
C      1  0.5500210000000  0.4121350000000  0.5431740000000 1.0
C      1  0.5923260000000  0.5414100000000  0.4479730000000 1.0
C      1  0.5749180000000  0.4744160000000  0.5371680000000 1.0
C      1  0.4027860000000  0.4737740000000  0.4524440000000 1.0
C      1  0.4764600000000  0.5350350000000  0.5832740000000 1.0
C      1  0.4639070000000  0.4465370000000  0.4022030000000 1.0
C      1  0.5258490000000  0.4466490000000  0.5805200000000 1.0
C      1  0.4561060000000  0.4230450000000  0.4721570000000 1.0
C      1  0.4597570000000  0.5886530000000  0.5272890000000 1.0
C      1  0.5570330000000  0.5783950000000  0.4676670000000 1.0
C      1  0.4634160000000  0.4683670000000  0.5689800000000 1.0
C      1  0.4819300000000  0.5516410000000  0.4877200000000 1.0
C      1  0.5583740000000  0.4734490000000  0.4786620000000 1.0
C      1  0.4744090000000  0.4358980000000  0.5298850000000 1.0
C      1  0.5244210000000  0.4788600000000  0.4338080000000 1.0
C      1  0.4341930000000  0.5221450000000  0.4708610000000 1.0
C      1  0.5340190000000  0.5674190000000  0.5223540000000 1.0
C      1  0.5159850000000  0.4307930000000  0.4815820000000 1.0
C      1  0.4305990000000  0.4767320000000  0.5337020000000 1.0
C      1  0.4789660000000  0.5257580000000  0.4317450000000 1.0
C      1  0.5208520000000  0.5201770000000  0.5612880000000 1.0
C      1  0.5693670000000  0.5314650000000  0.5202360000000 1.0
END
