TITL C-3623289-7120-1248 -1.73633768501456e-05 125000 -283.014515118631 0 0 47 (C1) n - 1
REM
REM in /home/nfs/bkarasulu/CARBON/AIRSS/Generating-Clusters/LCBOP/Higher-Symm/SD-CG/FIRE-CG
REM
REM
REM
REM
REM
REM ./C.cell (b20cbc046b6831c77cfcea5457e17084)
REM AIRSS Version 0.9.1 bugfix July 2018 build 013d7b7c2542+ Fri, 06 Jul 2018 19:26:36 +0100
REM compiler GCC version 9.2.1 20190827 (Red Hat 9.2.1-1)
REM options -cpp -mtune=generic -march=x86-64 -g -O0 -fpre-include=/usr/include/finclude/math-vector-fortran.h
REM seed -1463651809 -65354125 -1249948372 -2018275041 966449117 474795999 1029600429 1075739947 1053759448 1929431657 -1360838519 301361226 2005644524 947469648 -833445260 -1574690506 808576366 914503423 -1105503068 1462374417 -2114872199 -1520260632 -389840737 -782565994 2126739268 961154574 454431151 -732570443 -642981411 -855191551 -1284221278 256908356 -1385212272
REM
CELL 1.54180   50.00000   50.00000   50.00000   90.00000   90.00000   90.00000
LATT -1
SFAC C  
C      1  0.4798170000000  0.4132780000000  0.4685740000000 1.0
C      1  0.4626720000000  0.5823190000000  0.4865600000000 1.0
C      1  0.5581900000000  0.5365900000000  0.4890260000000 1.0
C      1  0.4508190000000  0.4123850000000  0.5195590000000 1.0
C      1  0.5177330000000  0.5807290000000  0.5094200000000 1.0
C      1  0.5880470000000  0.5018530000000  0.5246900000000 1.0
C      1  0.4566230000000  0.4812110000000  0.4831170000000 1.0
C      1  0.4757230000000  0.4957110000000  0.4995500000000 1.0
C      1  0.5035490000000  0.4875610000000  0.4975130000000 1.0
C      1  0.4188650000000  0.5065090000000  0.5013390000000 1.0
C      1  0.4360240000000  0.5200690000000  0.5175480000000 1.0
C      1  0.5354120000000  0.4562000000000  0.5181680000000 1.0
C      1  0.4726580000000  0.4537940000000  0.5313860000000 1.0
C      1  0.4994470000000  0.5412520000000  0.5302790000000 1.0
C      1  0.5466440000000  0.4773990000000  0.5332750000000 1.0
C      1  0.4686700000000  0.4610190000000  0.4676760000000 1.0
C      1  0.4785230000000  0.5420750000000  0.4652500000000 1.0
C      1  0.5243990000000  0.5020970000000  0.4839690000000 1.0
C      1  0.5042240000000  0.6281780000000  0.5025220000000 1.0
C      1  0.6172340000000  0.5405240000000  0.5127230000000 1.0
C      1  0.4516280000000  0.3661290000000  0.5007400000000 1.0
C      1  0.4786300000000  0.6288990000000  0.4941940000000 1.0
C      1  0.6031410000000  0.5569660000000  0.4967140000000 1.0
C      1  0.4661120000000  0.3662860000000  0.4780410000000 1.0
C      1  0.4615780000000  0.6090270000000  0.4881270000000 1.0
C      1  0.5780780000000  0.5543560000000  0.4874000000000 1.0
C      1  0.4779490000000  0.3868020000000  0.4653500000000 1.0
C      1  0.5202250000000  0.6073620000000  0.5082770000000 1.0
C      1  0.6098830000000  0.5172370000000  0.5239290000000 1.0
C      1  0.4454710000000  0.3862810000000  0.5174050000000 1.0
C      1  0.4652180000000  0.4351500000000  0.5109400000000 1.0
C      1  0.4995140000000  0.5591320000000  0.5084040000000 1.0
C      1  0.5611150000000  0.4970430000000  0.5184370000000 1.0
C      1  0.4717870000000  0.4365210000000  0.4822000000000 1.0
C      1  0.4798000000000  0.5598260000000  0.4871460000000 1.0
C      1  0.5476180000000  0.5118610000000  0.4973580000000 1.0
C      1  0.4806090000000  0.5219830000000  0.4475050000000 1.0
C      1  0.5215860000000  0.5006010000000  0.4558120000000 1.0
C      1  0.4832580000000  0.4722130000000  0.4458070000000 1.0
C      1  0.4989060000000  0.5203620000000  0.5471230000000 1.0
C      1  0.5304100000000  0.4852940000000  0.5550790000000 1.0
C      1  0.4839540000000  0.4725200000000  0.5473520000000 1.0
C      1  0.4291530000000  0.4877340000000  0.4845550000000 1.0
C      1  0.5128570000000  0.4613990000000  0.5041220000000 1.0
C      1  0.4626220000000  0.5146000000000  0.5162390000000 1.0
C      1  0.4956320000000  0.4981110000000  0.4443190000000 1.0
C      1  0.5030770000000  0.4930070000000  0.5531900000000 1.0
END
