TITL C-3623288-6813-1173 -7.1792106134231e-07 125000 -1023.15884424237 0 0 167 (C1) n - 1
REM
REM in /home/nfs/bkarasulu/CARBON/AIRSS/Generating-Clusters/LCBOP/Higher-Symm/SD-CG/FIRE-CG
REM
REM
REM
REM
REM
REM ./C.cell (b20cbc046b6831c77cfcea5457e17084)
REM AIRSS Version 0.9.1 bugfix July 2018 build 013d7b7c2542+ Fri, 06 Jul 2018 19:26:36 +0100
REM compiler GCC version 9.2.1 20190827 (Red Hat 9.2.1-1)
REM options -cpp -mtune=generic -march=x86-64 -g -O0 -fpre-include=/usr/include/finclude/math-vector-fortran.h
REM seed -1107735324 -1108439592 -1184525675 1120068090 -1087462655 1096120753 1820109987 1282130204 110494916 -1724677612 1263921734 -169205838 1192491500 607416281 559320354 -1752313177 1404814740 663306003 -821778033 -2001162261 -1350922394 1523546761 605893325 595333323 -1416270247 1924932772 163720674 -716125109 -878765580 1946400146 1259574046 -249842975 -1524016238
REM
CELL 1.54180   50.00000   50.00000   50.00000   90.00000   90.00000   90.00000
LATT -1
SFAC C  
C      1  0.6091420000000  0.4254690000000  0.5035340000000 1.0
C      1  0.5018090000000  0.6080310000000  0.4410420000000 1.0
C      1  0.4347290000000  0.5037090000000  0.6077870000000 1.0
C      1  0.6103360000000  0.5608660000000  0.4946820000000 1.0
C      1  0.3861030000000  0.5655880000000  0.5058110000000 1.0
C      1  0.3862600000000  0.4283690000000  0.4953070000000 1.0
C      1  0.5028560000000  0.3873390000000  0.5541270000000 1.0
C      1  0.4973360000000  0.3901910000000  0.4465490000000 1.0
C      1  0.4942720000000  0.6103550000000  0.5620850000000 1.0
C      1  0.4308450000000  0.4890490000000  0.3893020000000 1.0
C      1  0.5672740000000  0.4876000000000  0.6126290000000 1.0
C      1  0.5633320000000  0.5056640000000  0.3873920000000 1.0
C      1  0.5677080000000  0.4883970000000  0.4101160000000 1.0
C      1  0.4100330000000  0.5685860000000  0.4896610000000 1.0
C      1  0.4894490000000  0.4104310000000  0.5640800000000 1.0
C      1  0.5693020000000  0.5051020000000  0.5896640000000 1.0
C      1  0.4268080000000  0.5056680000000  0.4127730000000 1.0
C      1  0.4320600000000  0.4890720000000  0.5830730000000 1.0
C      1  0.4108780000000  0.4255970000000  0.5103560000000 1.0
C      1  0.5848320000000  0.4226190000000  0.4884650000000 1.0
C      1  0.5871360000000  0.5656940000000  0.5112900000000 1.0
C      1  0.4867900000000  0.5851990000000  0.4321180000000 1.0
C      1  0.5094180000000  0.5866110000000  0.5678470000000 1.0
C      1  0.5102660000000  0.4119460000000  0.4339390000000 1.0
C      1  0.5698900000000  0.5205370000000  0.5010670000000 1.0
C      1  0.4955040000000  0.5575990000000  0.5215580000000 1.0
C      1  0.5251680000000  0.4904290000000  0.5752120000000 1.0
C      1  0.5651260000000  0.4803000000000  0.5192310000000 1.0
C      1  0.4390780000000  0.4810570000000  0.4846740000000 1.0
C      1  0.4333370000000  0.5179060000000  0.5137510000000 1.0
C      1  0.5012190000000  0.4976990000000  0.4859700000000 1.0
C      1  0.5013110000000  0.4690200000000  0.5225720000000 1.0
C      1  0.5189640000000  0.5427970000000  0.4828840000000 1.0
C      1  0.5201450000000  0.5005240000000  0.4209940000000 1.0
C      1  0.4911350000000  0.5187830000000  0.5678750000000 1.0
C      1  0.4785170000000  0.4803400000000  0.4191930000000 1.0
C      1  0.5464860000000  0.4093100000000  0.5550580000000 1.0
C      1  0.5553300000000  0.5462280000000  0.4140240000000 1.0
C      1  0.4125590000000  0.5574230000000  0.5464160000000 1.0
C      1  0.5441760000000  0.5828090000000  0.4460590000000 1.0
C      1  0.4523730000000  0.5854640000000  0.5557300000000 1.0
C      1  0.4540290000000  0.4132160000000  0.4472400000000 1.0
C      1  0.5588570000000  0.4464100000000  0.5861660000000 1.0
C      1  0.4398090000000  0.4475550000000  0.4143620000000 1.0
C      1  0.4419470000000  0.5462190000000  0.5844910000000 1.0
C      1  0.4111850000000  0.4374330000000  0.4536880000000 1.0
C      1  0.5862100000000  0.4378600000000  0.5454420000000 1.0
C      1  0.5846090000000  0.5546440000000  0.4531740000000 1.0
C      1  0.5334540000000  0.4551970000000  0.3938550000000 1.0
C      1  0.3983660000000  0.5280370000000  0.4641700000000 1.0
C      1  0.4662280000000  0.4096040000000  0.5230730000000 1.0
C      1  0.5334160000000  0.5400490000000  0.6032990000000 1.0
C      1  0.4634620000000  0.5361770000000  0.4000430000000 1.0
C      1  0.4703910000000  0.4616610000000  0.5947300000000 1.0
C      1  0.4025820000000  0.4673220000000  0.5318460000000 1.0
C      1  0.5957440000000  0.4640160000000  0.4621240000000 1.0
C      1  0.6028320000000  0.5326020000000  0.5445860000000 1.0
C      1  0.4631450000000  0.5888190000000  0.4719750000000 1.0
C      1  0.5364850000000  0.5970490000000  0.5301320000000 1.0
C      1  0.5307510000000  0.4293940000000  0.4726100000000 1.0
C      1  0.6097270000000  0.4348910000000  0.5294280000000 1.0
C      1  0.5280470000000  0.6062130000000  0.4485260000000 1.0
C      1  0.4406100000000  0.5304890000000  0.6082550000000 1.0
C      1  0.6088200000000  0.5543060000000  0.4681700000000 1.0
C      1  0.3876600000000  0.5593930000000  0.5325500000000 1.0
C      1  0.3868060000000  0.4344140000000  0.4684170000000 1.0
C      1  0.5296500000000  0.3870960000000  0.5500550000000 1.0
C      1  0.4710220000000  0.3912250000000  0.4526720000000 1.0
C      1  0.4678960000000  0.6093150000000  0.5550720000000 1.0
C      1  0.4382960000000  0.4626320000000  0.3900400000000 1.0
C      1  0.5608700000000  0.4608900000000  0.6108560000000 1.0
C      1  0.5558360000000  0.5319360000000  0.3893530000000 1.0
C      1  0.4924570000000  0.5681190000000  0.5830770000000 1.0
C      1  0.5837520000000  0.4890000000000  0.5693020000000 1.0
C      1  0.5679270000000  0.5797550000000  0.4942050000000 1.0
C      1  0.4921550000000  0.4275810000000  0.4165350000000 1.0
C      1  0.5068670000000  0.4261910000000  0.5816140000000 1.0
C      1  0.5045830000000  0.5662020000000  0.4184170000000 1.0
C      1  0.5806650000000  0.5045910000000  0.4310610000000 1.0
C      1  0.4177570000000  0.5059610000000  0.5639990000000 1.0
C      1  0.4123530000000  0.4881980000000  0.4320550000000 1.0
C      1  0.5631550000000  0.4148650000000  0.5064620000000 1.0
C      1  0.4298680000000  0.4121370000000  0.4929560000000 1.0
C      1  0.4291220000000  0.5834600000000  0.5066370000000 1.0
C      1  0.5194020000000  0.4809860000000  0.4732090000000 1.0
C      1  0.4839130000000  0.4935460000000  0.3934340000000 1.0
C      1  0.4120890000000  0.4737250000000  0.4837990000000 1.0
C      1  0.4938310000000  0.5837960000000  0.5105640000000 1.0
C      1  0.5029430000000  0.5622290000000  0.4710960000000 1.0
C      1  0.4866710000000  0.4508970000000  0.5079000000000 1.0
C      1  0.4831570000000  0.5097600000000  0.5930520000000 1.0
C      1  0.5128280000000  0.4983640000000  0.3921780000000 1.0
C      1  0.5246720000000  0.4936520000000  0.6033000000000 1.0
C      1  0.4056130000000  0.5198720000000  0.5111110000000 1.0
C      1  0.5968550000000  0.5105210000000  0.5039050000000 1.0
C      1  0.5918520000000  0.4824280000000  0.5078110000000 1.0
C      1  0.4007140000000  0.4896120000000  0.5487490000000 1.0
C      1  0.5385420000000  0.4122040000000  0.4932020000000 1.0
C      1  0.4873160000000  0.5506670000000  0.4027930000000 1.0
C      1  0.3963300000000  0.5059160000000  0.4470560000000 1.0
C      1  0.6019390000000  0.5084080000000  0.5595490000000 1.0
C      1  0.5960430000000  0.4879150000000  0.4474770000000 1.0
C      1  0.5551710000000  0.5992070000000  0.5096090000000 1.0
C      1  0.4451720000000  0.5996860000000  0.4903240000000 1.0
C      1  0.4473030000000  0.3959640000000  0.5078360000000 1.0
C      1  0.4907470000000  0.4425810000000  0.5977310000000 1.0
C      1  0.5101360000000  0.4389570000000  0.3973590000000 1.0
C      1  0.5099720000000  0.5556170000000  0.6013510000000 1.0
C      1  0.4771750000000  0.4868760000000  0.6055040000000 1.0
C      1  0.6045100000000  0.4670910000000  0.4886080000000 1.0
C      1  0.4879080000000  0.5822340000000  0.4833680000000 1.0
C      1  0.4675840000000  0.5137450000000  0.3832190000000 1.0
C      1  0.5289310000000  0.5160380000000  0.6178630000000 1.0
C      1  0.5274180000000  0.4784940000000  0.3782710000000 1.0
C      1  0.6149360000000  0.5243030000000  0.5199180000000 1.0
C      1  0.3889430000000  0.5222270000000  0.4902450000000 1.0
C      1  0.3951180000000  0.4721400000000  0.5048030000000 1.0
C      1  0.4835130000000  0.4246630000000  0.5071530000000 1.0
C      1  0.5282080000000  0.4565200000000  0.4771440000000 1.0
C      1  0.5105280000000  0.6034910000000  0.5207110000000 1.0
C      1  0.4565610000000  0.4897190000000  0.4646260000000 1.0
C      1  0.4778450000000  0.5057590000000  0.4736010000000 1.0
C      1  0.4586650000000  0.4818970000000  0.4382720000000 1.0
C      1  0.4507540000000  0.5393270000000  0.5112540000000 1.0
C      1  0.5598040000000  0.5225550000000  0.4756240000000 1.0
C      1  0.5477490000000  0.4593830000000  0.5237940000000 1.0
C      1  0.4720930000000  0.5441810000000  0.5279920000000 1.0
C      1  0.5349260000000  0.5279860000000  0.4654050000000 1.0
C      1  0.5231820000000  0.4591990000000  0.5368860000000 1.0
C      1  0.4727730000000  0.5283770000000  0.5503450000000 1.0
C      1  0.5273950000000  0.5190580000000  0.4401070000000 1.0
C      1  0.5234070000000  0.4656580000000  0.5635920000000 1.0
C      1  0.4188160000000  0.4575330000000  0.4337750000000 1.0
C      1  0.4323870000000  0.4201740000000  0.4646840000000 1.0
C      1  0.4621030000000  0.4298970000000  0.4240070000000 1.0
C      1  0.4223360000000  0.5362910000000  0.5641590000000 1.0
C      1  0.5758300000000  0.5352090000000  0.4329200000000 1.0
C      1  0.5783100000000  0.4579550000000  0.5659270000000 1.0
C      1  0.4319650000000  0.5775330000000  0.5362710000000 1.0
C      1  0.5649450000000  0.5739990000000  0.4646520000000 1.0
C      1  0.5654570000000  0.4188550000000  0.5358400000000 1.0
C      1  0.4621760000000  0.5663440000000  0.5767010000000 1.0
C      1  0.5346470000000  0.5648700000000  0.4240890000000 1.0
C      1  0.5376580000000  0.4267180000000  0.5773370000000 1.0
C      1  0.5555560000000  0.4600270000000  0.4135310000000 1.0
C      1  0.4157920000000  0.5521490000000  0.4639450000000 1.0
C      1  0.4645590000000  0.4196570000000  0.5504330000000 1.0
C      1  0.5554070000000  0.5367180000000  0.5834780000000 1.0
C      1  0.4409270000000  0.5327390000000  0.4190140000000 1.0
C      1  0.4467080000000  0.4629410000000  0.5770880000000 1.0
C      1  0.4188260000000  0.4427300000000  0.5345390000000 1.0
C      1  0.5798420000000  0.4403340000000  0.4582580000000 1.0
C      1  0.5826790000000  0.5541110000000  0.5397020000000 1.0
C      1  0.4603170000000  0.5767310000000  0.4453140000000 1.0
C      1  0.5363180000000  0.5800820000000  0.5545830000000 1.0
C      1  0.5341780000000  0.4239040000000  0.4446870000000 1.0
C      1  0.5168150000000  0.5117050000000  0.5575640000000 1.0
C      1  0.5042910000000  0.4790700000000  0.4313130000000 1.0
C      1  0.5166020000000  0.5407540000000  0.5118050000000 1.0
C      1  0.5525180000000  0.5068000000000  0.5197220000000 1.0
C      1  0.5040040000000  0.4955840000000  0.5138730000000 1.0
C      1  0.4448640000000  0.4926640000000  0.5098130000000 1.0
C      1  0.4427640000000  0.4413500000000  0.5549750000000 1.0
C      1  0.5584570000000  0.4397250000000  0.4364840000000 1.0
C      1  0.4385410000000  0.5542610000000  0.4421980000000 1.0
C      1  0.5584050000000  0.5573920000000  0.5594760000000 1.0
C      1  0.5239280000000  0.5148190000000  0.5270890000000 1.0
END
