TITL C-3623282-6910-313 8.56284176941108e-08 125000 -27.3508253417065 0 0 9 (Cs) n - 1
REM
REM in /home/nfs/bkarasulu/CARBON/AIRSS/Generating-Clusters/LCBOP/Higher-Symm/SD-CG/FIRE-CG
REM
REM
REM
REM
REM
REM ./C.cell (b20cbc046b6831c77cfcea5457e17084)
REM AIRSS Version 0.9.1 bugfix July 2018 build 013d7b7c2542+ Fri, 06 Jul 2018 19:26:36 +0100
REM compiler GCC version 9.2.1 20190827 (Red Hat 9.2.1-1)
REM options -cpp -mtune=generic -march=x86-64 -g -O0 -fpre-include=/usr/include/finclude/math-vector-fortran.h
REM seed 735489492 301128159 1563011847 1543503613 -1781648026 1167513493 926843294 202355235 -327019061 140695631 324329536 -181158129 229849648 -230796443 156702325 -964806500 1578999240 -2024303390 1352511099 638316827 1495045396 89630746 -1917307425 -2006522248 -1011956101 -311535136 -1766769367 -205631368 1419958303 350361522 1620386350 1696057593 787445313
REM
CELL 1.54180   50.00000   50.00000   50.00000   90.00000   90.00000   90.00000
LATT -1
SFAC C  
C      1  0.5452290000000  0.5298150000000  0.5266700000000 1.0
C      1  0.4542610000000  0.4752960000000  0.4737580000000 1.0
C      1  0.4968860000000  0.4807330000000  0.5270660000000 1.0
C      1  0.5016910000000  0.5222280000000  0.4736910000000 1.0
C      1  0.4736990000000  0.4870520000000  0.4850620000000 1.0
C      1  0.5256220000000  0.5170230000000  0.5152930000000 1.0
C      1  0.5215200000000  0.4796740000000  0.4858050000000 1.0
C      1  0.4777760000000  0.5232560000000  0.5137470000000 1.0
C      1  0.5013740000000  0.5008300000000  0.5012320000000 1.0
END
