TITL C-3623289-7120-714 -8.17546456022844 125000 -901.659002503643 0 0 149 (C1) n - 1
REM
REM in /home/nfs/bkarasulu/CARBON/AIRSS/Generating-Clusters/LCBOP/Higher-Symm/SD-CG/FIRE-CG
REM
REM
REM
REM
REM
REM ./C.cell (b20cbc046b6831c77cfcea5457e17084)
REM AIRSS Version 0.9.1 bugfix July 2018 build 013d7b7c2542+ Fri, 06 Jul 2018 19:26:36 +0100
REM compiler GCC version 9.2.1 20190827 (Red Hat 9.2.1-1)
REM options -cpp -mtune=generic -march=x86-64 -g -O0 -fpre-include=/usr/include/finclude/math-vector-fortran.h
REM seed -1584785463 1202088539 -1804686741 -236874242 -1827200623 199556329 -684445775 -1097199083 1432788955 2096197730 -1135444978 1338005451 1551915136 -853594366 224729667 -1732441712 -1889025100 60498071 944914570 -9632183 -565595858 -1633014895 -1406397363 1142042422 1279950605 330760040 -580958847 -1925009692 -428198281 -1895585564 -2106162800 985998230 -1931899269
REM
CELL 1.54180   50.00000   50.00000   50.00000   90.00000   90.00000   90.00000
LATT -1
SFAC C  
C      1  0.4026010000000  0.4418360000000  0.4166890000000 1.0
C      1  0.4205050000000  0.5559850000000  0.4347860000000 1.0
C      1  0.6046850000000  0.5343820000000  0.4594700000000 1.0
C      1  0.6029530000000  0.4672980000000  0.4587670000000 1.0
C      1  0.4031070000000  0.4160400000000  0.4575100000000 1.0
C      1  0.3935560000000  0.5784230000000  0.4659150000000 1.0
C      1  0.5256540000000  0.5315220000000  0.5187700000000 1.0
C      1  0.5220200000000  0.4710440000000  0.5152870000000 1.0
C      1  0.5689050000000  0.5658610000000  0.5995960000000 1.0
C      1  0.5663260000000  0.4318940000000  0.5961570000000 1.0
C      1  0.4424450000000  0.4665510000000  0.5042150000000 1.0
C      1  0.4497170000000  0.5302330000000  0.4978980000000 1.0
C      1  0.5599470000000  0.4355730000000  0.4669340000000 1.0
C      1  0.5623300000000  0.5669800000000  0.4699580000000 1.0
C      1  0.4972130000000  0.4703040000000  0.4018460000000 1.0
C      1  0.4995610000000  0.5330600000000  0.4059290000000 1.0
C      1  0.5806530000000  0.5435340000000  0.4720150000000 1.0
C      1  0.5780590000000  0.4589780000000  0.4699760000000 1.0
C      1  0.6205800000000  0.4348670000000  0.4909000000000 1.0
C      1  0.6241380000000  0.5657170000000  0.4915120000000 1.0
C      1  0.4105900000000  0.5085690000000  0.4635430000000 1.0
C      1  0.4051790000000  0.4803370000000  0.4723960000000 1.0
C      1  0.5052780000000  0.5379630000000  0.5788150000000 1.0
C      1  0.5016890000000  0.4603620000000  0.5799120000000 1.0
C      1  0.3785440000000  0.4938010000000  0.5235110000000 1.0
C      1  0.3818570000000  0.5199260000000  0.5178670000000 1.0
C      1  0.4158900000000  0.5923030000000  0.4768570000000 1.0
C      1  0.4243120000000  0.4071850000000  0.4737060000000 1.0
C      1  0.5508560000000  0.4324750000000  0.4971250000000 1.0
C      1  0.5545740000000  0.5698260000000  0.5004070000000 1.0
C      1  0.5003240000000  0.5424210000000  0.5215870000000 1.0
C      1  0.4971910000000  0.4594100000000  0.5193910000000 1.0
C      1  0.3878090000000  0.5290210000000  0.4569910000000 1.0
C      1  0.3896250000000  0.4621630000000  0.4576480000000 1.0
C      1  0.4685650000000  0.6393990000000  0.4620500000000 1.0
C      1  0.4734040000000  0.3545160000000  0.4786100000000 1.0
C      1  0.4357840000000  0.5153290000000  0.5453210000000 1.0
C      1  0.4365450000000  0.4865790000000  0.5490770000000 1.0
C      1  0.4391300000000  0.5943460000000  0.4596760000000 1.0
C      1  0.4488630000000  0.3993590000000  0.4610520000000 1.0
C      1  0.5338210000000  0.4029140000000  0.5316310000000 1.0
C      1  0.5380490000000  0.5981910000000  0.5361260000000 1.0
C      1  0.3747980000000  0.5148610000000  0.5835720000000 1.0
C      1  0.3748360000000  0.4877400000000  0.5844750000000 1.0
C      1  0.4151770000000  0.5977580000000  0.5043380000000 1.0
C      1  0.4204270000000  0.4077630000000  0.5017000000000 1.0
C      1  0.5172810000000  0.4308710000000  0.4373780000000 1.0
C      1  0.5177350000000  0.5720530000000  0.4423440000000 1.0
C      1  0.5459670000000  0.4371810000000  0.4415210000000 1.0
C      1  0.5461170000000  0.5643960000000  0.4460000000000 1.0
C      1  0.5423400000000  0.4859830000000  0.5888920000000 1.0
C      1  0.5471260000000  0.5127690000000  0.5902250000000 1.0
C      1  0.5530090000000  0.5220060000000  0.5636000000000 1.0
C      1  0.5453200000000  0.4778510000000  0.5613410000000 1.0
C      1  0.4436860000000  0.5736780000000  0.4403560000000 1.0
C      1  0.4609630000000  0.4138460000000  0.4398640000000 1.0
C      1  0.6241080000000  0.4529930000000  0.4708620000000 1.0
C      1  0.6267200000000  0.5478280000000  0.4710600000000 1.0
C      1  0.5812560000000  0.4569040000000  0.6041150000000 1.0
C      1  0.5835940000000  0.5404430000000  0.6067530000000 1.0
C      1  0.5499680000000  0.5494230000000  0.5576510000000 1.0
C      1  0.5444200000000  0.4503210000000  0.5557590000000 1.0
C      1  0.3933370000000  0.5334070000000  0.5728750000000 1.0
C      1  0.3947850000000  0.4698860000000  0.5752770000000 1.0
C      1  0.5061540000000  0.4184970000000  0.4608160000000 1.0
C      1  0.5081540000000  0.5870130000000  0.4648560000000 1.0
C      1  0.6052700000000  0.5756400000000  0.5082130000000 1.0
C      1  0.6009800000000  0.4253030000000  0.5069010000000 1.0
C      1  0.5757840000000  0.5562140000000  0.5439820000000 1.0
C      1  0.5705090000000  0.4444490000000  0.5421380000000 1.0
C      1  0.5037370000000  0.4230990000000  0.4887820000000 1.0
C      1  0.5076190000000  0.5804740000000  0.4926140000000 1.0
C      1  0.4932480000000  0.4860790000000  0.5827070000000 1.0
C      1  0.4948340000000  0.5131170000000  0.5821460000000 1.0
C      1  0.4885460000000  0.5148940000000  0.4714200000000 1.0
C      1  0.4748920000000  0.4892380000000  0.4755120000000 1.0
C      1  0.5887370000000  0.4865960000000  0.5069530000000 1.0
C      1  0.5907440000000  0.5128750000000  0.5072990000000 1.0
C      1  0.5541840000000  0.4606160000000  0.4270980000000 1.0
C      1  0.5531550000000  0.5402010000000  0.4325380000000 1.0
C      1  0.4976170000000  0.5590600000000  0.4237540000000 1.0
C      1  0.4972670000000  0.4422050000000  0.4166430000000 1.0
C      1  0.5276970000000  0.5558270000000  0.5768010000000 1.0
C      1  0.5238700000000  0.4423550000000  0.5760870000000 1.0
C      1  0.4846190000000  0.4879040000000  0.4225700000000 1.0
C      1  0.4771780000000  0.5149680000000  0.4134740000000 1.0
C      1  0.5399070000000  0.5635010000000  0.6017010000000 1.0
C      1  0.5374820000000  0.4338360000000  0.5998400000000 1.0
C      1  0.3949800000000  0.5805030000000  0.5496890000000 1.0
C      1  0.3991090000000  0.4251130000000  0.5472870000000 1.0
C      1  0.3962880000000  0.5556530000000  0.4497480000000 1.0
C      1  0.3940330000000  0.4383630000000  0.4432980000000 1.0
C      1  0.4306080000000  0.5310840000000  0.4254230000000 1.0
C      1  0.4251550000000  0.4574290000000  0.4099810000000 1.0
C      1  0.4226990000000  0.5063520000000  0.4358800000000 1.0
C      1  0.4248670000000  0.4837720000000  0.4195500000000 1.0
C      1  0.5319410000000  0.5221840000000  0.4335510000000 1.0
C      1  0.5324640000000  0.4777060000000  0.4266770000000 1.0
C      1  0.4679680000000  0.5605220000000  0.4291370000000 1.0
C      1  0.4698730000000  0.4314380000000  0.4194320000000 1.0
C      1  0.5870390000000  0.4842470000000  0.6088990000000 1.0
C      1  0.5882070000000  0.5125880000000  0.6099550000000 1.0
C      1  0.4019610000000  0.5326060000000  0.5052030000000 1.0
C      1  0.3946470000000  0.4730350000000  0.5173650000000 1.0
C      1  0.3917740000000  0.4437250000000  0.5651950000000 1.0
C      1  0.3884850000000  0.5600470000000  0.5656040000000 1.0
C      1  0.5081990000000  0.4858920000000  0.4429190000000 1.0
C      1  0.5127340000000  0.5121390000000  0.4544470000000 1.0
C      1  0.5984540000000  0.5155000000000  0.4382280000000 1.0
C      1  0.5984800000000  0.4863360000000  0.4374060000000 1.0
C      1  0.5706760000000  0.5882260000000  0.5793780000000 1.0
C      1  0.5672690000000  0.4105810000000  0.5747360000000 1.0
C      1  0.4770800000000  0.4641000000000  0.5379200000000 1.0
C      1  0.4786190000000  0.5340140000000  0.5366720000000 1.0
C      1  0.5719710000000  0.5281980000000  0.4943100000000 1.0
C      1  0.5690700000000  0.4740010000000  0.4923300000000 1.0
C      1  0.5484580000000  0.5392990000000  0.5055020000000 1.0
C      1  0.5450000000000  0.4631810000000  0.5024240000000 1.0
C      1  0.5547360000000  0.5987050000000  0.5585730000000 1.0
C      1  0.5507830000000  0.4011370000000  0.5538400000000 1.0
C      1  0.5224040000000  0.5159360000000  0.4059630000000 1.0
C      1  0.5228480000000  0.4860950000000  0.4003660000000 1.0
C      1  0.6040730000000  0.4857010000000  0.5549800000000 1.0
C      1  0.6060910000000  0.5127090000000  0.5551370000000 1.0
C      1  0.5792330000000  0.5718680000000  0.5193140000000 1.0
C      1  0.5746790000000  0.4297040000000  0.5169910000000 1.0
C      1  0.4190540000000  0.4823860000000  0.5696090000000 1.0
C      1  0.4176370000000  0.5225780000000  0.5646840000000 1.0
C      1  0.5791620000000  0.4725000000000  0.4205130000000 1.0
C      1  0.5777250000000  0.5293930000000  0.4232930000000 1.0
C      1  0.4871090000000  0.4456960000000  0.4960600000000 1.0
C      1  0.4920650000000  0.5568290000000  0.4981440000000 1.0
C      1  0.4750410000000  0.5372290000000  0.4840670000000 1.0
C      1  0.4657780000000  0.4643170000000  0.4865770000000 1.0
C      1  0.5272220000000  0.4159470000000  0.5059300000000 1.0
C      1  0.5313580000000  0.5865170000000  0.5098220000000 1.0
C      1  0.4101460000000  0.4136530000000  0.5257230000000 1.0
C      1  0.4061450000000  0.5931590000000  0.5290270000000 1.0
C      1  0.4576430000000  0.5338400000000  0.4203960000000 1.0
C      1  0.4493310000000  0.4442550000000  0.4048600000000 1.0
C      1  0.4235290000000  0.5245040000000  0.4875470000000 1.0
C      1  0.4149490000000  0.4713020000000  0.4976420000000 1.0
C      1  0.5973510000000  0.5380550000000  0.5510190000000 1.0
C      1  0.5923780000000  0.4616770000000  0.5504790000000 1.0
C      1  0.4610960000000  0.3756600000000  0.4696310000000 1.0
C      1  0.4554780000000  0.6168920000000  0.4608650000000 1.0
C      1  0.4529160000000  0.5275710000000  0.5270010000000 1.0
C      1  0.4503360000000  0.4700830000000  0.5318240000000 1.0
C      1  0.5519320000000  0.5002110000000  0.5459770000000 1.0
END
