TITL C-3623282-6910-1163 -4.04688098700722e-07 125000 -427.805500205503 0 0 68 (C1) n - 1
REM
REM in /home/nfs/bkarasulu/CARBON/AIRSS/Generating-Clusters/LCBOP/Higher-Symm/SD-CG/FIRE-CG
REM
REM
REM
REM
REM
REM ./C.cell (b20cbc046b6831c77cfcea5457e17084)
REM AIRSS Version 0.9.1 bugfix July 2018 build 013d7b7c2542+ Fri, 06 Jul 2018 19:26:36 +0100
REM compiler GCC version 9.2.1 20190827 (Red Hat 9.2.1-1)
REM options -cpp -mtune=generic -march=x86-64 -g -O0 -fpre-include=/usr/include/finclude/math-vector-fortran.h
REM seed 1595979529 -543013541 -1182515955 26999562 -1239711155 -895284961 1181679647 1569012191 -686235342 -109190531 1721522236 -1372206360 -1235583988 -825084190 -242168088 1518772508 1544531735 -1910720413 1685707070 -1841953162 991325168 2088425936 -561501849 -787794227 790040118 -1605972094 -1998686463 101201966 667157532 -1623804885 530611643 890761844 1991827097
REM
CELL 1.54180   50.00000   50.00000   50.00000   90.00000   90.00000   90.00000
LATT -1
SFAC C  
C      1  0.5126680000000  0.5159180000000  0.4177060000000 1.0
C      1  0.4157700000000  0.5332580000000  0.4607210000000 1.0
C      1  0.4351420000000  0.5361090000000  0.5644010000000 1.0
C      1  0.5376780000000  0.5200150000000  0.5724680000000 1.0
C      1  0.5817960000000  0.5206350000000  0.4855920000000 1.0
C      1  0.5148090000000  0.4876860000000  0.4149120000000 1.0
C      1  0.4192290000000  0.4666670000000  0.4616310000000 1.0
C      1  0.4382090000000  0.4693640000000  0.5654350000000 1.0
C      1  0.5404220000000  0.4918360000000  0.5757150000000 1.0
C      1  0.5865310000000  0.4922280000000  0.4857660000000 1.0
C      1  0.4859500000000  0.4771700000000  0.5565510000000 1.0
C      1  0.5476200000000  0.4816720000000  0.5283720000000 1.0
C      1  0.5442130000000  0.4800240000000  0.4643190000000 1.0
C      1  0.4789090000000  0.4755280000000  0.4462780000000 1.0
C      1  0.4440150000000  0.4741510000000  0.5035190000000 1.0
C      1  0.4834020000000  0.5324760000000  0.5556330000000 1.0
C      1  0.5452150000000  0.5328500000000  0.5271690000000 1.0
C      1  0.5413890000000  0.5318750000000  0.4631570000000 1.0
C      1  0.4758990000000  0.5294350000000  0.4454680000000 1.0
C      1  0.4412840000000  0.5296090000000  0.5026980000000 1.0
C      1  0.4216500000000  0.5156000000000  0.5750200000000 1.0
C      1  0.5553080000000  0.4700050000000  0.6226860000000 1.0
C      1  0.6367880000000  0.4729770000000  0.4897060000000 1.0
C      1  0.5352380000000  0.4650770000000  0.3704480000000 1.0
C      1  0.4019300000000  0.5124200000000  0.4512540000000 1.0
C      1  0.4228770000000  0.4888700000000  0.5754260000000 1.0
C      1  0.5482750000000  0.4807480000000  0.6000090000000 1.0
C      1  0.6125910000000  0.4824380000000  0.4876780000000 1.0
C      1  0.5252550000000  0.4761850000000  0.3918050000000 1.0
C      1  0.4033300000000  0.4856970000000  0.4516120000000 1.0
C      1  0.4425440000000  0.4638170000000  0.4767770000000 1.0
C      1  0.4606950000000  0.4658390000000  0.5492050000000 1.0
C      1  0.5347900000000  0.4752790000000  0.5529700000000 1.0
C      1  0.5642670000000  0.4736610000000  0.4839500000000 1.0
C      1  0.5057530000000  0.4713020000000  0.4367820000000 1.0
C      1  0.4387220000000  0.5388600000000  0.4756500000000 1.0
C      1  0.4572040000000  0.5411340000000  0.5479840000000 1.0
C      1  0.5318350000000  0.5383630000000  0.5516700000000 1.0
C      1  0.5609960000000  0.5402130000000  0.4824750000000 1.0
C      1  0.5023490000000  0.5352620000000  0.4358090000000 1.0
C      1  0.5518910000000  0.4620340000000  0.5077020000000 1.0
C      1  0.5245260000000  0.4607850000000  0.4561170000000 1.0
C      1  0.4679990000000  0.4572060000000  0.4654860000000 1.0
C      1  0.4591380000000  0.4579770000000  0.5219180000000 1.0
C      1  0.5094890000000  0.4624130000000  0.5485730000000 1.0
C      1  0.5476790000000  0.5518930000000  0.5057430000000 1.0
C      1  0.5199690000000  0.5486710000000  0.4543640000000 1.0
C      1  0.4634230000000  0.5473600000000  0.4639840000000 1.0
C      1  0.4549020000000  0.5477550000000  0.5204310000000 1.0
C      1  0.5055410000000  0.5490130000000  0.5470290000000 1.0
C      1  0.5289350000000  0.4444350000000  0.5040610000000 1.0
C      1  0.5151980000000  0.4434140000000  0.4773900000000 1.0
C      1  0.4860690000000  0.4420800000000  0.4821750000000 1.0
C      1  0.4813060000000  0.4426730000000  0.5114000000000 1.0
C      1  0.5075100000000  0.4447260000000  0.5253110000000 1.0
C      1  0.5231270000000  0.5671180000000  0.5016000000000 1.0
C      1  0.5091630000000  0.5659010000000  0.4750300000000 1.0
C      1  0.4800850000000  0.5646690000000  0.4800130000000 1.0
C      1  0.4755490000000  0.5646440000000  0.5092650000000 1.0
C      1  0.5018980000000  0.5655480000000  0.5230780000000 1.0
C      1  0.4867040000000  0.5050100000000  0.5621210000000 1.0
C      1  0.5392520000000  0.5066740000000  0.5177440000000 1.0
C      1  0.5326750000000  0.5054960000000  0.4698920000000 1.0
C      1  0.4387420000000  0.5017580000000  0.5078370000000 1.0
C      1  0.4685850000000  0.5019510000000  0.4438330000000 1.0
C      1  0.4979130000000  0.5265340000000  0.4985250000000 1.0
C      1  0.5000420000000  0.4822780000000  0.4993380000000 1.0
C      1  0.5179880000000  0.5052620000000  0.4962670000000 1.0
END
