TITL C-3623285-6872-1991 -619.761411401765 125000 -271.409709543685 0 0 48 (C1) n - 1
REM
REM in /home/nfs/bkarasulu/CARBON/AIRSS/Generating-Clusters/LCBOP/Higher-Symm/SD-CG/FIRE-CG
REM
REM
REM
REM
REM
REM ./C.cell (b20cbc046b6831c77cfcea5457e17084)
REM AIRSS Version 0.9.1 bugfix July 2018 build 013d7b7c2542+ Fri, 06 Jul 2018 19:26:36 +0100
REM compiler GCC version 9.2.1 20190827 (Red Hat 9.2.1-1)
REM options -cpp -mtune=generic -march=x86-64 -g -O0 -fpre-include=/usr/include/finclude/math-vector-fortran.h
REM seed -561081942 -370821286 -1698523384 1284902300 2138833928 -1083401291 633417153 1542226806 -96710225 -138430768 -83626442 157526839 68164866 904025782 776755469 -1556573536 1276895995 1997477434 1078009866 -1090587400 -2135636591 -621661992 1200586525 1229405024 743340554 -1001086869 490984667 -1837992611 -50057163 1932340757 -1659867138 1225143496 -1339982484
REM
CELL 1.54180   50.00000   50.00000   50.00000   90.00000   90.00000   90.00000
LATT -1
SFAC C  
C      1  0.4803200000000  0.4581380000000  0.5621850000000 1.0
C      1  0.4544340000000  0.4487890000000  0.4852980000000 1.0
C      1  0.5234860000000  0.4587930000000  0.4400450000000 1.0
C      1  0.5389780000000  0.4566410000000  0.5183130000000 1.0
C      1  0.4852990000000  0.4994200000000  0.4917610000000 1.0
C      1  0.5132430000000  0.4955850000000  0.4848970000000 1.0
C      1  0.5248460000000  0.5024790000000  0.5090110000000 1.0
C      1  0.4864390000000  0.4924010000000  0.5185350000000 1.0
C      1  0.4675940000000  0.5485250000000  0.4883770000000 1.0
C      1  0.5113430000000  0.5492060000000  0.4676070000000 1.0
C      1  0.5318320000000  0.5507660000000  0.5112230000000 1.0
C      1  0.4877520000000  0.5499450000000  0.5318620000000 1.0
C      1  0.5426180000000  0.5080600000000  0.5303550000000 1.0
C      1  0.4586600000000  0.5116140000000  0.5537850000000 1.0
C      1  0.4511500000000  0.5081680000000  0.4619360000000 1.0
C      1  0.5422540000000  0.5129500000000  0.4459920000000 1.0
C      1  0.4945920000000  0.4703920000000  0.4404700000000 1.0
C      1  0.5576870000000  0.4683900000000  0.4876170000000 1.0
C      1  0.5082120000000  0.4724990000000  0.5620640000000 1.0
C      1  0.4466810000000  0.4635650000000  0.5127880000000 1.0
C      1  0.4041850000000  0.5173660000000  0.4775120000000 1.0
C      1  0.5237120000000  0.5224280000000  0.4021230000000 1.0
C      1  0.5924750000000  0.5105970000000  0.5299600000000 1.0
C      1  0.4767370000000  0.5216120000000  0.5977600000000 1.0
C      1  0.4294060000000  0.5081720000000  0.4818610000000 1.0
C      1  0.5203400000000  0.5127860000000  0.4275820000000 1.0
C      1  0.5684730000000  0.5059340000000  0.5181730000000 1.0
C      1  0.4803100000000  0.5120780000000  0.5723560000000 1.0
C      1  0.5322000000000  0.4615580000000  0.5470680000000 1.0
C      1  0.4677030000000  0.4562490000000  0.5351630000000 1.0
C      1  0.4705110000000  0.4627240000000  0.4642460000000 1.0
C      1  0.5375840000000  0.4606210000000  0.4662080000000 1.0
C      1  0.5146510000000  0.4671290000000  0.4817300000000 1.0
C      1  0.5125380000000  0.4539970000000  0.5063970000000 1.0
C      1  0.4909500000000  0.4643170000000  0.5205100000000 1.0
C      1  0.4675850000000  0.4887260000000  0.4739910000000 1.0
C      1  0.5506560000000  0.5191750000000  0.4729220000000 1.0
C      1  0.5244810000000  0.5203620000000  0.5494850000000 1.0
C      1  0.4522940000000  0.5163680000000  0.5263320000000 1.0
C      1  0.4729870000000  0.5224650000000  0.4472030000000 1.0
C      1  0.5644890000000  0.4976980000000  0.4901210000000 1.0
C      1  0.5062660000000  0.5023150000000  0.5639590000000 1.0
C      1  0.4385820000000  0.4960880000000  0.5089580000000 1.0
C      1  0.4940780000000  0.5023050000000  0.4355260000000 1.0
C      1  0.5154650000000  0.5445070000000  0.5345240000000 1.0
C      1  0.4661790000000  0.5402050000000  0.5156180000000 1.0
C      1  0.4834800000000  0.5438550000000  0.4647330000000 1.0
C      1  0.5342650000000  0.5420370000000  0.4838590000000 1.0
END
