TITL C-3623288-6813-971 0.0866779867056122 125000 -1066.62307399849 0 0 172 (C1) n - 1
REM
REM in /home/nfs/bkarasulu/CARBON/AIRSS/Generating-Clusters/LCBOP/Higher-Symm/SD-CG/FIRE-CG
REM
REM
REM
REM
REM
REM ./C.cell (b20cbc046b6831c77cfcea5457e17084)
REM AIRSS Version 0.9.1 bugfix July 2018 build 013d7b7c2542+ Fri, 06 Jul 2018 19:26:36 +0100
REM compiler GCC version 9.2.1 20190827 (Red Hat 9.2.1-1)
REM options -cpp -mtune=generic -march=x86-64 -g -O0 -fpre-include=/usr/include/finclude/math-vector-fortran.h
REM seed 839910387 164889009 702485071 588085916 1858652906 -1476858250 1715847373 -110398745 -61533332 -728195948 1594714639 516004270 -1621808759 -874923956 621269710 -1008546562 1909518012 1251395235 185824214 1202629951 1060278749 -1070692363 1214413991 1358294870 1087730687 -355982287 -2065569843 -538863511 357950986 -1280411952 -632340120 -923395871 -884302347
REM
CELL 1.54180   50.00000   50.00000   50.00000   90.00000   90.00000   90.00000
LATT -1
SFAC C  
C      1  0.4462190000000  0.4133700000000  0.5207250000000 1.0
C      1  0.5080340000000  0.3810100000000  0.4826760000000 1.0
C      1  0.4702870000000  0.5042560000000  0.4420740000000 1.0
C      1  0.4685940000000  0.4378300000000  0.4682910000000 1.0
C      1  0.5484080000000  0.3884960000000  0.4483920000000 1.0
C      1  0.3918260000000  0.5597230000000  0.5204680000000 1.0
C      1  0.4057330000000  0.4469890000000  0.5396990000000 1.0
C      1  0.5168410000000  0.5698470000000  0.6043450000000 1.0
C      1  0.4184460000000  0.4804430000000  0.5057140000000 1.0
C      1  0.5037300000000  0.5471520000000  0.4648220000000 1.0
C      1  0.4397710000000  0.4836370000000  0.4872110000000 1.0
C      1  0.4442280000000  0.5684900000000  0.4367030000000 1.0
C      1  0.4367950000000  0.5679250000000  0.5487440000000 1.0
C      1  0.5727920000000  0.4302380000000  0.5865720000000 1.0
C      1  0.5845370000000  0.4454470000000  0.5276750000000 1.0
C      1  0.4250370000000  0.5141820000000  0.4027420000000 1.0
C      1  0.4495260000000  0.5283600000000  0.6003330000000 1.0
C      1  0.6183730000000  0.4514950000000  0.4947240000000 1.0
C      1  0.6065500000000  0.4598870000000  0.5418310000000 1.0
C      1  0.4431240000000  0.4217210000000  0.5507410000000 1.0
C      1  0.5423070000000  0.5069150000000  0.5839630000000 1.0
C      1  0.6294380000000  0.6225620000000  0.4484710000000 1.0
C      1  0.5704500000000  0.5126550000000  0.5877740000000 1.0
C      1  0.4916850000000  0.4318230000000  0.5560130000000 1.0
C      1  0.5845740000000  0.5497010000000  0.4112460000000 1.0
C      1  0.5134150000000  0.5326220000000  0.3802700000000 1.0
C      1  0.4906320000000  0.5706140000000  0.4743400000000 1.0
C      1  0.4698060000000  0.4834880000000  0.4924040000000 1.0
C      1  0.4566040000000  0.5786660000000  0.5666900000000 1.0
C      1  0.4486850000000  0.6042280000000  0.4714930000000 1.0
C      1  0.6241160000000  0.5490520000000  0.5182700000000 1.0
C      1  0.4537700000000  0.4716160000000  0.5675400000000 1.0
C      1  0.4423890000000  0.4332730000000  0.4754310000000 1.0
C      1  0.3888180000000  0.4346180000000  0.5208950000000 1.0
C      1  0.4694750000000  0.4846450000000  0.5235030000000 1.0
C      1  0.5841520000000  0.5563140000000  0.3860340000000 1.0
C      1  0.4581060000000  0.5518840000000  0.4171020000000 1.0
C      1  0.5459510000000  0.5860600000000  0.5372920000000 1.0
C      1  0.3837650000000  0.4975080000000  0.4593500000000 1.0
C      1  0.4815390000000  0.4136290000000  0.4621310000000 1.0
C      1  0.4578180000000  0.5574200000000  0.5894790000000 1.0
C      1  0.6136620000000  0.5234640000000  0.5264440000000 1.0
C      1  0.4979310000000  0.3940070000000  0.5269750000000 1.0
C      1  0.6023630000000  0.5126070000000  0.5003390000000 1.0
C      1  0.5376920000000  0.5043240000000  0.4701660000000 1.0
C      1  0.5210660000000  0.4883000000000  0.5928950000000 1.0
C      1  0.4394920000000  0.5697590000000  0.5207290000000 1.0
C      1  0.6178310000000  0.4576580000000  0.4663200000000 1.0
C      1  0.5701560000000  0.4263850000000  0.4180670000000 1.0
C      1  0.4876330000000  0.5536500000000  0.4161310000000 1.0
C      1  0.4509460000000  0.4681000000000  0.5391290000000 1.0
C      1  0.5056610000000  0.5268190000000  0.5542700000000 1.0
C      1  0.4147320000000  0.4901200000000  0.5802880000000 1.0
C      1  0.4983180000000  0.4775540000000  0.5314520000000 1.0
C      1  0.5669920000000  0.4027860000000  0.4344490000000 1.0
C      1  0.4008060000000  0.4848620000000  0.4391170000000 1.0
C      1  0.5793310000000  0.4977090000000  0.5068790000000 1.0
C      1  0.5598440000000  0.4595510000000  0.5289780000000 1.0
C      1  0.4203380000000  0.5181880000000  0.5939190000000 1.0
C      1  0.5254330000000  0.5817710000000  0.5563020000000 1.0
C      1  0.4202560000000  0.4411540000000  0.4282240000000 1.0
C      1  0.3921030000000  0.4493880000000  0.4720950000000 1.0
C      1  0.5333780000000  0.5754560000000  0.4903030000000 1.0
C      1  0.4845290000000  0.6028130000000  0.4350180000000 1.0
C      1  0.4346390000000  0.5813110000000  0.4609170000000 1.0
C      1  0.5918930000000  0.4506760000000  0.4548390000000 1.0
C      1  0.4439850000000  0.4442400000000  0.4160610000000 1.0
C      1  0.4720990000000  0.6153640000000  0.4574950000000 1.0
C      1  0.5296120000000  0.5343550000000  0.3298650000000 1.0
C      1  0.5757690000000  0.4391760000000  0.4766630000000 1.0
C      1  0.5204840000000  0.4946270000000  0.5170320000000 1.0
C      1  0.5078640000000  0.5323430000000  0.4082220000000 1.0
C      1  0.5235690000000  0.5109020000000  0.4229430000000 1.0
C      1  0.4913700000000  0.5184620000000  0.4601710000000 1.0
C      1  0.5209090000000  0.5333800000000  0.3548810000000 1.0
C      1  0.5114080000000  0.5508670000000  0.6224410000000 1.0
C      1  0.4271090000000  0.5433730000000  0.5563150000000 1.0
C      1  0.4323310000000  0.5170680000000  0.5429160000000 1.0
C      1  0.5506480000000  0.5815320000000  0.5113180000000 1.0
C      1  0.4994570000000  0.5026620000000  0.6100810000000 1.0
C      1  0.4222350000000  0.4994500000000  0.4268050000000 1.0
C      1  0.4826370000000  0.4579200000000  0.4830460000000 1.0
C      1  0.5168810000000  0.5052080000000  0.4504420000000 1.0
C      1  0.4987550000000  0.5808710000000  0.5455350000000 1.0
C      1  0.5476490000000  0.4387340000000  0.4737390000000 1.0
C      1  0.4691390000000  0.4929930000000  0.5768890000000 1.0
C      1  0.4422100000000  0.5352170000000  0.4004000000000 1.0
C      1  0.4663460000000  0.4128030000000  0.5927060000000 1.0
C      1  0.5053100000000  0.4476860000000  0.4962460000000 1.0
C      1  0.6001060000000  0.5342380000000  0.4812860000000 1.0
C      1  0.3834230000000  0.5330500000000  0.5271490000000 1.0
C      1  0.4282490000000  0.4229050000000  0.4974130000000 1.0
C      1  0.4424890000000  0.5084240000000  0.4452340000000 1.0
C      1  0.5351690000000  0.3613100000000  0.5192420000000 1.0
C      1  0.5013420000000  0.4588470000000  0.5538060000000 1.0
C      1  0.5383960000000  0.5353670000000  0.3053400000000 1.0
C      1  0.3912540000000  0.4878510000000  0.5031030000000 1.0
C      1  0.5072460000000  0.5882070000000  0.4906220000000 1.0
C      1  0.4750450000000  0.5959030000000  0.5504900000000 1.0
C      1  0.4249800000000  0.4650020000000  0.5277690000000 1.0
C      1  0.5504540000000  0.4281520000000  0.3974150000000 1.0
C      1  0.5940220000000  0.5155060000000  0.5464340000000 1.0
C      1  0.4891990000000  0.6285660000000  0.4766840000000 1.0
C      1  0.4031980000000  0.4557870000000  0.4450630000000 1.0
C      1  0.4948920000000  0.6123050000000  0.5001000000000 1.0
C      1  0.4146570000000  0.5700140000000  0.5062900000000 1.0
C      1  0.4894170000000  0.5612090000000  0.5260710000000 1.0
C      1  0.4092290000000  0.5403950000000  0.4697320000000 1.0
C      1  0.3870410000000  0.5230500000000  0.4751710000000 1.0
C      1  0.6384810000000  0.4686480000000  0.4524200000000 1.0
C      1  0.4841600000000  0.5110040000000  0.5614270000000 1.0
C      1  0.5540110000000  0.4139710000000  0.5764070000000 1.0
C      1  0.5294820000000  0.4363360000000  0.4949460000000 1.0
C      1  0.5919800000000  0.4382740000000  0.5006580000000 1.0
C      1  0.4713490000000  0.6105790000000  0.5190560000000 1.0
C      1  0.4811010000000  0.3947340000000  0.4841070000000 1.0
C      1  0.5463690000000  0.4949180000000  0.4144460000000 1.0
C      1  0.4048100000000  0.5375080000000  0.5744690000000 1.0
C      1  0.4486290000000  0.6107910000000  0.5002930000000 1.0
C      1  0.5782110000000  0.5352480000000  0.4632770000000 1.0
C      1  0.5227860000000  0.4668950000000  0.5713490000000 1.0
C      1  0.6160850000000  0.5563430000000  0.4914070000000 1.0
C      1  0.4207550000000  0.4387300000000  0.5630040000000 1.0
C      1  0.6260780000000  0.6014570000000  0.4634010000000 1.0
C      1  0.5425760000000  0.5082720000000  0.5360560000000 1.0
C      1  0.3836960000000  0.5157160000000  0.5040910000000 1.0
C      1  0.6267780000000  0.4617120000000  0.5207290000000 1.0
C      1  0.6222130000000  0.5797470000000  0.4780850000000 1.0
C      1  0.5604720000000  0.4769090000000  0.5049330000000 1.0
C      1  0.4670970000000  0.4222830000000  0.5669780000000 1.0
C      1  0.4766600000000  0.4822920000000  0.4252560000000 1.0
C      1  0.4948900000000  0.5809240000000  0.4225680000000 1.0
C      1  0.4281140000000  0.4637200000000  0.5792130000000 1.0
C      1  0.4325250000000  0.5265030000000  0.4633030000000 1.0
C      1  0.5033330000000  0.5374790000000  0.5280660000000 1.0
C      1  0.5343200000000  0.4444640000000  0.4492990000000 1.0
C      1  0.5049830000000  0.5181710000000  0.5076300000000 1.0
C      1  0.5986280000000  0.4716080000000  0.5675540000000 1.0
C      1  0.5242330000000  0.4297530000000  0.4045870000000 1.0
C      1  0.5341250000000  0.5735880000000  0.5824760000000 1.0
C      1  0.3885280000000  0.5218830000000  0.5543500000000 1.0
C      1  0.5602550000000  0.5628740000000  0.5866990000000 1.0
C      1  0.5831360000000  0.5421100000000  0.4365870000000 1.0
C      1  0.5321920000000  0.5514810000000  0.4738890000000 1.0
C      1  0.4639010000000  0.5572280000000  0.5121710000000 1.0
C      1  0.5316880000000  0.5182550000000  0.5598430000000 1.0
C      1  0.4537740000000  0.5119900000000  0.5257000000000 1.0
C      1  0.5790420000000  0.4521170000000  0.4291750000000 1.0
C      1  0.5741450000000  0.5405780000000  0.5931420000000 1.0
C      1  0.4724780000000  0.4002670000000  0.5121380000000 1.0
C      1  0.5330760000000  0.4067850000000  0.5612690000000 1.0
C      1  0.4609200000000  0.5298980000000  0.5036250000000 1.0
C      1  0.4082770000000  0.5000150000000  0.5525010000000 1.0
C      1  0.5463440000000  0.4626400000000  0.5540790000000 1.0
C      1  0.5511060000000  0.5302140000000  0.4712030000000 1.0
C      1  0.5216140000000  0.3886920000000  0.4579740000000 1.0
C      1  0.5368340000000  0.4868140000000  0.4928780000000 1.0
C      1  0.5911500000000  0.5000610000000  0.5705470000000 1.0
C      1  0.4655070000000  0.4601730000000  0.4149800000000 1.0
C      1  0.5154250000000  0.3777010000000  0.5102730000000 1.0
C      1  0.3800050000000  0.4752080000000  0.4797310000000 1.0
C      1  0.5087590000000  0.5244240000000  0.6260030000000 1.0
C      1  0.5884740000000  0.4521020000000  0.5856660000000 1.0
C      1  0.5170750000000  0.4300690000000  0.4319270000000 1.0
C      1  0.4704660000000  0.5060050000000  0.6027040000000 1.0
C      1  0.5086370000000  0.4103160000000  0.5476640000000 1.0
C      1  0.4155440000000  0.5670270000000  0.4778590000000 1.0
C      1  0.5696120000000  0.5117130000000  0.5307540000000 1.0
C      1  0.5658190000000  0.4763010000000  0.4196100000000 1.0
C      1  0.4001310000000  0.4311730000000  0.4948070000000 1.0
C      1  0.4821700000000  0.5127770000000  0.4883030000000 1.0
C      1  0.5040290000000  0.4090110000000  0.4454150000000 1.0
END
