TITL C-3623287-7182-854 0.606059555192379 125000 -349.065117093958 0 0 60 (C1) n - 1
REM
REM in /home/nfs/bkarasulu/CARBON/AIRSS/Generating-Clusters/LCBOP/Higher-Symm/SD-CG/FIRE-CG
REM
REM
REM
REM
REM
REM ./C.cell (b20cbc046b6831c77cfcea5457e17084)
REM AIRSS Version 0.9.1 bugfix July 2018 build 013d7b7c2542+ Fri, 06 Jul 2018 19:26:36 +0100
REM compiler GCC version 9.2.1 20190827 (Red Hat 9.2.1-1)
REM options -cpp -mtune=generic -march=x86-64 -g -O0 -fpre-include=/usr/include/finclude/math-vector-fortran.h
REM seed 1595777904 -2001308758 438655428 -226031143 -770144878 -68952720 -1186655141 -1018430562 -490777185 1156574226 -399957624 1026724284 -339833957 -1491018857 -29387361 1939664239 1826289616 -895037869 1857829828 2037832978 677858662 -1972058379 1689528495 417649045 1659531885 -1168131167 -1161922007 -319420199 -705626752 2027098281 -1924588858 -597081736 -1971048287
REM
CELL 1.54180   50.00000   50.00000   50.00000   90.00000   90.00000   90.00000
LATT -1
SFAC C  
C      1  0.4092970000000  0.5133050000000  0.5496110000000 1.0
C      1  0.5564410000000  0.5501210000000  0.6040850000000 1.0
C      1  0.4981850000000  0.4446050000000  0.6076930000000 1.0
C      1  0.5741500000000  0.4194740000000  0.4653290000000 1.0
C      1  0.4005410000000  0.4819150000000  0.4894590000000 1.0
C      1  0.5075890000000  0.5855010000000  0.4873300000000 1.0
C      1  0.4489750000000  0.4846940000000  0.5697490000000 1.0
C      1  0.5287890000000  0.5475390000000  0.5643420000000 1.0
C      1  0.5127720000000  0.4900110000000  0.5992180000000 1.0
C      1  0.5375540000000  0.5366740000000  0.5885520000000 1.0
C      1  0.4936690000000  0.4697990000000  0.5965390000000 1.0
C      1  0.4289950000000  0.4979060000000  0.5584110000000 1.0
C      1  0.5509260000000  0.5562050000000  0.4702900000000 1.0
C      1  0.5282700000000  0.4362050000000  0.4591660000000 1.0
C      1  0.4388190000000  0.5120850000000  0.4803750000000 1.0
C      1  0.5647290000000  0.4671010000000  0.4733020000000 1.0
C      1  0.4460450000000  0.4630960000000  0.4844480000000 1.0
C      1  0.5041330000000  0.5473790000000  0.5167660000000 1.0
C      1  0.5779050000000  0.5146350000000  0.4702950000000 1.0
C      1  0.4795600000000  0.4306640000000  0.4675850000000 1.0
C      1  0.4673630000000  0.5519150000000  0.4890930000000 1.0
C      1  0.4843270000000  0.4803680000000  0.5119220000000 1.0
C      1  0.5063820000000  0.4974260000000  0.5117420000000 1.0
C      1  0.5308400000000  0.4859100000000  0.5051960000000 1.0
C      1  0.4995270000000  0.6114580000000  0.4812040000000 1.0
C      1  0.5913980000000  0.3993720000000  0.4647770000000 1.0
C      1  0.3748430000000  0.4785650000000  0.4949540000000 1.0
C      1  0.4893710000000  0.4594780000000  0.4673160000000 1.0
C      1  0.4827490000000  0.5271240000000  0.4793790000000 1.0
C      1  0.5480110000000  0.5102020000000  0.4666400000000 1.0
C      1  0.5130860000000  0.4601440000000  0.4513390000000 1.0
C      1  0.4633820000000  0.5120870000000  0.4641270000000 1.0
C      1  0.5372680000000  0.5344820000000  0.4562080000000 1.0
C      1  0.5275820000000  0.5359230000000  0.4302120000000 1.0
C      1  0.5156280000000  0.4739380000000  0.4273320000000 1.0
C      1  0.4626710000000  0.5052630000000  0.4372700000000 1.0
C      1  0.5190110000000  0.5193010000000  0.4110860000000 1.0
C      1  0.5043840000000  0.4954570000000  0.4132110000000 1.0
C      1  0.4765250000000  0.4982750000000  0.4155620000000 1.0
C      1  0.5023930000000  0.4210850000000  0.6181000000000 1.0
C      1  0.3902060000000  0.5291870000000  0.5416790000000 1.0
C      1  0.5740800000000  0.5626790000000  0.6185910000000 1.0
C      1  0.5172040000000  0.5510460000000  0.5407860000000 1.0
C      1  0.5271380000000  0.5121510000000  0.5969880000000 1.0
C      1  0.4700130000000  0.4749850000000  0.5825950000000 1.0
C      1  0.4898070000000  0.5674020000000  0.5007520000000 1.0
C      1  0.5871960000000  0.4865660000000  0.4704230000000 1.0
C      1  0.4509630000000  0.4352730000000  0.4745150000000 1.0
C      1  0.5560010000000  0.4406270000000  0.4659320000000 1.0
C      1  0.4277700000000  0.4855860000000  0.4849510000000 1.0
C      1  0.5339090000000  0.5763340000000  0.4803210000000 1.0
C      1  0.5009620000000  0.5230320000000  0.5019330000000 1.0
C      1  0.5435350000000  0.4856020000000  0.4805260000000 1.0
C      1  0.4735380000000  0.4712710000000  0.4880570000000 1.0
C      1  0.4917050000000  0.6356260000000  0.4753800000000 1.0
C      1  0.6083710000000  0.3795920000000  0.4642370000000 1.0
C      1  0.3496720000000  0.4757910000000  0.5011450000000 1.0
C      1  0.5776610000000  0.5436900000000  0.4750370000000 1.0
C      1  0.5056990000000  0.4171820000000  0.4650180000000 1.0
C      1  0.4404860000000  0.5396890000000  0.4919180000000 1.0
END
