TITL C-3623288-6813-54 -0.00723456218530171 125000 -402.65789471644 0 0 68 (Ci) n - 1
REM
REM in /home/nfs/bkarasulu/CARBON/AIRSS/Generating-Clusters/LCBOP/Higher-Symm/SD-CG/FIRE-CG
REM
REM
REM
REM
REM
REM ./C.cell (b20cbc046b6831c77cfcea5457e17084)
REM AIRSS Version 0.9.1 bugfix July 2018 build 013d7b7c2542+ Fri, 06 Jul 2018 19:26:36 +0100
REM compiler GCC version 9.2.1 20190827 (Red Hat 9.2.1-1)
REM options -cpp -mtune=generic -march=x86-64 -g -O0 -fpre-include=/usr/include/finclude/math-vector-fortran.h
REM seed -668516397 -1877935648 328004033 -1051668758 1992178543 870186441 -1090777868 -146911157 -779316544 161259907 -604805899 1842942762 1691488934 1788508843 -438783945 19777773 -183123020 527621173 -2068246301 496397827 767043837 547522686 1531692305 -1665122761 -1821720581 1543209640 -81886272 1976763823 791878168 2079818613 1430548602 908673567 -1844152491
REM
CELL 1.54180   50.00000   50.00000   50.00000   90.00000   90.00000   90.00000
LATT -1
SFAC C  
C      1  0.5282360000000  0.5307330000000  0.4985020000000 1.0
C      1  0.4716490000000  0.5337930000000  0.5077300000000 1.0
C      1  0.5505490000000  0.5053420000000  0.5618800000000 1.0
C      1  0.4717640000000  0.4712840000000  0.5014810000000 1.0
C      1  0.5283510000000  0.4682230000000  0.4922520000000 1.0
C      1  0.4494510000000  0.4966750000000  0.4381030000000 1.0
C      1  0.6445470000000  0.4603690000000  0.5237280000000 1.0
C      1  0.3669340000000  0.4565280000000  0.4651000000000 1.0
C      1  0.6302650000000  0.5007140000000  0.4411760000000 1.0
C      1  0.3554530000000  0.5416480000000  0.4762540000000 1.0
C      1  0.6330660000000  0.5454880000000  0.5348820000000 1.0
C      1  0.3697350000000  0.5013030000000  0.5588070000000 1.0
C      1  0.3799190000000  0.5326990000000  0.4769160000000 1.0
C      1  0.6127950000000  0.5378130000000  0.5204150000000 1.0
C      1  0.3903440000000  0.5064850000000  0.5437220000000 1.0
C      1  0.6200810000000  0.4693180000000  0.5230670000000 1.0
C      1  0.3872050000000  0.4642040000000  0.4795680000000 1.0
C      1  0.6096560000000  0.4955320000000  0.4562600000000 1.0
C      1  0.4851890000000  0.4172590000000  0.5272660000000 1.0
C      1  0.5072750000000  0.4385100000000  0.4450070000000 1.0
C      1  0.4884850000000  0.5263950000000  0.4199800000000 1.0
C      1  0.5148110000000  0.5847580000000  0.4727160000000 1.0
C      1  0.4927250000000  0.5635070000000  0.5549760000000 1.0
C      1  0.5115150000000  0.4756210000000  0.5800020000000 1.0
C      1  0.4910600000000  0.4217510000000  0.4580070000000 1.0
C      1  0.5054760000000  0.5058450000000  0.4183670000000 1.0
C      1  0.4935300000000  0.5800840000000  0.4572930000000 1.0
C      1  0.5089400000000  0.5802660000000  0.5419760000000 1.0
C      1  0.4945240000000  0.4961720000000  0.5816150000000 1.0
C      1  0.5064700000000  0.4219330000000  0.5426900000000 1.0
C      1  0.5233220000000  0.5866380000000  0.5203560000000 1.0
C      1  0.4833470000000  0.5190650000000  0.5736830000000 1.0
C      1  0.5248430000000  0.4369950000000  0.5548700000000 1.0
C      1  0.4766780000000  0.4153780000000  0.4796260000000 1.0
C      1  0.5166530000000  0.4829520000000  0.4263000000000 1.0
C      1  0.4751570000000  0.5650220000000  0.4451130000000 1.0
C      1  0.5223530000000  0.4622460000000  0.4444190000000 1.0
C      1  0.4680050000000  0.5403620000000  0.4338600000000 1.0
C      1  0.5308570000000  0.5776030000000  0.4946980000000 1.0
C      1  0.4776470000000  0.5397710000000  0.5555640000000 1.0
C      1  0.5319950000000  0.4616550000000  0.5661230000000 1.0
C      1  0.4691430000000  0.4244140000000  0.5052850000000 1.0
C      1  0.4250320000000  0.5305730000000  0.4600590000000 1.0
C      1  0.5722250000000  0.5465690000000  0.4955110000000 1.0
C      1  0.4341830000000  0.5254310000000  0.5357930000000 1.0
C      1  0.5749680000000  0.4714440000000  0.5399240000000 1.0
C      1  0.4277750000000  0.4554480000000  0.5044720000000 1.0
C      1  0.5658170000000  0.4765860000000  0.4641900000000 1.0
C      1  0.4772870000000  0.5166640000000  0.4881440000000 1.0
C      1  0.5356730000000  0.5194250000000  0.5444740000000 1.0
C      1  0.4737790000000  0.4899030000000  0.4809340000000 1.0
C      1  0.5227130000000  0.4853530000000  0.5118380000000 1.0
C      1  0.4643270000000  0.4825920000000  0.4555090000000 1.0
C      1  0.5262210000000  0.5121130000000  0.5190490000000 1.0
C      1  0.4057000000000  0.5217940000000  0.4787020000000 1.0
C      1  0.5912740000000  0.5280770000000  0.5053970000000 1.0
C      1  0.4118010000000  0.5114310000000  0.5265110000000 1.0
C      1  0.5943000000000  0.4802230000000  0.5212810000000 1.0
C      1  0.4087260000000  0.4739400000000  0.4945860000000 1.0
C      1  0.5881990000000  0.4905850000000  0.4734720000000 1.0
C      1  0.5547500000000  0.4774440000000  0.5585490000000 1.0
C      1  0.4551230000000  0.4492330000000  0.5061780000000 1.0
C      1  0.5394890000000  0.4675400000000  0.4665150000000 1.0
C      1  0.4452500000000  0.5245730000000  0.4414340000000 1.0
C      1  0.5448770000000  0.5527840000000  0.4938050000000 1.0
C      1  0.4605110000000  0.5344760000000  0.5334670000000 1.0
C      1  0.4103660000000  0.5022730000000  0.4994050000000 1.0
C      1  0.5896340000000  0.4997440000000  0.5005780000000 1.0
END
