TITL C-3623283-6828-1922 -1.76164309014732e-06 125000 -257.216346823759 0 0 44 (C1) n - 1
REM
REM in /home/nfs/bkarasulu/CARBON/AIRSS/Generating-Clusters/LCBOP/Higher-Symm/SD-CG/FIRE-CG
REM
REM
REM
REM
REM
REM ./C.cell (b20cbc046b6831c77cfcea5457e17084)
REM AIRSS Version 0.9.1 bugfix July 2018 build 013d7b7c2542+ Fri, 06 Jul 2018 19:26:36 +0100
REM compiler GCC version 9.2.1 20190827 (Red Hat 9.2.1-1)
REM options -cpp -mtune=generic -march=x86-64 -g -O0 -fpre-include=/usr/include/finclude/math-vector-fortran.h
REM seed 1426128472 1246831446 954832239 1710016142 1841964237 1826695602 -2139886196 -356458415 872144116 -1585728514 468310989 538403845 -1089201995 -1316925682 -1763720738 2132856493 -1825934461 142615216 1814329818 1949776641 -1592991612 -1980781115 -1982424139 1462953139 610419200 1939077782 749594705 -2086800240 -1361157219 688618007 610122823 934497064 283220047
REM
CELL 1.54180   50.00000   50.00000   50.00000   90.00000   90.00000   90.00000
LATT -1
SFAC C  
C      1  0.5199080000000  0.4852160000000  0.4578970000000 1.0
C      1  0.5193320000000  0.5158250000000  0.4572930000000 1.0
C      1  0.5004330000000  0.5587930000000  0.4738510000000 1.0
C      1  0.5006810000000  0.4419760000000  0.4732090000000 1.0
C      1  0.5072680000000  0.4488820000000  0.5400520000000 1.0
C      1  0.5056300000000  0.5497550000000  0.5405880000000 1.0
C      1  0.4980100000000  0.5717800000000  0.5242770000000 1.0
C      1  0.4998610000000  0.4271980000000  0.5231800000000 1.0
C      1  0.5496750000000  0.5188220000000  0.4697940000000 1.0
C      1  0.5466930000000  0.4838490000000  0.4693600000000 1.0
C      1  0.5669360000000  0.4680360000000  0.5386470000000 1.0
C      1  0.5655740000000  0.5316110000000  0.5405670000000 1.0
C      1  0.4950320000000  0.5372820000000  0.5637020000000 1.0
C      1  0.4963940000000  0.4604820000000  0.5635040000000 1.0
C      1  0.4998160000000  0.5360620000000  0.4567090000000 1.0
C      1  0.4997990000000  0.4654860000000  0.4571190000000 1.0
C      1  0.4483160000000  0.5245130000000  0.4030050000000 1.0
C      1  0.4298060000000  0.4777210000000  0.4336200000000 1.0
C      1  0.5560840000000  0.5320450000000  0.4927770000000 1.0
C      1  0.5555580000000  0.4696740000000  0.4911630000000 1.0
C      1  0.4983070000000  0.5725500000000  0.4970120000000 1.0
C      1  0.4993210000000  0.4273770000000  0.4959070000000 1.0
C      1  0.4552620000000  0.4878140000000  0.4339330000000 1.0
C      1  0.4600950000000  0.5147280000000  0.4257040000000 1.0
C      1  0.4281420000000  0.5123060000000  0.4997290000000 1.0
C      1  0.4281270000000  0.4855570000000  0.5012370000000 1.0
C      1  0.4441330000000  0.5574670000000  0.5023460000000 1.0
C      1  0.4446360000000  0.4411040000000  0.5089450000000 1.0
C      1  0.5013610000000  0.5140870000000  0.5109130000000 1.0
C      1  0.5014490000000  0.4853230000000  0.5116960000000 1.0
C      1  0.4494820000000  0.4676990000000  0.5054280000000 1.0
C      1  0.4493270000000  0.5307010000000  0.5020900000000 1.0
C      1  0.5479510000000  0.4670670000000  0.5180740000000 1.0
C      1  0.5472900000000  0.5331650000000  0.5193940000000 1.0
C      1  0.4773420000000  0.5309740000000  0.4406960000000 1.0
C      1  0.4765540000000  0.4718270000000  0.4427330000000 1.0
C      1  0.4748130000000  0.5196660000000  0.5046090000000 1.0
C      1  0.4748550000000  0.4792040000000  0.5062840000000 1.0
C      1  0.5787580000000  0.5130500000000  0.5546490000000 1.0
C      1  0.5794220000000  0.4862570000000  0.5537760000000 1.0
C      1  0.5203090000000  0.4686490000000  0.5238800000000 1.0
C      1  0.5194940000000  0.5308680000000  0.5240470000000 1.0
C      1  0.4916250000000  0.4852910000000  0.5732960000000 1.0
C      1  0.4911380000000  0.5122580000000  0.5733060000000 1.0
END
