TITL C-3623288-6813-791 -1.81607496005234e-07 125000 -761.798953630082 0 0 119 (C1) n - 1
REM
REM in /home/nfs/bkarasulu/CARBON/AIRSS/Generating-Clusters/LCBOP/Higher-Symm/SD-CG/FIRE-CG
REM
REM
REM
REM
REM
REM ./C.cell (b20cbc046b6831c77cfcea5457e17084)
REM AIRSS Version 0.9.1 bugfix July 2018 build 013d7b7c2542+ Fri, 06 Jul 2018 19:26:36 +0100
REM compiler GCC version 9.2.1 20190827 (Red Hat 9.2.1-1)
REM options -cpp -mtune=generic -march=x86-64 -g -O0 -fpre-include=/usr/include/finclude/math-vector-fortran.h
REM seed -909600745 -285216322 -144676180 -1534410373 -824878738 848156043 -1356031256 -1938130858 1367045840 1293831270 -1539206611 -29469494 1567028349 -1415645539 -1272895699 1538828291 549622439 -1109996396 1432361524 -1769469841 -1140736649 -1847948676 -1210422005 825686340 336250094 -765569151 -710159806 277714658 33558769 1974689332 1358804169 2008393563 1208975672
REM
CELL 1.54180   50.00000   50.00000   50.00000   90.00000   90.00000   90.00000
LATT -1
SFAC C  
C      1  0.4230270000000  0.4756050000000  0.5120430000000 1.0
C      1  0.4211290000000  0.5046950000000  0.4716510000000 1.0
C      1  0.4221850000000  0.5235140000000  0.5174590000000 1.0
C      1  0.5785900000000  0.5227050000000  0.5121060000000 1.0
C      1  0.5822400000000  0.4964580000000  0.4726810000000 1.0
C      1  0.5813090000000  0.4746590000000  0.5167790000000 1.0
C      1  0.5776330000000  0.5427620000000  0.5327600000000 1.0
C      1  0.5800600000000  0.4448700000000  0.5205680000000 1.0
C      1  0.5816880000000  0.5039700000000  0.4442810000000 1.0
C      1  0.4224640000000  0.4573480000000  0.5363370000000 1.0
C      1  0.4215790000000  0.5533720000000  0.5215340000000 1.0
C      1  0.4218820000000  0.4943640000000  0.4439590000000 1.0
C      1  0.4846240000000  0.5284360000000  0.5197410000000 1.0
C      1  0.4867570000000  0.4716380000000  0.5157510000000 1.0
C      1  0.4840620000000  0.5016210000000  0.4649930000000 1.0
C      1  0.5149640000000  0.4737150000000  0.5158940000000 1.0
C      1  0.5125990000000  0.5299680000000  0.5209350000000 1.0
C      1  0.5114880000000  0.5043320000000  0.4647500000000 1.0
C      1  0.5306350000000  0.4846620000000  0.4735720000000 1.0
C      1  0.5283460000000  0.5340870000000  0.4971040000000 1.0
C      1  0.5327630000000  0.4893810000000  0.5324430000000 1.0
C      1  0.4685450000000  0.5234440000000  0.4753610000000 1.0
C      1  0.4692590000000  0.4676380000000  0.4930160000000 1.0
C      1  0.4675070000000  0.5099510000000  0.5336320000000 1.0
C      1  0.5625230000000  0.3972240000000  0.5685700000000 1.0
C      1  0.5646660000000  0.5024630000000  0.3826110000000 1.0
C      1  0.5549760000000  0.5968650000000  0.5600800000000 1.0
C      1  0.4346920000000  0.6027800000000  0.5682260000000 1.0
C      1  0.4348130000000  0.4997630000000  0.3796610000000 1.0
C      1  0.4395530000000  0.3922720000000  0.5550680000000 1.0
C      1  0.5309180000000  0.4748690000000  0.4053320000000 1.0
C      1  0.5268570000000  0.5903270000000  0.5200650000000 1.0
C      1  0.5284720000000  0.4331040000000  0.5708890000000 1.0
C      1  0.4723910000000  0.5206450000000  0.4024150000000 1.0
C      1  0.4734750000000  0.4072350000000  0.5222330000000 1.0
C      1  0.4717950000000  0.5701690000000  0.5694680000000 1.0
C      1  0.5568190000000  0.4875410000000  0.4041340000000 1.0
C      1  0.5508480000000  0.5854090000000  0.5356080000000 1.0
C      1  0.5545840000000  0.4227060000000  0.5628380000000 1.0
C      1  0.4450770000000  0.5117680000000  0.4020840000000 1.0
C      1  0.4473830000000  0.4093870000000  0.5352830000000 1.0
C      1  0.4445810000000  0.5779540000000  0.5626920000000 1.0
C      1  0.5706230000000  0.5692180000000  0.5231530000000 1.0
C      1  0.5711830000000  0.4412860000000  0.5491810000000 1.0
C      1  0.5744800000000  0.4825890000000  0.4262130000000 1.0
C      1  0.4305880000000  0.4301330000000  0.5254660000000 1.0
C      1  0.4290270000000  0.5575890000000  0.5504150000000 1.0
C      1  0.4280900000000  0.5161410000000  0.4245960000000 1.0
C      1  0.5260140000000  0.4531050000000  0.4229780000000 1.0
C      1  0.5253320000000  0.5866640000000  0.4908600000000 1.0
C      1  0.5250250000000  0.4603500000000  0.5815880000000 1.0
C      1  0.4834490000000  0.5430130000000  0.4158470000000 1.0
C      1  0.4771720000000  0.4117250000000  0.4933690000000 1.0
C      1  0.4772250000000  0.5444300000000  0.5812970000000 1.0
C      1  0.5572180000000  0.5766450000000  0.4513220000000 1.0
C      1  0.5558840000000  0.5005830000000  0.5927520000000 1.0
C      1  0.5415580000000  0.4204060000000  0.4539230000000 1.0
C      1  0.4469650000000  0.4218270000000  0.4523590000000 1.0
C      1  0.4602310000000  0.5004100000000  0.5922430000000 1.0
C      1  0.4565790000000  0.5787220000000  0.4551240000000 1.0
C      1  0.4516190000000  0.4763480000000  0.5771300000000 1.0
C      1  0.4507710000000  0.4471310000000  0.4396190000000 1.0
C      1  0.4509610000000  0.5783210000000  0.4843040000000 1.0
C      1  0.5516570000000  0.5244260000000  0.5776740000000 1.0
C      1  0.5507860000000  0.5513520000000  0.4403020000000 1.0
C      1  0.5497520000000  0.4240310000000  0.4820030000000 1.0
C      1  0.4415210000000  0.5244990000000  0.4703020000000 1.0
C      1  0.4404140000000  0.5158760000000  0.5388960000000 1.0
C      1  0.4418570000000  0.4611830000000  0.4955430000000 1.0
C      1  0.5541900000000  0.4986470000000  0.4789050000000 1.0
C      1  0.5603620000000  0.4830700000000  0.5361070000000 1.0
C      1  0.5535070000000  0.5213670000000  0.4972270000000 1.0
C      1  0.4760060000000  0.4833220000000  0.5381720000000 1.0
C      1  0.4769110000000  0.4749180000000  0.4667890000000 1.0
C      1  0.4760830000000  0.5406710000000  0.4965690000000 1.0
C      1  0.5235490000000  0.5148220000000  0.5414680000000 1.0
C      1  0.5193670000000  0.5310330000000  0.4695240000000 1.0
C      1  0.5250780000000  0.4634880000000  0.4921280000000 1.0
C      1  0.5019740000000  0.4204180000000  0.4813680000000 1.0
C      1  0.4990160000000  0.5574600000000  0.4346440000000 1.0
C      1  0.5006820000000  0.5264340000000  0.5836320000000 1.0
C      1  0.4990040000000  0.5805750000000  0.4788810000000 1.0
C      1  0.5017080000000  0.4433490000000  0.4364410000000 1.0
C      1  0.4999770000000  0.4748320000000  0.5809720000000 1.0
C      1  0.4949650000000  0.4071860000000  0.5400630000000 1.0
C      1  0.4905950000000  0.5038240000000  0.3894130000000 1.0
C      1  0.4914930000000  0.5858370000000  0.5575410000000 1.0
C      1  0.5041860000000  0.5944710000000  0.5358900000000 1.0
C      1  0.5100760000000  0.4860270000000  0.3907150000000 1.0
C      1  0.5070020000000  0.4182880000000  0.5609230000000 1.0
C      1  0.5248940000000  0.4350890000000  0.4925030000000 1.0
C      1  0.5231190000000  0.5458050000000  0.4455980000000 1.0
C      1  0.5246740000000  0.5254610000000  0.5678420000000 1.0
C      1  0.4767940000000  0.5688960000000  0.4943980000000 1.0
C      1  0.4775030000000  0.4569850000000  0.4445060000000 1.0
C      1  0.4769540000000  0.4701570000000  0.5632720000000 1.0
C      1  0.4248180000000  0.5439210000000  0.4306780000000 1.0
C      1  0.4351180000000  0.5314320000000  0.5623110000000 1.0
C      1  0.4356070000000  0.4334060000000  0.4968320000000 1.0
C      1  0.5735100000000  0.4553510000000  0.4343550000000 1.0
C      1  0.5661660000000  0.4679800000000  0.5599330000000 1.0
C      1  0.5733410000000  0.5768570000000  0.4960950000000 1.0
C      1  0.5497620000000  0.4400790000000  0.4345440000000 1.0
C      1  0.5519070000000  0.5833880000000  0.4782600000000 1.0
C      1  0.5503250000000  0.4746950000000  0.5824450000000 1.0
C      1  0.4374020000000  0.5665970000000  0.4381690000000 1.0
C      1  0.4518630000000  0.4173660000000  0.4800490000000 1.0
C      1  0.4531270000000  0.5273310000000  0.5836730000000 1.0
C      1  0.5721380000000  0.4283570000000  0.4986980000000 1.0
C      1  0.5705360000000  0.5303660000000  0.4382290000000 1.0
C      1  0.5713410000000  0.5356550000000  0.5599340000000 1.0
C      1  0.4288600000000  0.5715370000000  0.5007570000000 1.0
C      1  0.4303700000000  0.4674880000000  0.4380240000000 1.0
C      1  0.4290320000000  0.4665120000000  0.5627490000000 1.0
C      1  0.4867600000000  0.5777120000000  0.4513440000000 1.0
C      1  0.5105710000000  0.4203050000000  0.4531230000000 1.0
C      1  0.4910460000000  0.5001810000000  0.5935110000000 1.0
C      1  0.4157910000000  0.5009970000000  0.5004080000000 1.0
C      1  0.5920840000000  0.4970760000000  0.5011840000000 1.0
END
