TITL C-3623284-6838-1353 -0.00238527886302056 125000 -618.297676009702 0 0 102 (C1) n - 1
REM
REM in /home/nfs/bkarasulu/CARBON/AIRSS/Generating-Clusters/LCBOP/Higher-Symm/SD-CG/FIRE-CG
REM
REM
REM
REM
REM
REM ./C.cell (b20cbc046b6831c77cfcea5457e17084)
REM AIRSS Version 0.9.1 bugfix July 2018 build 013d7b7c2542+ Fri, 06 Jul 2018 19:26:36 +0100
REM compiler GCC version 9.2.1 20190827 (Red Hat 9.2.1-1)
REM options -cpp -mtune=generic -march=x86-64 -g -O0 -fpre-include=/usr/include/finclude/math-vector-fortran.h
REM seed -63331249 -978912833 63555695 2032910251 1013270257 -1848921657 -1504732106 -34315557 -1864535110 1921423253 1013583639 -297443918 -1618460331 1711993461 -1461139980 1673364555 3982004 -1448639164 -1846782421 44106650 -537078582 -740602613 1963545198 1227663837 684956647 1078536250 1774629488 691031978 1646761007 1670195345 582866035 -1320028967 216337063
REM
CELL 1.54180   50.00000   50.00000   50.00000   90.00000   90.00000   90.00000
LATT -1
SFAC C  
C      1  0.4482680000000  0.5603330000000  0.5410230000000 1.0
C      1  0.4658840000000  0.5271710000000  0.4927230000000 1.0
C      1  0.4892550000000  0.4803420000000  0.5086490000000 1.0
C      1  0.5060890000000  0.4793360000000  0.4633900000000 1.0
C      1  0.5372280000000  0.5500510000000  0.4034830000000 1.0
C      1  0.4240780000000  0.4460380000000  0.5272990000000 1.0
C      1  0.5377470000000  0.4932670000000  0.5798490000000 1.0
C      1  0.4379130000000  0.4264150000000  0.4748810000000 1.0
C      1  0.5497750000000  0.5407830000000  0.5808600000000 1.0
C      1  0.5074570000000  0.4303270000000  0.5812440000000 1.0
C      1  0.4955980000000  0.4526460000000  0.5903030000000 1.0
C      1  0.4780410000000  0.4065660000000  0.5189560000000 1.0
C      1  0.4682450000000  0.4501320000000  0.5375950000000 1.0
C      1  0.6002930000000  0.4907580000000  0.5598620000000 1.0
C      1  0.4038900000000  0.4704910000000  0.4572460000000 1.0
C      1  0.5420580000000  0.4894840000000  0.5195030000000 1.0
C      1  0.4544750000000  0.5430120000000  0.3989740000000 1.0
C      1  0.5385870000000  0.4262480000000  0.5145550000000 1.0
C      1  0.5756200000000  0.4806370000000  0.5529720000000 1.0
C      1  0.4574230000000  0.5517640000000  0.4475210000000 1.0
C      1  0.4635550000000  0.4888770000000  0.5759450000000 1.0
C      1  0.5862450000000  0.5376370000000  0.4723890000000 1.0
C      1  0.6225530000000  0.5023830000000  0.5683000000000 1.0
C      1  0.5268620000000  0.4254840000000  0.5616620000000 1.0
C      1  0.4181190000000  0.4739800000000  0.5294330000000 1.0
C      1  0.4961620000000  0.5337420000000  0.3746520000000 1.0
C      1  0.4438500000000  0.4663180000000  0.5722280000000 1.0
C      1  0.5236390000000  0.4122650000000  0.5359360000000 1.0
C      1  0.5076840000000  0.5221640000000  0.5243810000000 1.0
C      1  0.5879810000000  0.5114300000000  0.5098040000000 1.0
C      1  0.4296660000000  0.4835830000000  0.4225420000000 1.0
C      1  0.4859090000000  0.4088790000000  0.4644330000000 1.0
C      1  0.5376330000000  0.5194160000000  0.5131660000000 1.0
C      1  0.5597330000000  0.4380030000000  0.4715360000000 1.0
C      1  0.5473410000000  0.4452820000000  0.5594980000000 1.0
C      1  0.4808680000000  0.4543670000000  0.4940530000000 1.0
C      1  0.4944010000000  0.5613840000000  0.4166900000000 1.0
C      1  0.5214020000000  0.4751620000000  0.5058640000000 1.0
C      1  0.4307170000000  0.5662720000000  0.5190970000000 1.0
C      1  0.5089430000000  0.5226940000000  0.3532940000000 1.0
C      1  0.4610860000000  0.3929220000000  0.5014350000000 1.0
C      1  0.5079820000000  0.4278390000000  0.4689250000000 1.0
C      1  0.5402360000000  0.5664830000000  0.4269900000000 1.0
C      1  0.5775640000000  0.4588910000000  0.4681460000000 1.0
C      1  0.5636380000000  0.4732020000000  0.5276970000000 1.0
C      1  0.6001180000000  0.5478650000000  0.4267790000000 1.0
C      1  0.4318070000000  0.5164340000000  0.5352120000000 1.0
C      1  0.5661820000000  0.5307220000000  0.5148470000000 1.0
C      1  0.4872930000000  0.6141420000000  0.4503800000000 1.0
C      1  0.4767960000000  0.4348120000000  0.5156300000000 1.0
C      1  0.4679450000000  0.5331750000000  0.3776170000000 1.0
C      1  0.5493750000000  0.5629120000000  0.5660320000000 1.0
C      1  0.5597570000000  0.5124770000000  0.6185730000000 1.0
C      1  0.4698410000000  0.5162460000000  0.5617990000000 1.0
C      1  0.4356870000000  0.4374100000000  0.4483540000000 1.0
C      1  0.4569280000000  0.5417090000000  0.4721510000000 1.0
C      1  0.4673700000000  0.5542130000000  0.4215780000000 1.0
C      1  0.5325110000000  0.5177680000000  0.4806610000000 1.0
C      1  0.3874290000000  0.4842860000000  0.4967870000000 1.0
C      1  0.5539530000000  0.5857140000000  0.4694850000000 1.0
C      1  0.5129200000000  0.5765680000000  0.4323540000000 1.0
C      1  0.5761260000000  0.4878440000000  0.4694980000000 1.0
C      1  0.5311350000000  0.4737370000000  0.4772330000000 1.0
C      1  0.5919490000000  0.5091590000000  0.4806230000000 1.0
C      1  0.4165920000000  0.5062810000000  0.4319490000000 1.0
C      1  0.4906010000000  0.4791930000000  0.5828190000000 1.0
C      1  0.5109720000000  0.4960770000000  0.5709750000000 1.0
C      1  0.5506640000000  0.5800630000000  0.5456360000000 1.0
C      1  0.4126580000000  0.5564260000000  0.5012180000000 1.0
C      1  0.4987210000000  0.5157710000000  0.5523290000000 1.0
C      1  0.5320350000000  0.6031130000000  0.4662340000000 1.0
C      1  0.5489140000000  0.4952390000000  0.4705440000000 1.0
C      1  0.4890750000000  0.5106050000000  0.5003750000000 1.0
C      1  0.4932520000000  0.4540760000000  0.4683580000000 1.0
C      1  0.4007280000000  0.5004350000000  0.4553110000000 1.0
C      1  0.5619220000000  0.5766140000000  0.4950420000000 1.0
C      1  0.5543590000000  0.4714930000000  0.5712900000000 1.0
C      1  0.3954230000000  0.4893690000000  0.5234400000000 1.0
C      1  0.5605040000000  0.5690630000000  0.4464990000000 1.0
C      1  0.5041130000000  0.5082050000000  0.4730850000000 1.0
C      1  0.4626250000000  0.5798570000000  0.5535810000000 1.0
C      1  0.5096510000000  0.5468000000000  0.3958120000000 1.0
C      1  0.4004680000000  0.5309110000000  0.5001700000000 1.0
C      1  0.4591670000000  0.4062280000000  0.4765440000000 1.0
C      1  0.5829420000000  0.5511660000000  0.4477080000000 1.0
C      1  0.5548780000000  0.5869900000000  0.5201410000000 1.0
C      1  0.4235920000000  0.4604420000000  0.4387180000000 1.0
C      1  0.6441190000000  0.5144470000000  0.5766010000000 1.0
C      1  0.5493600000000  0.5156060000000  0.5934530000000 1.0
C      1  0.4684250000000  0.4785160000000  0.5302910000000 1.0
C      1  0.5729610000000  0.5508590000000  0.4951810000000 1.0
C      1  0.4431960000000  0.4446400000000  0.5507330000000 1.0
C      1  0.4004480000000  0.4607890000000  0.4841210000000 1.0
C      1  0.5352580000000  0.4275710000000  0.4846080000000 1.0
C      1  0.5096230000000  0.5986040000000  0.4496770000000 1.0
C      1  0.4047160000000  0.5170870000000  0.5256250000000 1.0
C      1  0.4204320000000  0.4406690000000  0.4964630000000 1.0
C      1  0.5550890000000  0.4454680000000  0.5300830000000 1.0
C      1  0.3921710000000  0.5099600000000  0.4810840000000 1.0
C      1  0.5012200000000  0.3966150000000  0.5306330000000 1.0
C      1  0.4499520000000  0.5328160000000  0.5487850000000 1.0
C      1  0.4423570000000  0.4902800000000  0.5303060000000 1.0
END
