TITL C-3623285-6872-865 33464.7926247989 125000 -882.116084943222 0 0 153 (C1) n - 1
REM
REM in /home/nfs/bkarasulu/CARBON/AIRSS/Generating-Clusters/LCBOP/Higher-Symm/SD-CG/FIRE-CG
REM
REM
REM
REM
REM
REM ./C.cell (b20cbc046b6831c77cfcea5457e17084)
REM AIRSS Version 0.9.1 bugfix July 2018 build 013d7b7c2542+ Fri, 06 Jul 2018 19:26:36 +0100
REM compiler GCC version 9.2.1 20190827 (Red Hat 9.2.1-1)
REM options -cpp -mtune=generic -march=x86-64 -g -O0 -fpre-include=/usr/include/finclude/math-vector-fortran.h
REM seed -1302704946 -2039459178 864751288 -354722759 1407612135 640366511 -1352784655 1482688321 -1425381684 1449500721 -952249883 599396541 1242595492 1178949343 -557780650 -1756001758 2079351250 -731550029 -1030123273 383349683 -1395605937 -2086983159 -1561846210 1521286892 -345857135 -1054287486 864145862 -980844610 -1566319496 323096474 1165536407 -1935316686 -1089667697
REM
CELL 1.54180   50.00000   50.00000   50.00000   90.00000   90.00000   90.00000
LATT -1
SFAC C  
C      1  0.4203340000000  0.4886800000000  0.4147030000000 1.0
C      1  0.4937150000000  0.4314230000000  0.4228680000000 1.0
C      1  0.5824900000000  0.4528010000000  0.4307330000000 1.0
C      1  0.5492040000000  0.5535580000000  0.4222340000000 1.0
C      1  0.4588690000000  0.5665320000000  0.4163630000000 1.0
C      1  0.4254230000000  0.4844940000000  0.5854970000000 1.0
C      1  0.4931540000000  0.4269110000000  0.5888730000000 1.0
C      1  0.5750240000000  0.4699600000000  0.5924870000000 1.0
C      1  0.5441010000000  0.5551970000000  0.5878330000000 1.0
C      1  0.4564430000000  0.5691490000000  0.5892840000000 1.0
C      1  0.5448500000000  0.4759960000000  0.6005440000000 1.0
C      1  0.5283190000000  0.5308860000000  0.6024760000000 1.0
C      1  0.4762330000000  0.5472750000000  0.6038220000000 1.0
C      1  0.4517740000000  0.4997060000000  0.5988740000000 1.0
C      1  0.4896290000000  0.4571800000000  0.6008260000000 1.0
C      1  0.5321790000000  0.4784870000000  0.3890490000000 1.0
C      1  0.5337070000000  0.5279670000000  0.4023200000000 1.0
C      1  0.4805990000000  0.5436770000000  0.4021160000000 1.0
C      1  0.4477300000000  0.5005340000000  0.4022040000000 1.0
C      1  0.4857720000000  0.4639300000000  0.4034470000000 1.0
C      1  0.4438720000000  0.4464690000000  0.5655280000000 1.0
C      1  0.5345130000000  0.4251970000000  0.5637900000000 1.0
C      1  0.5818700000000  0.5101380000000  0.5683110000000 1.0
C      1  0.5092990000000  0.5777340000000  0.5676480000000 1.0
C      1  0.4265980000000  0.5426970000000  0.5623740000000 1.0
C      1  0.4400250000000  0.4505800000000  0.4332900000000 1.0
C      1  0.5277700000000  0.3928320000000  0.4201490000000 1.0
C      1  0.5841680000000  0.5041830000000  0.4280010000000 1.0
C      1  0.5122440000000  0.5798140000000  0.4324660000000 1.0
C      1  0.4284380000000  0.5385910000000  0.4402190000000 1.0
C      1  0.5405030000000  0.5784460000000  0.4337090000000 1.0
C      1  0.4401770000000  0.5649950000000  0.4388350000000 1.0
C      1  0.4172490000000  0.4681020000000  0.4363820000000 1.0
C      1  0.5102440000000  0.4096920000000  0.4327630000000 1.0
C      1  0.5911690000000  0.4772040000000  0.4234380000000 1.0
C      1  0.5380850000000  0.5756600000000  0.5661900000000 1.0
C      1  0.4388930000000  0.5687590000000  0.5649210000000 1.0
C      1  0.4204300000000  0.4638080000000  0.5636380000000 1.0
C      1  0.5076490000000  0.4141780000000  0.5657580000000 1.0
C      1  0.5907130000000  0.4828250000000  0.5708760000000 1.0
C      1  0.4098970000000  0.4662390000000  0.5338030000000 1.0
C      1  0.4976850000000  0.4043690000000  0.5382930000000 1.0
C      1  0.5984640000000  0.4761000000000  0.5422300000000 1.0
C      1  0.5473850000000  0.5788240000000  0.5369820000000 1.0
C      1  0.4409260000000  0.5772310000000  0.5354590000000 1.0
C      1  0.4086850000000  0.4692070000000  0.4657790000000 1.0
C      1  0.5070520000000  0.4080790000000  0.4686640000000 1.0
C      1  0.5746660000000  0.4803930000000  0.4814860000000 1.0
C      1  0.5508190000000  0.5807010000000  0.4677480000000 1.0
C      1  0.4414830000000  0.5748660000000  0.4679200000000 1.0
C      1  0.5179360000000  0.4693210000000  0.5080400000000 1.0
C      1  0.5299480000000  0.4964920000000  0.5129750000000 1.0
C      1  0.5112840000000  0.5179920000000  0.5213910000000 1.0
C      1  0.4831860000000  0.5142660000000  0.5129780000000 1.0
C      1  0.4730620000000  0.4867070000000  0.5146540000000 1.0
C      1  0.5040460000000  0.4699890000000  0.4818800000000 1.0
C      1  0.5330190000000  0.5061680000000  0.4843900000000 1.0
C      1  0.5264460000000  0.5348910000000  0.4879490000000 1.0
C      1  0.4853640000000  0.5162140000000  0.4832860000000 1.0
C      1  0.4756910000000  0.4717240000000  0.4912670000000 1.0
C      1  0.4539670000000  0.4254460000000  0.4850350000000 1.0
C      1  0.5579980000000  0.4299350000000  0.4937620000000 1.0
C      1  0.5828780000000  0.5376830000000  0.4890820000000 1.0
C      1  0.4912470000000  0.5949620000000  0.4876050000000 1.0
C      1  0.4080080000000  0.5228520000000  0.4878130000000 1.0
C      1  0.4518860000000  0.4241220000000  0.5127360000000 1.0
C      1  0.5777000000000  0.4303510000000  0.5154750000000 1.0
C      1  0.5839800000000  0.5405660000000  0.5161410000000 1.0
C      1  0.4908700000000  0.5953360000000  0.5149370000000 1.0
C      1  0.4073560000000  0.5225380000000  0.5152570000000 1.0
C      1  0.5824720000000  0.4536190000000  0.5318610000000 1.0
C      1  0.5636550000000  0.5544840000000  0.5314470000000 1.0
C      1  0.4696060000000  0.5815080000000  0.5282340000000 1.0
C      1  0.4117330000000  0.4960520000000  0.5285230000000 1.0
C      1  0.4751960000000  0.4210140000000  0.5290440000000 1.0
C      1  0.5663890000000  0.4520220000000  0.4761230000000 1.0
C      1  0.5695210000000  0.5546760000000  0.4694010000000 1.0
C      1  0.4703070000000  0.5808440000000  0.4737100000000 1.0
C      1  0.4134130000000  0.4972130000000  0.4749710000000 1.0
C      1  0.4796570000000  0.4214210000000  0.4705930000000 1.0
C      1  0.4570190000000  0.5246460000000  0.6176830000000 1.0
C      1  0.4668070000000  0.4740310000000  0.6144700000000 1.0
C      1  0.5194980000000  0.4622530000000  0.6153770000000 1.0
C      1  0.5444640000000  0.5062250000000  0.6122300000000 1.0
C      1  0.5046080000000  0.5472710000000  0.6185110000000 1.0
C      1  0.4587460000000  0.5253300000000  0.3870430000000 1.0
C      1  0.4603190000000  0.4744980000000  0.3892590000000 1.0
C      1  0.5078330000000  0.4652420000000  0.3839220000000 1.0
C      1  0.5388630000000  0.5058960000000  0.3798650000000 1.0
C      1  0.5082410000000  0.5442760000000  0.3885040000000 1.0
C      1  0.4794290000000  0.5562450000000  0.5355520000000 1.0
C      1  0.4372600000000  0.4995800000000  0.5399020000000 1.0
C      1  0.4855030000000  0.4461750000000  0.5368100000000 1.0
C      1  0.5565650000000  0.4640210000000  0.5366910000000 1.0
C      1  0.5476580000000  0.5353480000000  0.5453730000000 1.0
C      1  0.4812930000000  0.5571890000000  0.4634470000000 1.0
C      1  0.4409260000000  0.4982400000000  0.4688230000000 1.0
C      1  0.4848390000000  0.4420430000000  0.4492340000000 1.0
C      1  0.5609710000000  0.4478540000000  0.4483420000000 1.0
C      1  0.5543720000000  0.5388310000000  0.4481030000000 1.0
C      1  0.4575630000000  0.4759710000000  0.4708080000000 1.0
C      1  0.5120660000000  0.4542610000000  0.4580080000000 1.0
C      1  0.5557130000000  0.4974080000000  0.4690350000000 1.0
C      1  0.5258730000000  0.5432120000000  0.4615350000000 1.0
C      1  0.4690730000000  0.5328990000000  0.4683620000000 1.0
C      1  0.4574320000000  0.4812750000000  0.5363510000000 1.0
C      1  0.5119170000000  0.4543540000000  0.5313270000000 1.0
C      1  0.5520550000000  0.4914980000000  0.5318170000000 1.0
C      1  0.5198570000000  0.5357590000000  0.5419970000000 1.0
C      1  0.4659880000000  0.5328270000000  0.5287630000000 1.0
C      1  0.4680230000000  0.4613730000000  0.5549750000000 1.0
C      1  0.5344000000000  0.4526030000000  0.5521720000000 1.0
C      1  0.5602290000000  0.5114950000000  0.5501500000000 1.0
C      1  0.4983810000000  0.5519530000000  0.5570200000000 1.0
C      1  0.4465220000000  0.5240070000000  0.5506900000000 1.0
C      1  0.4647750000000  0.4624870000000  0.4458670000000 1.0
C      1  0.5351370000000  0.4565740000000  0.4396050000000 1.0
C      1  0.5587060000000  0.5103340000000  0.4428020000000 1.0
C      1  0.5029880000000  0.5535110000000  0.4446330000000 1.0
C      1  0.4489490000000  0.5191070000000  0.4504960000000 1.0
C      1  0.5973440000000  0.5035640000000  0.5208870000000 1.0
C      1  0.5288290000000  0.5888770000000  0.5159930000000 1.0
C      1  0.4243480000000  0.5584400000000  0.5154570000000 1.0
C      1  0.4216810000000  0.4472380000000  0.5131060000000 1.0
C      1  0.5175960000000  0.4008460000000  0.5169740000000 1.0
C      1  0.5916730000000  0.4999010000000  0.4947170000000 1.0
C      1  0.5301790000000  0.5890090000000  0.4878990000000 1.0
C      1  0.4250810000000  0.5578220000000  0.4878760000000 1.0
C      1  0.4214380000000  0.4482320000000  0.4848860000000 1.0
C      1  0.5277650000000  0.4113610000000  0.4914360000000 1.0
C      1  0.4966190000000  0.6000870000000  0.5765020000000 1.0
C      1  0.4015310000000  0.5369250000000  0.5713130000000 1.0
C      1  0.4422260000000  0.4211300000000  0.5753750000000 1.0
C      1  0.5568240000000  0.4119910000000  0.5722650000000 1.0
C      1  0.5946020000000  0.5307520000000  0.5806900000000 1.0
C      1  0.4980840000000  0.6010790000000  0.4235060000000 1.0
C      1  0.4026360000000  0.5341130000000  0.4326630000000 1.0
C      1  0.4380260000000  0.4260920000000  0.4214290000000 1.0
C      1  0.5473060000000  0.3795770000000  0.4091090000000 1.0
C      1  0.6007180000000  0.5243240000000  0.4194980000000 1.0
C      1  0.4822030000000  0.4827480000000  0.4297650000000 1.0
C      1  0.5367420000000  0.4756260000000  0.4175910000000 1.0
C      1  0.5326490000000  0.5042400000000  0.4272340000000 1.0
C      1  0.4903890000000  0.5313500000000  0.4274420000000 1.0
C      1  0.4627050000000  0.5061280000000  0.4281350000000 1.0
C      1  0.4876750000000  0.4720840000000  0.5742750000000 1.0
C      1  0.5323860000000  0.4745720000000  0.5728450000000 1.0
C      1  0.5096600000000  0.5158090000000  0.5830180000000 1.0
C      1  0.4863140000000  0.5328270000000  0.5777220000000 1.0
C      1  0.4632660000000  0.5142870000000  0.5731540000000 1.0
C      1  0.5090310000000  0.4902180000000  0.5719300000000 1.0
C      1  0.5060390000000  0.5013000000000  0.4399440000000 1.0
C      1  0.5068550000000  0.4985060000000  0.4702160000000 1.0
END
