TITL C-3623286-7563-165 4.01216467855167e-08 125000 -123.579925861292 0 0 20 (Ih) n - 1
REM
REM in /home/nfs/bkarasulu/CARBON/AIRSS/Generating-Clusters/LCBOP/Higher-Symm/SD-CG/FIRE-CG
REM
REM
REM
REM
REM
REM ./C.cell (b20cbc046b6831c77cfcea5457e17084)
REM AIRSS Version 0.9.1 bugfix July 2018 build 013d7b7c2542+ Fri, 06 Jul 2018 19:26:36 +0100
REM compiler GCC version 9.2.1 20190827 (Red Hat 9.2.1-1)
REM options -cpp -mtune=generic -march=x86-64 -g -O0 -fpre-include=/usr/include/finclude/math-vector-fortran.h
REM seed -1949063609 367621564 -1163922221 -227397709 1808519539 1834339227 -1635386967 460673514 -1266869758 1107623675 257102044 -1408474045 -1363780432 -107002587 594565876 1284981563 -135923860 -35255666 1592485877 1777998499 -1985714170 1322222711 1217806012 137306645 1492836233 1769722975 -588520801 805543336 -158405798 1237735243 2139056931 1429515863 -359107815
REM
CELL 1.54180   50.00000   50.00000   50.00000   90.00000   90.00000   90.00000
LATT -1
SFAC C  
C      1  0.4823540000000  0.5138740000000  0.4674260000000 1.0
C      1  0.5215910000000  0.4861260000000  0.4679890000000 1.0
C      1  0.5407220000000  0.5138740000000  0.5022510000000 1.0
C      1  0.5206150000000  0.4861260000000  0.5359500000000 1.0
C      1  0.4813780000000  0.5138740000000  0.5353860000000 1.0
C      1  0.4622480000000  0.4861260000000  0.5011240000000 1.0
C      1  0.5118400000000  0.5138740000000  0.4638380000000 1.0
C      1  0.5394410000000  0.4861260000000  0.4917300000000 1.0
C      1  0.5290860000000  0.5138740000000  0.5295800000000 1.0
C      1  0.4911300000000  0.4861260000000  0.5395380000000 1.0
C      1  0.4635280000000  0.5138740000000  0.5116450000000 1.0
C      1  0.4738830000000  0.4861260000000  0.4737950000000 1.0
C      1  0.5048370000000  0.5310230000000  0.5292320000000 1.0
C      1  0.4793070000000  0.4689770000000  0.5183630000000 1.0
C      1  0.4759550000000  0.5310230000000  0.4908180000000 1.0
C      1  0.4981330000000  0.4689770000000  0.4741430000000 1.0
C      1  0.5236630000000  0.5310230000000  0.4850130000000 1.0
C      1  0.5270150000000  0.4689770000000  0.5125570000000 1.0
C      1  0.5014850000000  0.5416210000000  0.5016880000000 1.0
C      1  0.5014850000000  0.4583790000000  0.5016880000000 1.0
END
