TITL C-3623288-6813-588 3.07628286920088e-06 125000 -527.036074560399 0 0 89 (C1) n - 1
REM
REM in /home/nfs/bkarasulu/CARBON/AIRSS/Generating-Clusters/LCBOP/Higher-Symm/SD-CG/FIRE-CG
REM
REM
REM
REM
REM
REM ./C.cell (b20cbc046b6831c77cfcea5457e17084)
REM AIRSS Version 0.9.1 bugfix July 2018 build 013d7b7c2542+ Fri, 06 Jul 2018 19:26:36 +0100
REM compiler GCC version 9.2.1 20190827 (Red Hat 9.2.1-1)
REM options -cpp -mtune=generic -march=x86-64 -g -O0 -fpre-include=/usr/include/finclude/math-vector-fortran.h
REM seed 1084661813 -2067007682 72468920 -1278305964 1318419946 2084005107 1003144741 1411978629 1933091530 919107641 449940775 -631400613 -2048231169 740230888 1636145606 1499105085 -64464472 -1067155586 1715600496 491142812 -137958140 -867794996 -2059939546 -218135474 -901996825 -1174713349 -1204749965 40930103 -1874044001 1502606089 -1472665843 -851682010 1892413055
REM
CELL 1.54180   50.00000   50.00000   50.00000   90.00000   90.00000   90.00000
LATT -1
SFAC C  
C      1  0.5240420000000  0.5626840000000  0.5715490000000 1.0
C      1  0.4849780000000  0.4251900000000  0.5666860000000 1.0
C      1  0.5478230000000  0.4864080000000  0.5456170000000 1.0
C      1  0.4578700000000  0.4869800000000  0.5210100000000 1.0
C      1  0.5818760000000  0.4592700000000  0.4825290000000 1.0
C      1  0.4465030000000  0.5885760000000  0.5262000000000 1.0
C      1  0.4316450000000  0.4731120000000  0.5163780000000 1.0
C      1  0.5819830000000  0.5375440000000  0.5113700000000 1.0
C      1  0.5852670000000  0.5307660000000  0.4828440000000 1.0
C      1  0.4082980000000  0.4571300000000  0.4595340000000 1.0
C      1  0.4307360000000  0.5039480000000  0.4810010000000 1.0
C      1  0.5527640000000  0.4852370000000  0.5165810000000 1.0
C      1  0.4854160000000  0.4659110000000  0.4835940000000 1.0
C      1  0.5025640000000  0.5258910000000  0.4807780000000 1.0
C      1  0.5947160000000  0.5565430000000  0.5769840000000 1.0
C      1  0.4354170000000  0.4545320000000  0.5905500000000 1.0
C      1  0.5264660000000  0.5377290000000  0.5833960000000 1.0
C      1  0.5089440000000  0.4339260000000  0.5749450000000 1.0
C      1  0.5263360000000  0.5122070000000  0.4881000000000 1.0
C      1  0.4713040000000  0.4864770000000  0.4660700000000 1.0
C      1  0.4762540000000  0.5253870000000  0.4915740000000 1.0
C      1  0.5063510000000  0.4777830000000  0.5276860000000 1.0
C      1  0.4562450000000  0.5256720000000  0.4361360000000 1.0
C      1  0.5439710000000  0.4840500000000  0.4489580000000 1.0
C      1  0.5349710000000  0.5284230000000  0.4184330000000 1.0
C      1  0.4483790000000  0.4510030000000  0.4346830000000 1.0
C      1  0.5609620000000  0.5601550000000  0.5091820000000 1.0
C      1  0.4419670000000  0.4446570000000  0.5082930000000 1.0
C      1  0.5735570000000  0.4831180000000  0.4956210000000 1.0
C      1  0.4122790000000  0.5061970000000  0.4593730000000 1.0
C      1  0.5055880000000  0.5301720000000  0.4528420000000 1.0
C      1  0.5149240000000  0.4694270000000  0.4838110000000 1.0
C      1  0.5220680000000  0.4743170000000  0.5514550000000 1.0
C      1  0.4609170000000  0.5413880000000  0.5081970000000 1.0
C      1  0.4760190000000  0.4465750000000  0.4366770000000 1.0
C      1  0.5273100000000  0.5463090000000  0.4421220000000 1.0
C      1  0.5290720000000  0.5676930000000  0.4636960000000 1.0
C      1  0.4800530000000  0.4380180000000  0.4726370000000 1.0
C      1  0.4800570000000  0.5702560000000  0.4515000000000 1.0
C      1  0.5224050000000  0.4405580000000  0.4464450000000 1.0
C      1  0.4597460000000  0.5047510000000  0.5430360000000 1.0
C      1  0.5577770000000  0.5032750000000  0.5656260000000 1.0
C      1  0.4542130000000  0.5315330000000  0.5355550000000 1.0
C      1  0.5193330000000  0.4600190000000  0.5756670000000 1.0
C      1  0.5469540000000  0.5055200000000  0.4673790000000 1.0
C      1  0.4321560000000  0.4736280000000  0.4249880000000 1.0
C      1  0.5961240000000  0.4890490000000  0.5347440000000 1.0
C      1  0.4086660000000  0.5174720000000  0.5343370000000 1.0
C      1  0.5011110000000  0.5781870000000  0.4703790000000 1.0
C      1  0.5105260000000  0.4275770000000  0.4711770000000 1.0
C      1  0.5026020000000  0.4521640000000  0.4279790000000 1.0
C      1  0.4632330000000  0.5519530000000  0.4403340000000 1.0
C      1  0.4591770000000  0.4896190000000  0.5669910000000 1.0
C      1  0.5532970000000  0.5273830000000  0.5788320000000 1.0
C      1  0.4106900000000  0.4912150000000  0.5253050000000 1.0
C      1  0.5922080000000  0.5161540000000  0.5287330000000 1.0
C      1  0.4257480000000  0.5408950000000  0.5384320000000 1.0
C      1  0.5880960000000  0.4620850000000  0.5342050000000 1.0
C      1  0.5685850000000  0.5514560000000  0.5716360000000 1.0
C      1  0.4532350000000  0.4617910000000  0.5709880000000 1.0
C      1  0.5703670000000  0.4466380000000  0.4614820000000 1.0
C      1  0.4704240000000  0.5935760000000  0.5131920000000 1.0
C      1  0.5247050000000  0.4875460000000  0.5048650000000 1.0
C      1  0.4583730000000  0.5050910000000  0.4825490000000 1.0
C      1  0.5533760000000  0.5657610000000  0.4802210000000 1.0
C      1  0.4492820000000  0.4353590000000  0.4809290000000 1.0
C      1  0.5467800000000  0.4555330000000  0.4487630000000 1.0
C      1  0.4067570000000  0.5342870000000  0.4588290000000 1.0
C      1  0.4974570000000  0.5101060000000  0.4349870000000 1.0
C      1  0.4717940000000  0.5011950000000  0.4407380000000 1.0
C      1  0.4653530000000  0.4411710000000  0.5544380000000 1.0
C      1  0.5491650000000  0.5698200000000  0.5589290000000 1.0
C      1  0.5760550000000  0.5527440000000  0.4669200000000 1.0
C      1  0.4325750000000  0.4414300000000  0.4584600000000 1.0
C      1  0.5734990000000  0.5059580000000  0.4781000000000 1.0
C      1  0.4111190000000  0.4820940000000  0.4441470000000 1.0
C      1  0.4198330000000  0.5522070000000  0.4749090000000 1.0
C      1  0.5494360000000  0.4300780000000  0.5120660000000 1.0
C      1  0.4272630000000  0.5668330000000  0.5227150000000 1.0
C      1  0.5703520000000  0.4418670000000  0.5262060000000 1.0
C      1  0.5175000000000  0.5034790000000  0.4155680000000 1.0
C      1  0.5128190000000  0.4746220000000  0.4115670000000 1.0
C      1  0.4660690000000  0.4430760000000  0.5259390000000 1.0
C      1  0.5522470000000  0.5743710000000  0.5316080000000 1.0
C      1  0.4370980000000  0.5554950000000  0.4970760000000 1.0
C      1  0.4804220000000  0.4682150000000  0.5153010000000 1.0
C      1  0.5290470000000  0.4240820000000  0.4941840000000 1.0
C      1  0.4904230000000  0.5891150000000  0.4949940000000 1.0
C      1  0.5252170000000  0.4714230000000  0.5998320000000 1.0
END
