TITL C-3623286-7563-1071 0.00469396844871756 125000 -718.573522218028 0 0 119 (C1) n - 1
REM
REM in /home/nfs/bkarasulu/CARBON/AIRSS/Generating-Clusters/LCBOP/Higher-Symm/SD-CG/FIRE-CG
REM
REM
REM
REM
REM
REM ./C.cell (b20cbc046b6831c77cfcea5457e17084)
REM AIRSS Version 0.9.1 bugfix July 2018 build 013d7b7c2542+ Fri, 06 Jul 2018 19:26:36 +0100
REM compiler GCC version 9.2.1 20190827 (Red Hat 9.2.1-1)
REM options -cpp -mtune=generic -march=x86-64 -g -O0 -fpre-include=/usr/include/finclude/math-vector-fortran.h
REM seed -683168942 1538599440 -332064661 -1993275595 375964068 1491287826 -1240396308 286571684 633782958 -89141611 -477854909 -1576440274 -554692739 -1683110082 1430902150 -449897619 580080191 636383166 -1710322076 -1204093030 -689441767 -1665209204 -407721954 515477120 -968687193 -1081093305 128312244 -1808755616 -1906469339 480116457 -1290504847 -1687915544 46036256
REM
CELL 1.54180   50.00000   50.00000   50.00000   90.00000   90.00000   90.00000
LATT -1
SFAC C  
C      1  0.4063230000000  0.5473100000000  0.5315490000000 1.0
C      1  0.5217700000000  0.4651660000000  0.5074040000000 1.0
C      1  0.4529380000000  0.5183990000000  0.5266710000000 1.0
C      1  0.5064910000000  0.4759420000000  0.5940380000000 1.0
C      1  0.5242400000000  0.5926230000000  0.5542310000000 1.0
C      1  0.4306970000000  0.4598610000000  0.5601260000000 1.0
C      1  0.5410570000000  0.5771420000000  0.4677210000000 1.0
C      1  0.5232900000000  0.5548570000000  0.4704460000000 1.0
C      1  0.4998330000000  0.4216530000000  0.6019900000000 1.0
C      1  0.5314020000000  0.4816020000000  0.4092660000000 1.0
C      1  0.3919780000000  0.5295350000000  0.5144940000000 1.0
C      1  0.5779810000000  0.4293630000000  0.4685230000000 1.0
C      1  0.4134160000000  0.4334520000000  0.5229000000000 1.0
C      1  0.4603000000000  0.5368710000000  0.5052950000000 1.0
C      1  0.6027630000000  0.4896030000000  0.4320700000000 1.0
C      1  0.4767560000000  0.4525650000000  0.5133480000000 1.0
C      1  0.5219960000000  0.5072480000000  0.5298200000000 1.0
C      1  0.4675020000000  0.5546900000000  0.4206250000000 1.0
C      1  0.5150520000000  0.4748000000000  0.4618520000000 1.0
C      1  0.5253470000000  0.4206680000000  0.4523610000000 1.0
C      1  0.4601120000000  0.4737630000000  0.5164530000000 1.0
C      1  0.5429980000000  0.5273450000000  0.4285380000000 1.0
C      1  0.5123930000000  0.4052090000000  0.5002570000000 1.0
C      1  0.5491730000000  0.4185140000000  0.4108480000000 1.0
C      1  0.5227240000000  0.4939690000000  0.5544160000000 1.0
C      1  0.4950560000000  0.4458300000000  0.5582890000000 1.0
C      1  0.4124320000000  0.5345680000000  0.4694570000000 1.0
C      1  0.5189270000000  0.4558300000000  0.4137370000000 1.0
C      1  0.5439390000000  0.5054810000000  0.5710840000000 1.0
C      1  0.5635890000000  0.4703660000000  0.4467180000000 1.0
C      1  0.5527830000000  0.5023020000000  0.4790870000000 1.0
C      1  0.5231660000000  0.5362420000000  0.4474610000000 1.0
C      1  0.4327380000000  0.5563600000000  0.5370090000000 1.0
C      1  0.6081230000000  0.4712340000000  0.4543190000000 1.0
C      1  0.5318860000000  0.4140690000000  0.4800380000000 1.0
C      1  0.5431310000000  0.4479260000000  0.5541490000000 1.0
C      1  0.4870110000000  0.4267010000000  0.5784640000000 1.0
C      1  0.5168080000000  0.6200280000000  0.4512670000000 1.0
C      1  0.4708050000000  0.4472040000000  0.3897180000000 1.0
C      1  0.5708020000000  0.5190210000000  0.4878830000000 1.0
C      1  0.5732690000000  0.6047890000000  0.5479920000000 1.0
C      1  0.6211850000000  0.4785680000000  0.4780950000000 1.0
C      1  0.5582070000000  0.4238260000000  0.4881550000000 1.0
C      1  0.4178220000000  0.4395670000000  0.4954770000000 1.0
C      1  0.4034050000000  0.5176600000000  0.4905910000000 1.0
C      1  0.5651100000000  0.5787050000000  0.4818650000000 1.0
C      1  0.4473080000000  0.5623950000000  0.5117060000000 1.0
C      1  0.5400910000000  0.4507440000000  0.5253620000000 1.0
C      1  0.5140260000000  0.5919960000000  0.5272200000000 1.0
C      1  0.5813990000000  0.5871020000000  0.5011230000000 1.0
C      1  0.5115520000000  0.4925750000000  0.5088570000000 1.0
C      1  0.5375850000000  0.5294070000000  0.5263380000000 1.0
C      1  0.4456950000000  0.5550920000000  0.4379950000000 1.0
C      1  0.5003890000000  0.5199190000000  0.4454830000000 1.0
C      1  0.4432530000000  0.4927140000000  0.5267770000000 1.0
C      1  0.4568270000000  0.4606560000000  0.4512080000000 1.0
C      1  0.5743950000000  0.4896640000000  0.4269830000000 1.0
C      1  0.4498450000000  0.4126630000000  0.5471100000000 1.0
C      1  0.4300190000000  0.5786900000000  0.4394200000000 1.0
C      1  0.5051740000000  0.5655860000000  0.5205710000000 1.0
C      1  0.4025550000000  0.4898160000000  0.4863530000000 1.0
C      1  0.4509390000000  0.5363680000000  0.5494870000000 1.0
C      1  0.4646950000000  0.4110400000000  0.5710690000000 1.0
C      1  0.5847920000000  0.4536230000000  0.4566000000000 1.0
C      1  0.3972790000000  0.5584160000000  0.4654730000000 1.0
C      1  0.5452880000000  0.4501940000000  0.5813590000000 1.0
C      1  0.5704600000000  0.5021660000000  0.5615530000000 1.0
C      1  0.4491130000000  0.5873640000000  0.4999430000000 1.0
C      1  0.5887310000000  0.4910990000000  0.5451080000000 1.0
C      1  0.5307800000000  0.4322000000000  0.4263550000000 1.0
C      1  0.5331370000000  0.4653830000000  0.6026300000000 1.0
C      1  0.4755900000000  0.5366330000000  0.5646520000000 1.0
C      1  0.5869360000000  0.4489410000000  0.5205090000000 1.0
C      1  0.4443020000000  0.5061590000000  0.4411210000000 1.0
C      1  0.4298560000000  0.4338880000000  0.5462130000000 1.0
C      1  0.4921030000000  0.4099100000000  0.5206740000000 1.0
C      1  0.4909950000000  0.4370020000000  0.5319200000000 1.0
C      1  0.4620840000000  0.6096470000000  0.4933910000000 1.0
C      1  0.5043330000000  0.5058560000000  0.5972240000000 1.0
C      1  0.3659340000000  0.5234900000000  0.5208600000000 1.0
C      1  0.5053510000000  0.5526440000000  0.4945420000000 1.0
C      1  0.5621380000000  0.4386510000000  0.5120420000000 1.0
C      1  0.4230080000000  0.4817870000000  0.5429500000000 1.0
C      1  0.4488700000000  0.4025630000000  0.4981270000000 1.0
C      1  0.5339290000000  0.5116920000000  0.5978550000000 1.0
C      1  0.4940420000000  0.5055150000000  0.4896790000000 1.0
C      1  0.4401380000000  0.4256420000000  0.4835520000000 1.0
C      1  0.4875980000000  0.6211040000000  0.4919970000000 1.0
C      1  0.4840770000000  0.5577690000000  0.4007320000000 1.0
C      1  0.5429670000000  0.4820110000000  0.4621350000000 1.0
C      1  0.4932790000000  0.4523910000000  0.4027540000000 1.0
C      1  0.4633410000000  0.4021160000000  0.5227240000000 1.0
C      1  0.5330630000000  0.5988450000000  0.4518080000000 1.0
C      1  0.4455650000000  0.4716700000000  0.5816930000000 1.0
C      1  0.4484550000000  0.4417480000000  0.3774600000000 1.0
C      1  0.4924120000000  0.4957480000000  0.4605260000000 1.0
C      1  0.5048650000000  0.4719490000000  0.5650390000000 1.0
C      1  0.4981670000000  0.6301220000000  0.4676450000000 1.0
C      1  0.5114080000000  0.5718910000000  0.5691470000000 1.0
C      1  0.5055940000000  0.6140630000000  0.5124970000000 1.0
C      1  0.4060660000000  0.5800290000000  0.4518460000000 1.0
C      1  0.6214640000000  0.5039520000000  0.4185710000000 1.0
C      1  0.6169130000000  0.4820330000000  0.5044130000000 1.0
C      1  0.5507050000000  0.5020530000000  0.4166630000000 1.0
C      1  0.4961640000000  0.5536060000000  0.5535430000000 1.0
C      1  0.5094910000000  0.4557190000000  0.4823480000000 1.0
C      1  0.5853280000000  0.5976040000000  0.5252870000000 1.0
C      1  0.4070380000000  0.4635160000000  0.4855470000000 1.0
C      1  0.5452300000000  0.4894050000000  0.6143070000000 1.0
C      1  0.4582980000000  0.4952050000000  0.5871720000000 1.0
C      1  0.5492150000000  0.6036730000000  0.5596030000000 1.0
C      1  0.4642520000000  0.4880550000000  0.4513780000000 1.0
C      1  0.5990490000000  0.4741850000000  0.5248010000000 1.0
C      1  0.4356380000000  0.5313470000000  0.4517690000000 1.0
C      1  0.4833620000000  0.4461570000000  0.4864390000000 1.0
C      1  0.4852680000000  0.5322470000000  0.4935530000000 1.0
C      1  0.4794350000000  0.5152930000000  0.5850480000000 1.0
C      1  0.4319050000000  0.4983340000000  0.4176630000000 1.0
C      1  0.4607230000000  0.4408450000000  0.4704010000000 1.0
END
