TITL C-3623283-6828-1930 132976.2484963 125000 -906.232368281688 0 0 152 (C1) n - 1
REM
REM in /home/nfs/bkarasulu/CARBON/AIRSS/Generating-Clusters/LCBOP/Higher-Symm/SD-CG/FIRE-CG
REM
REM
REM
REM
REM
REM ./C.cell (b20cbc046b6831c77cfcea5457e17084)
REM AIRSS Version 0.9.1 bugfix July 2018 build 013d7b7c2542+ Fri, 06 Jul 2018 19:26:36 +0100
REM compiler GCC version 9.2.1 20190827 (Red Hat 9.2.1-1)
REM options -cpp -mtune=generic -march=x86-64 -g -O0 -fpre-include=/usr/include/finclude/math-vector-fortran.h
REM seed -821942732 -1270126340 828986795 854111281 1176777884 1664441923 -2085984524 2134887982 -150605232 660466581 2077629653 1159161395 -1254621167 -2005484695 -537876454 -2115658302 1603659318 1844597791 -796392635 978206493 -608610892 -1430358035 -1587031903 1717979231 -790233011 166644913 135236110 -1968190464 714996771 1119517911 -1649241676 768706712 93299723
REM
CELL 1.54180   50.00000   50.00000   50.00000   90.00000   90.00000   90.00000
LATT -1
SFAC C  
C      1  0.4890390000000  0.6092720000000  0.5152740000000 1.0
C      1  0.3923430000000  0.4887640000000  0.5167050000000 1.0
C      1  0.5124870000000  0.3920160000000  0.5169890000000 1.0
C      1  0.6080030000000  0.5121200000000  0.5171190000000 1.0
C      1  0.5023170000000  0.5256710000000  0.6164060000000 1.0
C      1  0.4775790000000  0.5000460000000  0.6145220000000 1.0
C      1  0.4986420000000  0.4767100000000  0.6164980000000 1.0
C      1  0.5232330000000  0.4956230000000  0.6165100000000 1.0
C      1  0.4511230000000  0.5434240000000  0.5861080000000 1.0
C      1  0.4552920000000  0.4465200000000  0.5879130000000 1.0
C      1  0.5444250000000  0.4558410000000  0.5789620000000 1.0
C      1  0.5426520000000  0.5450780000000  0.5805460000000 1.0
C      1  0.5907050000000  0.5548720000000  0.5307480000000 1.0
C      1  0.4462630000000  0.5926710000000  0.5297030000000 1.0
C      1  0.4092120000000  0.4458990000000  0.5306560000000 1.0
C      1  0.5553630000000  0.4091600000000  0.5305970000000 1.0
C      1  0.5352450000000  0.5180600000000  0.5790040000000 1.0
C      1  0.4785370000000  0.5438340000000  0.5816810000000 1.0
C      1  0.4570640000000  0.4736940000000  0.5811180000000 1.0
C      1  0.5170230000000  0.4614140000000  0.5783660000000 1.0
C      1  0.5462200000000  0.4491550000000  0.5004840000000 1.0
C      1  0.5510440000000  0.5462930000000  0.5006930000000 1.0
C      1  0.4544250000000  0.5510430000000  0.5017630000000 1.0
C      1  0.4494560000000  0.4540270000000  0.5022190000000 1.0
C      1  0.5909110000000  0.4750090000000  0.4127850000000 1.0
C      1  0.5254240000000  0.5904430000000  0.4131000000000 1.0
C      1  0.4087170000000  0.5244080000000  0.4142650000000 1.0
C      1  0.4751550000000  0.4085160000000  0.4136090000000 1.0
C      1  0.6118950000000  0.5335180000000  0.4954820000000 1.0
C      1  0.4673430000000  0.6129900000000  0.4938090000000 1.0
C      1  0.3882240000000  0.4670950000000  0.4951470000000 1.0
C      1  0.5338840000000  0.3882420000000  0.4952470000000 1.0
C      1  0.4356920000000  0.4765070000000  0.4946360000000 1.0
C      1  0.5236290000000  0.4353400000000  0.4930570000000 1.0
C      1  0.5646870000000  0.5237030000000  0.4930810000000 1.0
C      1  0.4766920000000  0.5649890000000  0.4940110000000 1.0
C      1  0.5979180000000  0.5605210000000  0.5026860000000 1.0
C      1  0.4403440000000  0.5990450000000  0.5015500000000 1.0
C      1  0.4022240000000  0.4399920000000  0.5026000000000 1.0
C      1  0.5608920000000  0.4023380000000  0.5024440000000 1.0
C      1  0.5148110000000  0.5754750000000  0.5550910000000 1.0
C      1  0.4273440000000  0.5139770000000  0.5558830000000 1.0
C      1  0.4869080000000  0.4254870000000  0.5569590000000 1.0
C      1  0.5736700000000  0.4858540000000  0.5559130000000 1.0
C      1  0.5302740000000  0.5649080000000  0.5078240000000 1.0
C      1  0.4362670000000  0.5300260000000  0.5088880000000 1.0
C      1  0.4705690000000  0.4357260000000  0.5089860000000 1.0
C      1  0.5644650000000  0.4702610000000  0.5077580000000 1.0
C      1  0.5168120000000  0.5131370000000  0.4064630000000 1.0
C      1  0.4815330000000  0.5186040000000  0.4053740000000 1.0
C      1  0.4840960000000  0.4840390000000  0.4064340000000 1.0
C      1  0.5138410000000  0.4840740000000  0.4068250000000 1.0
C      1  0.4373410000000  0.5830480000000  0.4411640000000 1.0
C      1  0.4174820000000  0.4370540000000  0.4416420000000 1.0
C      1  0.5630490000000  0.4176010000000  0.4414240000000 1.0
C      1  0.5827480000000  0.5628760000000  0.4412520000000 1.0
C      1  0.5684040000000  0.6045480000000  0.5012190000000 1.0
C      1  0.3970430000000  0.5682020000000  0.5019450000000 1.0
C      1  0.4330140000000  0.3965650000000  0.5022440000000 1.0
C      1  0.6041710000000  0.4329750000000  0.5017410000000 1.0
C      1  0.4336370000000  0.4885580000000  0.5437980000000 1.0
C      1  0.5126220000000  0.4327280000000  0.5453140000000 1.0
C      1  0.5670510000000  0.5119820000000  0.5453200000000 1.0
C      1  0.4888610000000  0.5688690000000  0.5433080000000 1.0
C      1  0.4755390000000  0.5085810000000  0.4568870000000 1.0
C      1  0.4913830000000  0.4755330000000  0.4564420000000 1.0
C      1  0.5245750000000  0.4913880000000  0.4563890000000 1.0
C      1  0.5083980000000  0.5246020000000  0.4566710000000 1.0
C      1  0.5445170000000  0.5845970000000  0.4562730000000 1.0
C      1  0.4161170000000  0.5445720000000  0.4566420000000 1.0
C      1  0.4558510000000  0.4154160000000  0.4565290000000 1.0
C      1  0.5849980000000  0.4559050000000  0.4559590000000 1.0
C      1  0.5260010000000  0.3818360000000  0.4690460000000 1.0
C      1  0.6180810000000  0.5256120000000  0.4692160000000 1.0
C      1  0.4748840000000  0.6193960000000  0.4675460000000 1.0
C      1  0.3818060000000  0.4746920000000  0.4688910000000 1.0
C      1  0.5454060000000  0.4981650000000  0.5969220000000 1.0
C      1  0.5003760000000  0.5497140000000  0.5994910000000 1.0
C      1  0.4540330000000  0.4970950000000  0.5969720000000 1.0
C      1  0.4998980000000  0.4520010000000  0.5995700000000 1.0
C      1  0.5822190000000  0.4186580000000  0.4885090000000 1.0
C      1  0.5820930000000  0.5820050000000  0.4884320000000 1.0
C      1  0.4188670000000  0.5823850000000  0.4883600000000 1.0
C      1  0.4186160000000  0.4184750000000  0.4889440000000 1.0
C      1  0.4647570000000  0.5828580000000  0.4355090000000 1.0
C      1  0.4176620000000  0.4644300000000  0.4358470000000 1.0
C      1  0.5356300000000  0.4176820000000  0.4357960000000 1.0
C      1  0.5823600000000  0.5354350000000  0.4357760000000 1.0
C      1  0.4616400000000  0.4882940000000  0.5360060000000 1.0
C      1  0.5107810000000  0.4576250000000  0.5311670000000 1.0
C      1  0.5421680000000  0.5100500000000  0.5314450000000 1.0
C      1  0.4906220000000  0.5406290000000  0.5353630000000 1.0
C      1  0.4664560000000  0.5066240000000  0.4854250000000 1.0
C      1  0.4929070000000  0.4661380000000  0.4843260000000 1.0
C      1  0.5340130000000  0.4930440000000  0.4840330000000 1.0
C      1  0.5068800000000  0.5341350000000  0.4850160000000 1.0
C      1  0.4753480000000  0.4788080000000  0.5590540000000 1.0
C      1  0.5032170000000  0.4823240000000  0.5644840000000 1.0
C      1  0.5107710000000  0.5095360000000  0.5664260000000 1.0
C      1  0.4901150000000  0.5278660000000  0.5606070000000 1.0
C      1  0.6057840000000  0.5227390000000  0.4454770000000 1.0
C      1  0.4773650000000  0.6067250000000  0.4439800000000 1.0
C      1  0.3940550000000  0.4770830000000  0.4450850000000 1.0
C      1  0.5231270000000  0.3940850000000  0.4452860000000 1.0
C      1  0.3929430000000  0.5189790000000  0.5193760000000 1.0
C      1  0.4823250000000  0.3924610000000  0.5193720000000 1.0
C      1  0.6075360000000  0.4821070000000  0.5190880000000 1.0
C      1  0.5192360000000  0.6086520000000  0.5177000000000 1.0
C      1  0.6166050000000  0.4572430000000  0.5067920000000 1.0
C      1  0.5442400000000  0.6174260000000  0.5055440000000 1.0
C      1  0.3844130000000  0.5440140000000  0.5069510000000 1.0
C      1  0.4572800000000  0.3839200000000  0.5069450000000 1.0
C      1  0.5006360000000  0.4778430000000  0.5112590000000 1.0
C      1  0.5223170000000  0.4994800000000  0.5113040000000 1.0
C      1  0.5003700000000  0.5228560000000  0.5124920000000 1.0
C      1  0.4782440000000  0.4993810000000  0.5126880000000 1.0
C      1  0.5266190000000  0.4684870000000  0.4258210000000 1.0
C      1  0.5311270000000  0.5262570000000  0.4258980000000 1.0
C      1  0.4724360000000  0.5320610000000  0.4269140000000 1.0
C      1  0.4684070000000  0.4728770000000  0.4259520000000 1.0
C      1  0.4386450000000  0.5052890000000  0.4925470000000 1.0
C      1  0.4946720000000  0.4381940000000  0.4914750000000 1.0
C      1  0.5619030000000  0.4948200000000  0.4910160000000 1.0
C      1  0.5054180000000  0.5621040000000  0.4916740000000 1.0
C      1  0.5055110000000  0.5583960000000  0.4423840000000 1.0
C      1  0.4417570000000  0.5050940000000  0.4429070000000 1.0
C      1  0.4946510000000  0.4415510000000  0.4420930000000 1.0
C      1  0.5583540000000  0.4945180000000  0.4417830000000 1.0
C      1  0.4226100000000  0.5715300000000  0.4618100000000 1.0
C      1  0.4290540000000  0.4222170000000  0.4621850000000 1.0
C      1  0.5782470000000  0.4291070000000  0.4617590000000 1.0
C      1  0.5713890000000  0.5778920000000  0.4617980000000 1.0
C      1  0.4792020000000  0.5583170000000  0.4334480000000 1.0
C      1  0.4421300000000  0.4790400000000  0.4330220000000 1.0
C      1  0.5208680000000  0.4420080000000  0.4326600000000 1.0
C      1  0.5579080000000  0.5209010000000  0.4326140000000 1.0
C      1  0.4220020000000  0.5241710000000  0.4383320000000 1.0
C      1  0.4757120000000  0.4216720000000  0.4377290000000 1.0
C      1  0.5782180000000  0.4756180000000  0.4371520000000 1.0
C      1  0.5246660000000  0.5779600000000  0.4375740000000 1.0
C      1  0.5898600000000  0.5267070000000  0.5364770000000 1.0
C      1  0.4744420000000  0.5915620000000  0.5347440000000 1.0
C      1  0.4106260000000  0.4741060000000  0.5356980000000 1.0
C      1  0.5272570000000  0.4099560000000  0.5363370000000 1.0
C      1  0.5817500000000  0.4728300000000  0.5312120000000 1.0
C      1  0.5284490000000  0.5831460000000  0.5306880000000 1.0
C      1  0.4186450000000  0.5279790000000  0.5321150000000 1.0
C      1  0.4731810000000  0.4180010000000  0.5323210000000 1.0
C      1  0.5611050000000  0.4786350000000  0.5808930000000 1.0
C      1  0.5208000000000  0.5635060000000  0.5814640000000 1.0
C      1  0.4388270000000  0.5182410000000  0.5824900000000 1.0
C      1  0.4807590000000  0.4337090000000  0.5848380000000 1.0
END
