TITL C-3623285-6872-1382 -2.39687797757243e-07 125000 -252.902827197706 0 0 40 (C5) n - 1
REM
REM in /home/nfs/bkarasulu/CARBON/AIRSS/Generating-Clusters/LCBOP/Higher-Symm/SD-CG/FIRE-CG
REM
REM
REM
REM
REM
REM ./C.cell (b20cbc046b6831c77cfcea5457e17084)
REM AIRSS Version 0.9.1 bugfix July 2018 build 013d7b7c2542+ Fri, 06 Jul 2018 19:26:36 +0100
REM compiler GCC version 9.2.1 20190827 (Red Hat 9.2.1-1)
REM options -cpp -mtune=generic -march=x86-64 -g -O0 -fpre-include=/usr/include/finclude/math-vector-fortran.h
REM seed -1824949646 881130267 -555768433 -2033122086 662483898 -1599486581 1684452967 513387234 1913014062 -589830866 1172284621 950555373 -145060642 -282959397 -1843076432 -1766093912 -626951900 -657598237 -2116301446 -114972263 1581575140 -2064956503 1768606923 -780545379 701315008 -1054928181 545765154 2009065762 -1389530950 75651499 -243204126 1954626143 -268158280
REM
CELL 1.54180   50.00000   50.00000   50.00000   90.00000   90.00000   90.00000
LATT -1
SFAC C  
C      1  0.4713210000000  0.4747680000000  0.5583070000000 1.0
C      1  0.4713200000000  0.5476560000000  0.5420160000000 1.0
C      1  0.4713190000000  0.5546850000000  0.4676600000000 1.0
C      1  0.4713190000000  0.4861410000000  0.4379980000000 1.0
C      1  0.4713200000000  0.4367500000000  0.4940210000000 1.0
C      1  0.5485370000000  0.4567390000000  0.5276220000000 1.0
C      1  0.5485370000000  0.5129020000000  0.5496790000000 1.0
C      1  0.5485370000000  0.5512350000000  0.5030810000000 1.0
C      1  0.5485360000000  0.5187630000000  0.4522240000000 1.0
C      1  0.5485360000000  0.4603610000000  0.4673910000000 1.0
C      1  0.4503610000000  0.4847250000000  0.4805250000000 1.0
C      1  0.4503610000000  0.4767570000000  0.5085090000000 1.0
C      1  0.4503610000000  0.5009100000000  0.5247350000000 1.0
C      1  0.4503610000000  0.5238050000000  0.5067790000000 1.0
C      1  0.4503610000000  0.5138030000000  0.4794550000000 1.0
C      1  0.4778620000000  0.5246190000000  0.5573210000000 1.0
C      1  0.4778610000000  0.5621230000000  0.4943000000000 1.0
C      1  0.4778600000000  0.5137750000000  0.4391570000000 1.0
C      1  0.4778610000000  0.4463910000000  0.4680970000000 1.0
C      1  0.4778620000000  0.4530920000000  0.5411270000000 1.0
C      1  0.4640490000000  0.5475420000000  0.5147060000000 1.0
C      1  0.4640480000000  0.5286770000000  0.4593290000000 1.0
C      1  0.4640480000000  0.4701810000000  0.4601590000000 1.0
C      1  0.4640490000000  0.4528940000000  0.5160490000000 1.0
C      1  0.4640500000000  0.5007060000000  0.5497600000000 1.0
C      1  0.5287390000000  0.4426360000000  0.5385020000000 1.0
C      1  0.5287400000000  0.5188920000000  0.5664540000000 1.0
C      1  0.5287380000000  0.5690400000000  0.5025680000000 1.0
C      1  0.5287380000000  0.5237780000000  0.4351330000000 1.0
C      1  0.5287380000000  0.4456550000000  0.4573410000000 1.0
C      1  0.5564410000000  0.4791760000000  0.5132360000000 1.0
C      1  0.5564420000000  0.5061540000000  0.5238940000000 1.0
C      1  0.5564410000000  0.5246270000000  0.5015310000000 1.0
C      1  0.5564410000000  0.5090670000000  0.4770500000000 1.0
C      1  0.5564410000000  0.4809760000000  0.4842850000000 1.0
C      1  0.5026920000000  0.5224480000000  0.4296210000000 1.0
C      1  0.5026920000000  0.4400020000000  0.4569030000000 1.0
C      1  0.5026930000000  0.4404720000000  0.5437440000000 1.0
C      1  0.5026940000000  0.5232080000000  0.5701320000000 1.0
C      1  0.5026920000000  0.5738720000000  0.4996000000000 1.0
END
