TITL C-3623286-7563-10 22.2339437496896 125000 -1125.31508325255 0 0 182 (C1) n - 1
REM
REM in /home/nfs/bkarasulu/CARBON/AIRSS/Generating-Clusters/LCBOP/Higher-Symm/SD-CG/FIRE-CG
REM
REM
REM
REM
REM
REM ./C.cell (b20cbc046b6831c77cfcea5457e17084)
REM AIRSS Version 0.9.1 bugfix July 2018 build 013d7b7c2542+ Fri, 06 Jul 2018 19:26:36 +0100
REM compiler GCC version 9.2.1 20190827 (Red Hat 9.2.1-1)
REM options -cpp -mtune=generic -march=x86-64 -g -O0 -fpre-include=/usr/include/finclude/math-vector-fortran.h
REM seed 1604993901 -304458340 612796327 112841639 -1162442088 251177259 -478996002 -1994599475 2141763290 -967500582 1822897604 177585553 2131186034 339916240 1462819347 1528750722 1358753535 145178689 -2001800052 -1329419632 1955123380 -1311288949 1211932649 2120139288 -1930448585 -2024821694 749148005 33301865 -617502437 1025817486 -1079269107 -1066550123 271291494
REM
CELL 1.54180   50.00000   50.00000   50.00000   90.00000   90.00000   90.00000
LATT -1
SFAC C  
C      1  0.5138870000000  0.4702330000000  0.5088010000000 1.0
C      1  0.4907960000000  0.5251670000000  0.5140120000000 1.0
C      1  0.5986590000000  0.4688760000000  0.4262830000000 1.0
C      1  0.6004580000000  0.5260250000000  0.4251350000000 1.0
C      1  0.4741920000000  0.5477840000000  0.5222110000000 1.0
C      1  0.4893310000000  0.4342440000000  0.5248060000000 1.0
C      1  0.5456110000000  0.5338360000000  0.3972660000000 1.0
C      1  0.5348000000000  0.4630080000000  0.3991950000000 1.0
C      1  0.5735410000000  0.4851790000000  0.5330190000000 1.0
C      1  0.5885230000000  0.5115860000000  0.5288990000000 1.0
C      1  0.3760110000000  0.6612600000000  0.5422370000000 1.0
C      1  0.4332520000000  0.3996160000000  0.4903720000000 1.0
C      1  0.4394900000000  0.5469390000000  0.5873800000000 1.0
C      1  0.4424730000000  0.4616050000000  0.5926890000000 1.0
C      1  0.4436130000000  0.4720670000000  0.4844890000000 1.0
C      1  0.4393070000000  0.4980310000000  0.4789420000000 1.0
C      1  0.4323530000000  0.5901420000000  0.4172150000000 1.0
C      1  0.4503370000000  0.5721340000000  0.4229160000000 1.0
C      1  0.5819940000000  0.4572270000000  0.5435150000000 1.0
C      1  0.5861590000000  0.5387690000000  0.5427580000000 1.0
C      1  0.5103590000000  0.4209280000000  0.4567000000000 1.0
C      1  0.5264170000000  0.5663880000000  0.4795220000000 1.0
C      1  0.5584020000000  0.5448620000000  0.5471190000000 1.0
C      1  0.5590170000000  0.4413610000000  0.5502770000000 1.0
C      1  0.4707680000000  0.5018290000000  0.5481120000000 1.0
C      1  0.4664700000000  0.4741670000000  0.5482510000000 1.0
C      1  0.5047630000000  0.6145130000000  0.5110950000000 1.0
C      1  0.4954860000000  0.3870660000000  0.5080270000000 1.0
C      1  0.5079670000000  0.5860700000000  0.4133000000000 1.0
C      1  0.4771140000000  0.4257950000000  0.4101940000000 1.0
C      1  0.5338840000000  0.6100640000000  0.5097380000000 1.0
C      1  0.5250950000000  0.3892750000000  0.5061650000000 1.0
C      1  0.4831350000000  0.5525140000000  0.4542270000000 1.0
C      1  0.4852390000000  0.4633070000000  0.4460640000000 1.0
C      1  0.3933210000000  0.5114740000000  0.5303290000000 1.0
C      1  0.3955060000000  0.4760200000000  0.5283320000000 1.0
C      1  0.4981570000000  0.5355890000000  0.3937770000000 1.0
C      1  0.4855000000000  0.4749980000000  0.3923070000000 1.0
C      1  0.5655390000000  0.4994980000000  0.6392130000000 1.0
C      1  0.5641030000000  0.5261320000000  0.6385690000000 1.0
C      1  0.4902900000000  0.5211340000000  0.6257190000000 1.0
C      1  0.4913860000000  0.4945630000000  0.6257850000000 1.0
C      1  0.5783320000000  0.5215030000000  0.5000750000000 1.0
C      1  0.5713670000000  0.4765860000000  0.5014770000000 1.0
C      1  0.4746500000000  0.4864170000000  0.4399570000000 1.0
C      1  0.4748460000000  0.5599560000000  0.4282200000000 1.0
C      1  0.5576030000000  0.4529520000000  0.4934130000000 1.0
C      1  0.5670900000000  0.5458790000000  0.4923930000000 1.0
C      1  0.4631960000000  0.4015410000000  0.5521140000000 1.0
C      1  0.4677450000000  0.6070980000000  0.5479500000000 1.0
C      1  0.4221150000000  0.5044120000000  0.5475380000000 1.0
C      1  0.4201040000000  0.4757130000000  0.5431060000000 1.0
C      1  0.6012270000000  0.5523250000000  0.4353510000000 1.0
C      1  0.5952990000000  0.4427290000000  0.4366140000000 1.0
C      1  0.5382260000000  0.6066420000000  0.5571760000000 1.0
C      1  0.5321320000000  0.3856040000000  0.5524070000000 1.0
C      1  0.6202200000000  0.4575390000000  0.5118530000000 1.0
C      1  0.6240810000000  0.5363980000000  0.5113360000000 1.0
C      1  0.4352770000000  0.3989110000000  0.5479430000000 1.0
C      1  0.4452010000000  0.6232810000000  0.5465720000000 1.0
C      1  0.4759070000000  0.5230550000000  0.3815610000000 1.0
C      1  0.4707710000000  0.4965530000000  0.3802570000000 1.0
C      1  0.5106070000000  0.4558720000000  0.5690210000000 1.0
C      1  0.5011630000000  0.5498680000000  0.5646620000000 1.0
C      1  0.5659210000000  0.5771030000000  0.4543150000000 1.0
C      1  0.5580930000000  0.4213630000000  0.4535600000000 1.0
C      1  0.3882670000000  0.5276740000000  0.4867600000000 1.0
C      1  0.3874710000000  0.4514510000000  0.4877860000000 1.0
C      1  0.5081730000000  0.4488900000000  0.4525410000000 1.0
C      1  0.5108060000000  0.5496800000000  0.4622610000000 1.0
C      1  0.5517670000000  0.4434680000000  0.4084190000000 1.0
C      1  0.5596830000000  0.5550950000000  0.4076120000000 1.0
C      1  0.5426040000000  0.5874700000000  0.4666760000000 1.0
C      1  0.5350550000000  0.4076900000000  0.4602880000000 1.0
C      1  0.4670880000000  0.5808070000000  0.5589260000000 1.0
C      1  0.4726030000000  0.4247070000000  0.5679080000000 1.0
C      1  0.5270710000000  0.5298640000000  0.4501850000000 1.0
C      1  0.5308120000000  0.4648590000000  0.4538540000000 1.0
C      1  0.5521790000000  0.5236740000000  0.4432090000000 1.0
C      1  0.5538700000000  0.4747590000000  0.4462250000000 1.0
C      1  0.6073770000000  0.5547090000000  0.5290970000000 1.0
C      1  0.6025820000000  0.4420560000000  0.5290820000000 1.0
C      1  0.6180090000000  0.5334730000000  0.4818010000000 1.0
C      1  0.6113920000000  0.4596930000000  0.4837240000000 1.0
C      1  0.5214810000000  0.5181400000000  0.3955740000000 1.0
C      1  0.5145300000000  0.4834030000000  0.3961640000000 1.0
C      1  0.3990120000000  0.6490700000000  0.5436470000000 1.0
C      1  0.4124870000000  0.3943420000000  0.5066290000000 1.0
C      1  0.4192610000000  0.5503520000000  0.5236560000000 1.0
C      1  0.3976780000000  0.4297570000000  0.5376890000000 1.0
C      1  0.4926200000000  0.6153060000000  0.4850730000000 1.0
C      1  0.4839580000000  0.3886690000000  0.4808840000000 1.0
C      1  0.5759700000000  0.5127430000000  0.4322120000000 1.0
C      1  0.5760480000000  0.4850040000000  0.4329910000000 1.0
C      1  0.6210200000000  0.5099360000000  0.4146470000000 1.0
C      1  0.6204260000000  0.4828170000000  0.4153290000000 1.0
C      1  0.6018430000000  0.5824160000000  0.5279720000000 1.0
C      1  0.5953930000000  0.4144370000000  0.5253390000000 1.0
C      1  0.3696210000000  0.4742760000000  0.4227490000000 1.0
C      1  0.3861760000000  0.4767930000000  0.4457540000000 1.0
C      1  0.5757140000000  0.5668850000000  0.4286610000000 1.0
C      1  0.5688370000000  0.4309480000000  0.4283080000000 1.0
C      1  0.5485300000000  0.5470860000000  0.6330560000000 1.0
C      1  0.5524230000000  0.4766930000000  0.6347830000000 1.0
C      1  0.3759630000000  0.5019870000000  0.4840920000000 1.0
C      1  0.3799820000000  0.4761430000000  0.4736200000000 1.0
C      1  0.4604040000000  0.5162040000000  0.4792060000000 1.0
C      1  0.4685720000000  0.4616720000000  0.4921250000000 1.0
C      1  0.5987650000000  0.4409660000000  0.4663230000000 1.0
C      1  0.6071710000000  0.5536980000000  0.4643700000000 1.0
C      1  0.5035540000000  0.6040900000000  0.4335800000000 1.0
C      1  0.4755410000000  0.4070740000000  0.4301960000000 1.0
C      1  0.4954700000000  0.5604290000000  0.4082980000000 1.0
C      1  0.4683240000000  0.4521320000000  0.4021320000000 1.0
C      1  0.6301570000000  0.4827410000000  0.5223430000000 1.0
C      1  0.6195500000000  0.5091950000000  0.5243040000000 1.0
C      1  0.5403430000000  0.4305480000000  0.5310590000000 1.0
C      1  0.5454440000000  0.5646710000000  0.5294040000000 1.0
C      1  0.3922120000000  0.5430110000000  0.4636910000000 1.0
C      1  0.3991880000000  0.4324700000000  0.4699430000000 1.0
C      1  0.4847350000000  0.3866620000000  0.5368210000000 1.0
C      1  0.4934970000000  0.6157420000000  0.5379940000000 1.0
C      1  0.4999980000000  0.5450330000000  0.6146600000000 1.0
C      1  0.5039860000000  0.4713740000000  0.6163570000000 1.0
C      1  0.5361260000000  0.3879370000000  0.4801910000000 1.0
C      1  0.5446730000000  0.6102720000000  0.4833500000000 1.0
C      1  0.5060520000000  0.3779690000000  0.5544920000000 1.0
C      1  0.5136000000000  0.6179260000000  0.5581870000000 1.0
C      1  0.4243520000000  0.4795290000000  0.4123380000000 1.0
C      1  0.4052060000000  0.4918890000000  0.3943750000000 1.0
C      1  0.4223440000000  0.6365790000000  0.5450930000000 1.0
C      1  0.4121670000000  0.4055130000000  0.5323990000000 1.0
C      1  0.5798370000000  0.5980360000000  0.5298700000000 1.0
C      1  0.5736320000000  0.3978980000000  0.5247710000000 1.0
C      1  0.3990970000000  0.5324020000000  0.5125540000000 1.0
C      1  0.3900570000000  0.4504660000000  0.5170260000000 1.0
C      1  0.5990650000000  0.5106650000000  0.4819680000000 1.0
C      1  0.5946880000000  0.4832110000000  0.4846860000000 1.0
C      1  0.4011740000000  0.4386330000000  0.5653670000000 1.0
C      1  0.4108810000000  0.5633410000000  0.5477920000000 1.0
C      1  0.4709770000000  0.4362660000000  0.5034580000000 1.0
C      1  0.4464680000000  0.5400920000000  0.5261780000000 1.0
C      1  0.4847880000000  0.5626580000000  0.5441060000000 1.0
C      1  0.4949490000000  0.4366450000000  0.5524600000000 1.0
C      1  0.4891090000000  0.5540100000000  0.5905320000000 1.0
C      1  0.4943130000000  0.4584150000000  0.5933520000000 1.0
C      1  0.4132430000000  0.4829380000000  0.4388070000000 1.0
C      1  0.3790540000000  0.4802330000000  0.3976830000000 1.0
C      1  0.4133530000000  0.4278780000000  0.4473990000000 1.0
C      1  0.3958530000000  0.5462100000000  0.4374420000000 1.0
C      1  0.4874610000000  0.4036940000000  0.4560230000000 1.0
C      1  0.4950550000000  0.6124430000000  0.4580770000000 1.0
C      1  0.4909800000000  0.4793970000000  0.4935910000000 1.0
C      1  0.4839990000000  0.5076080000000  0.4927500000000 1.0
C      1  0.5339350000000  0.4484360000000  0.5086400000000 1.0
C      1  0.5422080000000  0.5559980000000  0.5018990000000 1.0
C      1  0.5131400000000  0.4849170000000  0.5328730000000 1.0
C      1  0.4983640000000  0.5097390000000  0.5385650000000 1.0
C      1  0.5507900000000  0.4936710000000  0.5540980000000 1.0
C      1  0.5428060000000  0.5223270000000  0.5562960000000 1.0
C      1  0.5295070000000  0.4657110000000  0.6266440000000 1.0
C      1  0.5244530000000  0.5547240000000  0.6244310000000 1.0
C      1  0.4436340000000  0.4615720000000  0.5424390000000 1.0
C      1  0.4467530000000  0.5167220000000  0.5430640000000 1.0
C      1  0.4622070000000  0.5417980000000  0.4692180000000 1.0
C      1  0.4532420000000  0.4170460000000  0.4937430000000 1.0
C      1  0.4401870000000  0.4559940000000  0.4103190000000 1.0
C      1  0.4057830000000  0.5201560000000  0.3937790000000 1.0
C      1  0.4624790000000  0.5646160000000  0.5843360000000 1.0
C      1  0.4674920000000  0.4460560000000  0.5891730000000 1.0
C      1  0.5817210000000  0.5631130000000  0.4746120000000 1.0
C      1  0.5712500000000  0.4347290000000  0.4754160000000 1.0
C      1  0.4179590000000  0.4485000000000  0.5844810000000 1.0
C      1  0.4166060000000  0.5568560000000  0.5735210000000 1.0
C      1  0.5272460000000  0.4755990000000  0.5558240000000 1.0
C      1  0.5146130000000  0.5267720000000  0.5567750000000 1.0
C      1  0.4407500000000  0.5186230000000  0.5957490000000 1.0
C      1  0.4418950000000  0.4909500000000  0.5972940000000 1.0
C      1  0.4008850000000  0.5391160000000  0.4121680000000 1.0
C      1  0.4282460000000  0.4346810000000  0.4259460000000 1.0
C      1  0.5497450000000  0.5951990000000  0.5321400000000 1.0
C      1  0.5429730000000  0.4001180000000  0.5284190000000 1.0
END
