TITL C-3623283-6828-1041 -1.92003146904958e-07 125000 -314.506298959215 0 0 52 (C1) n - 1
REM
REM in /home/nfs/bkarasulu/CARBON/AIRSS/Generating-Clusters/LCBOP/Higher-Symm/SD-CG/FIRE-CG
REM
REM
REM
REM
REM
REM ./C.cell (b20cbc046b6831c77cfcea5457e17084)
REM AIRSS Version 0.9.1 bugfix July 2018 build 013d7b7c2542+ Fri, 06 Jul 2018 19:26:36 +0100
REM compiler GCC version 9.2.1 20190827 (Red Hat 9.2.1-1)
REM options -cpp -mtune=generic -march=x86-64 -g -O0 -fpre-include=/usr/include/finclude/math-vector-fortran.h
REM seed -1998280497 -357596756 2023803522 235033678 -423448465 966631860 -1214447069 1872672220 -321453132 -138968183 -1491467195 2044642424 -1425780424 3167995 1416656170 -1713112571 695896675 -1656615275 -884322921 797283507 -802467528 1491754853 1436575561 -1629141853 -1923241884 736680479 833349231 2084380912 1256607581 -1881919824 757189437 -548138410 1672324858
REM
CELL 1.54180   50.00000   50.00000   50.00000   90.00000   90.00000   90.00000
LATT -1
SFAC C  
C      1  0.5076770000000  0.4860060000000  0.4657180000000 1.0
C      1  0.5007390000000  0.5181290000000  0.5393550000000 1.0
C      1  0.4458400000000  0.5139440000000  0.4968830000000 1.0
C      1  0.5491850000000  0.4867390000000  0.5070090000000 1.0
C      1  0.4724410000000  0.5125410000000  0.5406840000000 1.0
C      1  0.5358380000000  0.4887210000000  0.4610940000000 1.0
C      1  0.4993470000000  0.5366550000000  0.4816420000000 1.0
C      1  0.5084920000000  0.4557430000000  0.5199020000000 1.0
C      1  0.5518970000000  0.4753290000000  0.4808200000000 1.0
C      1  0.4544060000000  0.5252770000000  0.5220840000000 1.0
C      1  0.4519070000000  0.5532400000000  0.5263060000000 1.0
C      1  0.5562180000000  0.4478720000000  0.4761030000000 1.0
C      1  0.5013190000000  0.5357780000000  0.4275570000000 1.0
C      1  0.4833590000000  0.4738080000000  0.5700970000000 1.0
C      1  0.4477410000000  0.4862140000000  0.4900910000000 1.0
C      1  0.5585890000000  0.5137360000000  0.5106660000000 1.0
C      1  0.5148270000000  0.5437240000000  0.5298710000000 1.0
C      1  0.4935240000000  0.4592290000000  0.4709650000000 1.0
C      1  0.4619090000000  0.5409040000000  0.4559420000000 1.0
C      1  0.5260510000000  0.4536040000000  0.5648210000000 1.0
C      1  0.4864600000000  0.4580890000000  0.5012260000000 1.0
C      1  0.5205130000000  0.5404910000000  0.4997340000000 1.0
C      1  0.4978790000000  0.5674850000000  0.5349850000000 1.0
C      1  0.5108130000000  0.4360490000000  0.4638040000000 1.0
C      1  0.4678750000000  0.4607270000000  0.4549910000000 1.0
C      1  0.5418040000000  0.5435220000000  0.5440670000000 1.0
C      1  0.5262420000000  0.4791940000000  0.5224210000000 1.0
C      1  0.4429480000000  0.5318350000000  0.4747510000000 1.0
C      1  0.5177690000000  0.4958690000000  0.5447280000000 1.0
C      1  0.4941040000000  0.5107440000000  0.4666340000000 1.0
C      1  0.4847970000000  0.5579170000000  0.4661380000000 1.0
C      1  0.5071090000000  0.4409790000000  0.5452730000000 1.0
C      1  0.5370620000000  0.4308300000000  0.4674730000000 1.0
C      1  0.4712320000000  0.5710440000000  0.5324500000000 1.0
C      1  0.4823090000000  0.4457220000000  0.5600920000000 1.0
C      1  0.4995780000000  0.5622330000000  0.4409130000000 1.0
C      1  0.5757240000000  0.5496360000000  0.4556510000000 1.0
C      1  0.4272610000000  0.4348810000000  0.5280260000000 1.0
C      1  0.4792280000000  0.5207770000000  0.4422510000000 1.0
C      1  0.5126810000000  0.4800880000000  0.5682700000000 1.0
C      1  0.4418270000000  0.4584960000000  0.5287120000000 1.0
C      1  0.5560190000000  0.5322670000000  0.4646740000000 1.0
C      1  0.5938990000000  0.5662140000000  0.4470530000000 1.0
C      1  0.4142330000000  0.4123310000000  0.5271030000000 1.0
C      1  0.5267250000000  0.5229480000000  0.4264840000000 1.0
C      1  0.4638640000000  0.4910530000000  0.5580600000000 1.0
C      1  0.5616930000000  0.5264590000000  0.5359170000000 1.0
C      1  0.4470960000000  0.4763000000000  0.4634350000000 1.0
C      1  0.4592750000000  0.4666160000000  0.5077880000000 1.0
C      1  0.5468870000000  0.5319390000000  0.4915810000000 1.0
C      1  0.4405450000000  0.4769960000000  0.5500950000000 1.0
C      1  0.5432450000000  0.5130760000000  0.4476090000000 1.0
END
