TITL C-3623285-6872-1363 15083.5054281791 125000 -1192.68258469447 0 0 192 (C1) n - 1
REM
REM in /home/nfs/bkarasulu/CARBON/AIRSS/Generating-Clusters/LCBOP/Higher-Symm/SD-CG/FIRE-CG
REM
REM
REM
REM
REM
REM ./C.cell (b20cbc046b6831c77cfcea5457e17084)
REM AIRSS Version 0.9.1 bugfix July 2018 build 013d7b7c2542+ Fri, 06 Jul 2018 19:26:36 +0100
REM compiler GCC version 9.2.1 20190827 (Red Hat 9.2.1-1)
REM options -cpp -mtune=generic -march=x86-64 -g -O0 -fpre-include=/usr/include/finclude/math-vector-fortran.h
REM seed -1097116910 732974840 1892382428 1493547260 856763202 271117338 1891883088 1521499771 928683477 1163149296 570472170 -1336874589 -105214485 -1630572481 -311212242 -1464499641 -678700353 547508325 1720102975 50646636 -266865133 726754913 -1931388625 419343508 941504735 -929043327 -848153457 1267078916 -1033272252 962848139 -240877542 1172054144 652712066
REM
CELL 1.54180   50.00000   50.00000   50.00000   90.00000   90.00000   90.00000
LATT -1
SFAC C  
C      1  0.6114870000000  0.4697420000000  0.5496630000000 1.0
C      1  0.4832210000000  0.4539160000000  0.3791930000000 1.0
C      1  0.3999010000000  0.4628220000000  0.5723450000000 1.0
C      1  0.6072800000000  0.5317270000000  0.4489610000000 1.0
C      1  0.4818950000000  0.5361260000000  0.6210780000000 1.0
C      1  0.4054110000000  0.5483470000000  0.4266130000000 1.0
C      1  0.4598300000000  0.4387900000000  0.5868370000000 1.0
C      1  0.5846390000000  0.4434210000000  0.4952260000000 1.0
C      1  0.4548980000000  0.4142590000000  0.4259650000000 1.0
C      1  0.4512780000000  0.5857920000000  0.4248550000000 1.0
C      1  0.5795470000000  0.5538110000000  0.5048410000000 1.0
C      1  0.4533080000000  0.5647910000000  0.5739420000000 1.0
C      1  0.5229520000000  0.4629300000000  0.4967410000000 1.0
C      1  0.4742550000000  0.4649680000000  0.4756430000000 1.0
C      1  0.5075940000000  0.4641850000000  0.5195220000000 1.0
C      1  0.5037590000000  0.5388830000000  0.5188380000000 1.0
C      1  0.4776560000000  0.5467280000000  0.5141560000000 1.0
C      1  0.4834380000000  0.5205930000000  0.4754430000000 1.0
C      1  0.5322110000000  0.4110200000000  0.4911830000000 1.0
C      1  0.4759350000000  0.4119580000000  0.4835900000000 1.0
C      1  0.4948310000000  0.4115240000000  0.5318990000000 1.0
C      1  0.5297960000000  0.5866870000000  0.5114950000000 1.0
C      1  0.4791590000000  0.5984880000000  0.5251060000000 1.0
C      1  0.4924240000000  0.5930410000000  0.4721790000000 1.0
C      1  0.4654430000000  0.4648840000000  0.5462080000000 1.0
C      1  0.5642470000000  0.4813520000000  0.5143000000000 1.0
C      1  0.4802440000000  0.4638480000000  0.4447600000000 1.0
C      1  0.4456680000000  0.5109640000000  0.4506160000000 1.0
C      1  0.5584120000000  0.5162470000000  0.4886540000000 1.0
C      1  0.4748290000000  0.5244340000000  0.5599290000000 1.0
C      1  0.5729340000000  0.4566110000000  0.4404320000000 1.0
C      1  0.4174740000000  0.4549550000000  0.4697740000000 1.0
C      1  0.5170810000000  0.4476250000000  0.5918060000000 1.0
C      1  0.5732650000000  0.5432640000000  0.5608820000000 1.0
C      1  0.4081030000000  0.5630220000000  0.5258430000000 1.0
C      1  0.5007270000000  0.5391860000000  0.4114760000000 1.0
C      1  0.5019730000000  0.5154690000000  0.4325290000000 1.0
C      1  0.4241690000000  0.5527560000000  0.5037110000000 1.0
C      1  0.5541390000000  0.5207540000000  0.5451110000000 1.0
C      1  0.5164560000000  0.4658890000000  0.5697590000000 1.0
C      1  0.4267540000000  0.4783970000000  0.4853910000000 1.0
C      1  0.5584060000000  0.4789060000000  0.4554030000000 1.0
C      1  0.4330240000000  0.5056930000000  0.4771930000000 1.0
C      1  0.4997640000000  0.5147300000000  0.5701960000000 1.0
C      1  0.5535270000000  0.5096690000000  0.4609700000000 1.0
C      1  0.4439180000000  0.4821870000000  0.5358610000000 1.0
C      1  0.5046140000000  0.4836110000000  0.4341000000000 1.0
C      1  0.5537750000000  0.4874230000000  0.5403430000000 1.0
C      1  0.5404390000000  0.4047470000000  0.5175120000000 1.0
C      1  0.4948540000000  0.4080230000000  0.4625370000000 1.0
C      1  0.4670860000000  0.4063050000000  0.5303230000000 1.0
C      1  0.5369080000000  0.5919140000000  0.4837430000000 1.0
C      1  0.4998780000000  0.5997960000000  0.5448460000000 1.0
C      1  0.4683130000000  0.6069870000000  0.4794510000000 1.0
C      1  0.5476600000000  0.4950370000000  0.6197240000000 1.0
C      1  0.5709730000000  0.4958220000000  0.3938070000000 1.0
C      1  0.3778940000000  0.4984140000000  0.4805800000000 1.0
C      1  0.5437290000000  0.4990780000000  0.3820850000000 1.0
C      1  0.5735930000000  0.5013540000000  0.6066710000000 1.0
C      1  0.3782720000000  0.5030420000000  0.5105620000000 1.0
C      1  0.4738340000000  0.4678760000000  0.6025170000000 1.0
C      1  0.6377270000000  0.4754910000000  0.4203010000000 1.0
C      1  0.4272920000000  0.4784460000000  0.4228300000000 1.0
C      1  0.4818940000000  0.5171070000000  0.3459630000000 1.0
C      1  0.6381040000000  0.5279930000000  0.5805480000000 1.0
C      1  0.4263350000000  0.5229080000000  0.5626360000000 1.0
C      1  0.5001730000000  0.5675680000000  0.4192470000000 1.0
C      1  0.4205680000000  0.5876660000000  0.5376600000000 1.0
C      1  0.5705640000000  0.5701060000000  0.5501910000000 1.0
C      1  0.5093560000000  0.4215320000000  0.5838500000000 1.0
C      1  0.4256320000000  0.4266580000000  0.4703150000000 1.0
C      1  0.5685640000000  0.4291770000000  0.4500630000000 1.0
C      1  0.5787960000000  0.5613620000000  0.4273250000000 1.0
C      1  0.3876610000000  0.5706350000000  0.4628050000000 1.0
C      1  0.5177450000000  0.5645140000000  0.6177100000000 1.0
C      1  0.5900230000000  0.4368120000000  0.5740760000000 1.0
C      1  0.3936900000000  0.4341270000000  0.5373780000000 1.0
C      1  0.5211920000000  0.4288060000000  0.3884790000000 1.0
C      1  0.4339670000000  0.5834920000000  0.4469690000000 1.0
C      1  0.4798700000000  0.5709000000000  0.5844830000000 1.0
C      1  0.5757470000000  0.5603400000000  0.4768440000000 1.0
C      1  0.4381430000000  0.4324630000000  0.5657400000000 1.0
C      1  0.4812880000000  0.4233250000000  0.4185500000000 1.0
C      1  0.5843990000000  0.4348100000000  0.5231820000000 1.0
C      1  0.4085540000000  0.5708640000000  0.4437420000000 1.0
C      1  0.4903340000000  0.5610400000000  0.6096090000000 1.0
C      1  0.5898560000000  0.5536990000000  0.4528390000000 1.0
C      1  0.4097070000000  0.4378260000000  0.5619810000000 1.0
C      1  0.4933130000000  0.4318610000000  0.3940360000000 1.0
C      1  0.5982090000000  0.4447350000000  0.5469790000000 1.0
C      1  0.5175550000000  0.4564880000000  0.6187540000000 1.0
C      1  0.5913200000000  0.4596710000000  0.4193820000000 1.0
C      1  0.3943650000000  0.4608160000000  0.4536820000000 1.0
C      1  0.5078560000000  0.5339340000000  0.3846170000000 1.0
C      1  0.5905760000000  0.5401800000000  0.5825870000000 1.0
C      1  0.3902660000000  0.5445750000000  0.5376880000000 1.0
C      1  0.3738380000000  0.5304160000000  0.5188730000000 1.0
C      1  0.5796340000000  0.5292730000000  0.6059920000000 1.0
C      1  0.5347490000000  0.5263170000000  0.3805790000000 1.0
C      1  0.3750220000000  0.4705930000000  0.4725560000000 1.0
C      1  0.5802180000000  0.4687600000000  0.3952130000000 1.0
C      1  0.5430230000000  0.4670470000000  0.6248510000000 1.0
C      1  0.5640590000000  0.5461800000000  0.6223550000000 1.0
C      1  0.5542120000000  0.5462070000000  0.3858560000000 1.0
C      1  0.3631250000000  0.5461920000000  0.4977230000000 1.0
C      1  0.5663270000000  0.4495500000000  0.3799910000000 1.0
C      1  0.5651210000000  0.4500000000000  0.6178130000000 1.0
C      1  0.3695340000000  0.4525890000000  0.4945380000000 1.0
C      1  0.6345340000000  0.5014720000000  0.5786390000000 1.0
C      1  0.4874260000000  0.4909560000000  0.3476630000000 1.0
C      1  0.4255290000000  0.4970060000000  0.5513300000000 1.0
C      1  0.6322320000000  0.5017650000000  0.4196880000000 1.0
C      1  0.4913290000000  0.4981520000000  0.5940380000000 1.0
C      1  0.4250330000000  0.5053800000000  0.4320090000000 1.0
C      1  0.4454790000000  0.5894320000000  0.4720780000000 1.0
C      1  0.4991480000000  0.5776550000000  0.5646450000000 1.0
C      1  0.5489800000000  0.5678210000000  0.4723330000000 1.0
C      1  0.4538580000000  0.4348350000000  0.5389350000000 1.0
C      1  0.4956020000000  0.4343130000000  0.4433490000000 1.0
C      1  0.5596510000000  0.4227850000000  0.5301100000000 1.0
C      1  0.5244160000000  0.5284820000000  0.5610400000000 1.0
C      1  0.5297260000000  0.5255100000000  0.4485830000000 1.0
C      1  0.4367600000000  0.5285210000000  0.4945200000000 1.0
C      1  0.5284650000000  0.4724610000000  0.4509690000000 1.0
C      1  0.5411750000000  0.4648270000000  0.5547030000000 1.0
C      1  0.4347850000000  0.4701250000000  0.5112070000000 1.0
C      1  0.4610220000000  0.6162620000000  0.5092660000000 1.0
C      1  0.5294520000000  0.6019970000000  0.5369990000000 1.0
C      1  0.5184150000000  0.6009650000000  0.4603760000000 1.0
C      1  0.4562600000000  0.3988940000000  0.5026460000000 1.0
C      1  0.5249900000000  0.3992740000000  0.4646740000000 1.0
C      1  0.5198840000000  0.3996530000000  0.5382700000000 1.0
C      1  0.4505000000000  0.5371210000000  0.5662020000000 1.0
C      1  0.5646680000000  0.5300660000000  0.5122580000000 1.0
C      1  0.4736250000000  0.5179070000000  0.4494170000000 1.0
C      1  0.4539640000000  0.4672780000000  0.4276860000000 1.0
C      1  0.5717650000000  0.4688730000000  0.4902430000000 1.0
C      1  0.4900230000000  0.4697780000000  0.5591220000000 1.0
C      1  0.5255730000000  0.5549750000000  0.4574740000000 1.0
C      1  0.4413920000000  0.5765570000000  0.4986490000000 1.0
C      1  0.5233470000000  0.5602300000000  0.5558740000000 1.0
C      1  0.5466450000000  0.4352060000000  0.5529590000000 1.0
C      1  0.4444760000000  0.4419400000000  0.5098980000000 1.0
C      1  0.5243220000000  0.4430430000000  0.4519460000000 1.0
C      1  0.4900990000000  0.5360180000000  0.3631250000000 1.0
C      1  0.4006560000000  0.5352270000000  0.5621550000000 1.0
C      1  0.6180320000000  0.5458570000000  0.5812850000000 1.0
C      1  0.4899260000000  0.4604340000000  0.6253000000000 1.0
C      1  0.4027030000000  0.4642690000000  0.4268650000000 1.0
C      1  0.6190280000000  0.4562140000000  0.4217290000000 1.0
C      1  0.5277170000000  0.4135710000000  0.5632610000000 1.0
C      1  0.5415950000000  0.4179120000000  0.4462510000000 1.0
C      1  0.4319390000000  0.4164100000000  0.4974350000000 1.0
C      1  0.5205570000000  0.5787610000000  0.4373690000000 1.0
C      1  0.5452250000000  0.5827830000000  0.5552740000000 1.0
C      1  0.4340000000000  0.6020720000000  0.5154050000000 1.0
C      1  0.5213270000000  0.5594320000000  0.5228210000000 1.0
C      1  0.4985050000000  0.5628950000000  0.4741780000000 1.0
C      1  0.4687810000000  0.5722480000000  0.5151440000000 1.0
C      1  0.5273770000000  0.4389840000000  0.4847650000000 1.0
C      1  0.4997880000000  0.4394000000000  0.5289190000000 1.0
C      1  0.4694170000000  0.4407610000000  0.4892490000000 1.0
C      1  0.3752290000000  0.5468670000000  0.4721510000000 1.0
C      1  0.5361550000000  0.5436160000000  0.6240080000000 1.0
C      1  0.5742650000000  0.5440280000000  0.4052500000000 1.0
C      1  0.3803920000000  0.4540780000000  0.5208370000000 1.0
C      1  0.5383760000000  0.4494970000000  0.3792210000000 1.0
C      1  0.5830340000000  0.4538250000000  0.5962170000000 1.0
C      1  0.3838330000000  0.5205930000000  0.4615830000000 1.0
C      1  0.5270140000000  0.5158470000000  0.6229990000000 1.0
C      1  0.5859890000000  0.5175230000000  0.4069340000000 1.0
C      1  0.3841020000000  0.4817880000000  0.5295690000000 1.0
C      1  0.5267460000000  0.4758950000000  0.3751150000000 1.0
C      1  0.5905170000000  0.4817450000000  0.5927870000000 1.0
C      1  0.5838130000000  0.5727190000000  0.5253180000000 1.0
C      1  0.4758390000000  0.5811870000000  0.4155220000000 1.0
C      1  0.4348920000000  0.5833070000000  0.5622130000000 1.0
C      1  0.5837350000000  0.4247510000000  0.4737700000000 1.0
C      1  0.4810900000000  0.4184140000000  0.5873090000000 1.0
C      1  0.4364560000000  0.4155480000000  0.4460530000000 1.0
C      1  0.4929540000000  0.4886350000000  0.5190040000000 1.0
C      1  0.5193830000000  0.4837420000000  0.4776840000000 1.0
C      1  0.4744630000000  0.4843930000000  0.4965410000000 1.0
C      1  0.5084820000000  0.5089030000000  0.4838500000000 1.0
C      1  0.5079870000000  0.5122410000000  0.5126570000000 1.0
C      1  0.4654170000000  0.5308660000000  0.4950470000000 1.0
C      1  0.4989030000000  0.4745010000000  0.3671120000000 1.0
C      1  0.3998920000000  0.4842630000000  0.5535970000000 1.0
C      1  0.6121420000000  0.4853830000000  0.5736400000000 1.0
C      1  0.4986220000000  0.5130730000000  0.6174040000000 1.0
C      1  0.4016950000000  0.5218100000000  0.4371100000000 1.0
C      1  0.6088690000000  0.5163260000000  0.4248710000000 1.0
END
