TITL C-3623286-7563-615 0.0941638706243765 125000 -276.671998852158 0 0 47 (C1) n - 1
REM
REM in /home/nfs/bkarasulu/CARBON/AIRSS/Generating-Clusters/LCBOP/Higher-Symm/SD-CG/FIRE-CG
REM
REM
REM
REM
REM
REM ./C.cell (b20cbc046b6831c77cfcea5457e17084)
REM AIRSS Version 0.9.1 bugfix July 2018 build 013d7b7c2542+ Fri, 06 Jul 2018 19:26:36 +0100
REM compiler GCC version 9.2.1 20190827 (Red Hat 9.2.1-1)
REM options -cpp -mtune=generic -march=x86-64 -g -O0 -fpre-include=/usr/include/finclude/math-vector-fortran.h
REM seed -2098871626 1194500574 -1440361779 -1968971822 -1285110681 -519871258 483574641 1891006910 986988268 636659153 -451906814 107718021 -1572235946 -1612861430 1218683531 -1354928613 -1286305264 -1484109519 397386238 1260477166 286379743 1930539497 -14464539 1701788888 1187524468 1715734856 2065622862 -197969120 141337274 376309090 -1373430923 -986364885 -1490814538
REM
CELL 1.54180   50.00000   50.00000   50.00000   90.00000   90.00000   90.00000
LATT -1
SFAC C  
C      1  0.5078740000000  0.4805340000000  0.5285160000000 1.0
C      1  0.4694070000000  0.5114860000000  0.5077050000000 1.0
C      1  0.5538760000000  0.4912380000000  0.5047170000000 1.0
C      1  0.4676050000000  0.5006460000000  0.5649020000000 1.0
C      1  0.4521200000000  0.3561400000000  0.4259430000000 1.0
C      1  0.5609120000000  0.5059550000000  0.4818230000000 1.0
C      1  0.4696720000000  0.4526340000000  0.5495840000000 1.0
C      1  0.5754080000000  0.5559520000000  0.5370980000000 1.0
C      1  0.5916080000000  0.5346080000000  0.5419720000000 1.0
C      1  0.5079570000000  0.6118640000000  0.5099910000000 1.0
C      1  0.5405570000000  0.4663970000000  0.4999600000000 1.0
C      1  0.4948840000000  0.4511400000000  0.5633270000000 1.0
C      1  0.4667060000000  0.5730150000000  0.4887280000000 1.0
C      1  0.4883980000000  0.5645330000000  0.4722620000000 1.0
C      1  0.5091920000000  0.5315900000000  0.5500470000000 1.0
C      1  0.5127320000000  0.4698950000000  0.5545250000000 1.0
C      1  0.5140880000000  0.4614990000000  0.5079370000000 1.0
C      1  0.5552280000000  0.5047990000000  0.5302950000000 1.0
C      1  0.4910310000000  0.5008350000000  0.5188840000000 1.0
C      1  0.5502690000000  0.5177110000000  0.4604330000000 1.0
C      1  0.4809180000000  0.6112890000000  0.5141290000000 1.0
C      1  0.5021970000000  0.5583610000000  0.5405750000000 1.0
C      1  0.4669570000000  0.4014610000000  0.4490680000000 1.0
C      1  0.4595380000000  0.3788010000000  0.4375050000000 1.0
C      1  0.4992680000000  0.5223390000000  0.4493420000000 1.0
C      1  0.5138830000000  0.5740400000000  0.4808470000000 1.0
C      1  0.4374010000000  0.3111800000000  0.4030030000000 1.0
C      1  0.5817610000000  0.5092180000000  0.5403320000000 1.0
C      1  0.4821540000000  0.4721450000000  0.4593480000000 1.0
C      1  0.4453090000000  0.5169360000000  0.4993570000000 1.0
C      1  0.5257100000000  0.5703430000000  0.5276400000000 1.0
C      1  0.5272640000000  0.5232060000000  0.4482680000000 1.0
C      1  0.4868160000000  0.4972500000000  0.4517270000000 1.0
C      1  0.4743600000000  0.4240930000000  0.4606670000000 1.0
C      1  0.4847720000000  0.5468420000000  0.4503650000000 1.0
C      1  0.4681860000000  0.5856290000000  0.5142460000000 1.0
C      1  0.4565120000000  0.4769130000000  0.5572760000000 1.0
C      1  0.4765480000000  0.5689040000000  0.5357140000000 1.0
C      1  0.4713880000000  0.4434700000000  0.5223200000000 1.0
C      1  0.4901550000000  0.4474540000000  0.5005720000000 1.0
C      1  0.4891160000000  0.5170960000000  0.5639050000000 1.0
C      1  0.5366790000000  0.5257180000000  0.5391670000000 1.0
C      1  0.4820620000000  0.4477010000000  0.4733420000000 1.0
C      1  0.4446990000000  0.3334730000000  0.4143780000000 1.0
C      1  0.5476170000000  0.5530610000000  0.5331540000000 1.0
C      1  0.4677030000000  0.5534680000000  0.4299950000000 1.0
C      1  0.5215020000000  0.5871400000000  0.5051090000000 1.0
END
