TITL C-3623288-6813-251 1.29160318143607e-06 125000 -420.111854199537 0 0 79 (C2) n - 1
REM
REM in /home/nfs/bkarasulu/CARBON/AIRSS/Generating-Clusters/LCBOP/Higher-Symm/SD-CG/FIRE-CG
REM
REM
REM
REM
REM
REM ./C.cell (b20cbc046b6831c77cfcea5457e17084)
REM AIRSS Version 0.9.1 bugfix July 2018 build 013d7b7c2542+ Fri, 06 Jul 2018 19:26:36 +0100
REM compiler GCC version 9.2.1 20190827 (Red Hat 9.2.1-1)
REM options -cpp -mtune=generic -march=x86-64 -g -O0 -fpre-include=/usr/include/finclude/math-vector-fortran.h
REM seed -1163976431 2073724099 1130202929 -1573866050 -1760483852 1152934529 -711166170 131623232 450236757 1806103811 2005206102 351167077 636130998 434506176 -1953014519 1975266620 -574377531 774254267 1161643200 -1264404299 821718131 -1121943217 859100713 630425537 1124866424 1171254333 -1155545256 2129174916 1112987983 -884026267 -1749731991 1187225126 -695228670
REM
CELL 1.54180   50.00000   50.00000   50.00000   90.00000   90.00000   90.00000
LATT -1
SFAC C  
C      1  0.5237790000000  0.5178410000000  0.5470380000000 1.0
C      1  0.5241340000000  0.5488140000000  0.5024530000000 1.0
C      1  0.5191180000000  0.5097360000000  0.4579660000000 1.0
C      1  0.5264440000000  0.4565090000000  0.4714090000000 1.0
C      1  0.5232950000000  0.4619350000000  0.5267640000000 1.0
C      1  0.4749650000000  0.5192510000000  0.4510460000000 1.0
C      1  0.4781260000000  0.5473740000000  0.4990320000000 1.0
C      1  0.4776500000000  0.5140380000000  0.5482780000000 1.0
C      1  0.4772880000000  0.4627820000000  0.5303880000000 1.0
C      1  0.4822920000000  0.4682780000000  0.4714300000000 1.0
C      1  0.4679170000000  0.4879070000000  0.5436030000000 1.0
C      1  0.4744380000000  0.5248260000000  0.5194910000000 1.0
C      1  0.4688290000000  0.5338760000000  0.4741890000000 1.0
C      1  0.4708740000000  0.4918820000000  0.4608300000000 1.0
C      1  0.4760000000000  0.4724130000000  0.5012880000000 1.0
C      1  0.5305350000000  0.4844060000000  0.4632500000000 1.0
C      1  0.5254160000000  0.5239270000000  0.4845590000000 1.0
C      1  0.5335100000000  0.5362420000000  0.5279040000000 1.0
C      1  0.5269860000000  0.4922010000000  0.5300760000000 1.0
C      1  0.5325860000000  0.4582660000000  0.4987280000000 1.0
C      1  0.4436850000000  0.5460710000000  0.5469870000000 1.0
C      1  0.4361810000000  0.5634790000000  0.4815630000000 1.0
C      1  0.4361920000000  0.4975240000000  0.4334480000000 1.0
C      1  0.4476230000000  0.4391180000000  0.4850200000000 1.0
C      1  0.4331980000000  0.4604340000000  0.5498880000000 1.0
C      1  0.5537880000000  0.5413160000000  0.4518300000000 1.0
C      1  0.5682270000000  0.5621660000000  0.5168460000000 1.0
C      1  0.5577460000000  0.4911550000000  0.5648020000000 1.0
C      1  0.5652370000000  0.4386380000000  0.5220770000000 1.0
C      1  0.5652120000000  0.4637530000000  0.4443960000000 1.0
C      1  0.5584300000000  0.4913180000000  0.5346580000000 1.0
C      1  0.5628960000000  0.5326000000000  0.5202890000000 1.0
C      1  0.5565360000000  0.5264520000000  0.4778020000000 1.0
C      1  0.5605510000000  0.4850650000000  0.4652100000000 1.0
C      1  0.5620930000000  0.4617430000000  0.5031400000000 1.0
C      1  0.4408580000000  0.4925020000000  0.4628100000000 1.0
C      1  0.4393230000000  0.5336560000000  0.4798090000000 1.0
C      1  0.4429950000000  0.5282330000000  0.5226870000000 1.0
C      1  0.4385290000000  0.4863840000000  0.5353080000000 1.0
C      1  0.4448790000000  0.4664030000000  0.4973090000000 1.0
C      1  0.5208800000000  0.5809350000000  0.4457100000000 1.0
C      1  0.5278220000000  0.4701450000000  0.4079950000000 1.0
C      1  0.5341690000000  0.4008830000000  0.5066730000000 1.0
C      1  0.5193580000000  0.4639410000000  0.5890680000000 1.0
C      1  0.5361760000000  0.5852620000000  0.5500950000000 1.0
C      1  0.4820770000000  0.5823460000000  0.5506330000000 1.0
C      1  0.4652580000000  0.4612690000000  0.5903570000000 1.0
C      1  0.4805320000000  0.4034570000000  0.5033320000000 1.0
C      1  0.4735750000000  0.4709680000000  0.4077350000000 1.0
C      1  0.4672430000000  0.5849840000000  0.4469150000000 1.0
C      1  0.5336100000000  0.5246680000000  0.4381130000000 1.0
C      1  0.5467600000000  0.4423540000000  0.4554650000000 1.0
C      1  0.5424230000000  0.4447670000000  0.5408740000000 1.0
C      1  0.5407850000000  0.5150140000000  0.5700100000000 1.0
C      1  0.5452720000000  0.5687820000000  0.4980630000000 1.0
C      1  0.4606490000000  0.5298200000000  0.5652130000000 1.0
C      1  0.4561500000000  0.4440450000000  0.5385690000000 1.0
C      1  0.4677970000000  0.4445320000000  0.4641360000000 1.0
C      1  0.4546440000000  0.5213430000000  0.4298320000000 1.0
C      1  0.4590000000000  0.5695580000000  0.5003710000000 1.0
C      1  0.4565400000000  0.4152690000000  0.4982490000000 1.0
C      1  0.4405720000000  0.4610830000000  0.5782420000000 1.0
C      1  0.4568590000000  0.5720140000000  0.5480630000000 1.0
C      1  0.4430640000000  0.5785110000000  0.4577990000000 1.0
C      1  0.4481840000000  0.4777160000000  0.4155610000000 1.0
C      1  0.5583510000000  0.4125140000000  0.5116750000000 1.0
C      1  0.5532150000000  0.4692790000000  0.4182880000000 1.0
C      1  0.5448720000000  0.5683880000000  0.4485300000000 1.0
C      1  0.5608600000000  0.5782950000000  0.5401760000000 1.0
C      1  0.5445740000000  0.4707920000000  0.5809130000000 1.0
C      1  0.5006980000000  0.4700050000000  0.4061670000000 1.0
C      1  0.4924070000000  0.4620340000000  0.5919160000000 1.0
C      1  0.4941930000000  0.5850460000000  0.4446760000000 1.0
C      1  0.5090280000000  0.5855610000000  0.5518120000000 1.0
C      1  0.5072190000000  0.3995200000000  0.5049040000000 1.0
C      1  0.5675380000000  0.4995810000000  0.5000680000000 1.0
C      1  0.4338800000000  0.5012290000000  0.4995480000000 1.0
C      1  0.5149330000000  0.5029220000000  0.5041910000000 1.0
C      1  0.4864860000000  0.5009430000000  0.5048370000000 1.0
END
