TITL C-3623285-6872-1605 5.5840791073947e-07 125000 -314.18325816119 0 0 52 (C1) n - 1
REM
REM in /home/nfs/bkarasulu/CARBON/AIRSS/Generating-Clusters/LCBOP/Higher-Symm/SD-CG/FIRE-CG
REM
REM
REM
REM
REM
REM ./C.cell (b20cbc046b6831c77cfcea5457e17084)
REM AIRSS Version 0.9.1 bugfix July 2018 build 013d7b7c2542+ Fri, 06 Jul 2018 19:26:36 +0100
REM compiler GCC version 9.2.1 20190827 (Red Hat 9.2.1-1)
REM options -cpp -mtune=generic -march=x86-64 -g -O0 -fpre-include=/usr/include/finclude/math-vector-fortran.h
REM seed 139617207 1857620853 -1890302696 43725896 -1492644993 148647906 1560257986 -432962821 1824331344 -880737024 -1036608604 -1741844807 -1640830728 -984477693 -1724472060 -1020216825 -1667227106 -572824653 1893921157 -630380817 488347880 1566534365 482162379 -2126973182 748316450 1458067706 -1824670747 -82703965 -1978734675 284018675 -1612193630 -1376885132 659396959
REM
CELL 1.54180   50.00000   50.00000   50.00000   90.00000   90.00000   90.00000
LATT -1
SFAC C  
C      1  0.5567730000000  0.4520600000000  0.5638370000000 1.0
C      1  0.5474990000000  0.4609680000000  0.4754610000000 1.0
C      1  0.4501630000000  0.4677390000000  0.4874390000000 1.0
C      1  0.5357940000000  0.5354860000000  0.5480640000000 1.0
C      1  0.5464120000000  0.5418860000000  0.4765890000000 1.0
C      1  0.4531450000000  0.5357970000000  0.4914560000000 1.0
C      1  0.3758500000000  0.5259950000000  0.5324860000000 1.0
C      1  0.5951110000000  0.5336210000000  0.4906570000000 1.0
C      1  0.4804780000000  0.5297810000000  0.4512820000000 1.0
C      1  0.3738000000000  0.4794150000000  0.5297180000000 1.0
C      1  0.5924300000000  0.4774550000000  0.4895580000000 1.0
C      1  0.4792900000000  0.4735270000000  0.4480450000000 1.0
C      1  0.5250890000000  0.4744440000000  0.4336690000000 1.0
C      1  0.4044400000000  0.4767290000000  0.4958780000000 1.0
C      1  0.5844160000000  0.4734020000000  0.5340880000000 1.0
C      1  0.5247440000000  0.5297670000000  0.4341380000000 1.0
C      1  0.4067700000000  0.5299520000000  0.4990480000000 1.0
C      1  0.5803550000000  0.5346220000000  0.5346980000000 1.0
C      1  0.5619540000000  0.5251450000000  0.5551300000000 1.0
C      1  0.5460680000000  0.5271620000000  0.4524850000000 1.0
C      1  0.4277020000000  0.5280040000000  0.4789930000000 1.0
C      1  0.5726120000000  0.4760510000000  0.5606350000000 1.0
C      1  0.5472790000000  0.4765130000000  0.4513370000000 1.0
C      1  0.4256060000000  0.4791690000000  0.4761010000000 1.0
C      1  0.4447470000000  0.4641830000000  0.5156830000000 1.0
C      1  0.5550740000000  0.4379880000000  0.5400190000000 1.0
C      1  0.5221600000000  0.4576390000000  0.4876900000000 1.0
C      1  0.4479500000000  0.5365170000000  0.5199380000000 1.0
C      1  0.5356780000000  0.5489840000000  0.5225720000000 1.0
C      1  0.5248690000000  0.5412160000000  0.4968470000000 1.0
C      1  0.5712270000000  0.5495720000000  0.4891830000000 1.0
C      1  0.4782580000000  0.5335010000000  0.4792050000000 1.0
C      1  0.4019620000000  0.5156360000000  0.5440270000000 1.0
C      1  0.5708180000000  0.4579860000000  0.4911390000000 1.0
C      1  0.4755470000000  0.4686680000000  0.4756670000000 1.0
C      1  0.4006470000000  0.4860300000000  0.5422650000000 1.0
C      1  0.5012530000000  0.5258430000000  0.4945410000000 1.0
C      1  0.4208910000000  0.5296380000000  0.5264480000000 1.0
C      1  0.5647240000000  0.5539000000000  0.5177410000000 1.0
C      1  0.4989480000000  0.4730210000000  0.4917100000000 1.0
C      1  0.4183680000000  0.4726010000000  0.5230660000000 1.0
C      1  0.5701380000000  0.4509760000000  0.5192500000000 1.0
C      1  0.4998700000000  0.4875970000000  0.4346810000000 1.0
C      1  0.3786020000000  0.4895440000000  0.5016310000000 1.0
C      1  0.5968510000000  0.4911390000000  0.5149710000000 1.0
C      1  0.4997680000000  0.5164580000000  0.4355700000000 1.0
C      1  0.3798880000000  0.5188560000000  0.5033850000000 1.0
C      1  0.5969250000000  0.5192230000000  0.5160130000000 1.0
C      1  0.5593910000000  0.5021400000000  0.4514150000000 1.0
C      1  0.5670860000000  0.5018580000000  0.5695870000000 1.0
C      1  0.4270190000000  0.5044070000000  0.4633410000000 1.0
C      1  0.5017340000000  0.4988070000000  0.5027790000000 1.0
END
