TITL C-3623283-6828-170 -7.85963215949241e-08 125000 -620.403406310333 0 0 98 (C7) n - 1
REM
REM in /home/nfs/bkarasulu/CARBON/AIRSS/Generating-Clusters/LCBOP/Higher-Symm/SD-CG/FIRE-CG
REM
REM
REM
REM
REM
REM ./C.cell (b20cbc046b6831c77cfcea5457e17084)
REM AIRSS Version 0.9.1 bugfix July 2018 build 013d7b7c2542+ Fri, 06 Jul 2018 19:26:36 +0100
REM compiler GCC version 9.2.1 20190827 (Red Hat 9.2.1-1)
REM options -cpp -mtune=generic -march=x86-64 -g -O0 -fpre-include=/usr/include/finclude/math-vector-fortran.h
REM seed -463145805 -1514261557 1815686505 1459363621 -325772130 -2115652272 -1333690312 -194876708 -175125329 -559046950 -2102718819 347788345 -1687059516 -488211696 461190670 953165512 -301528597 1698064860 -1999444775 -2135110169 -1384289680 -952138465 1721750812 -2092662289 1883694259 1498913616 609741318 -545238778 -416284541 2025499883 283710365 870064660 666071181
REM
CELL 1.54180   50.00000   50.00000   50.00000   90.00000   90.00000   90.00000
LATT -1
SFAC C  
C      1  0.4951130000000  0.5178940000000  0.3956970000000 1.0
C      1  0.4154060000000  0.5178940000000  0.4387890000000 1.0
C      1  0.3994000000000  0.5178950000000  0.5279740000000 1.0
C      1  0.4591480000000  0.5178960000000  0.5960930000000 1.0
C      1  0.5496580000000  0.5178960000000  0.5918530000000 1.0
C      1  0.6027750000000  0.5178950000000  0.5184450000000 1.0
C      1  0.5785000000000  0.5178950000000  0.4311480000000 1.0
C      1  0.4682880000000  0.5262560000000  0.4950600000000 1.0
C      1  0.4763660000000  0.5262560000000  0.5217130000000 1.0
C      1  0.5022410000000  0.5262560000000  0.5320160000000 1.0
C      1  0.5264280000000  0.5262560000000  0.5182100000000 1.0
C      1  0.5307140000000  0.5262560000000  0.4906910000000 1.0
C      1  0.5118720000000  0.5262550000000  0.4701820000000 1.0
C      1  0.4840900000000  0.5262550000000  0.4721270000000 1.0
C      1  0.4726800000000  0.5836190000000  0.4814580000000 1.0
C      1  0.4684700000000  0.5836200000000  0.5097990000000 1.0
C      1  0.4880030000000  0.5836200000000  0.5307600000000 1.0
C      1  0.5165690000000  0.5836200000000  0.5285580000000 1.0
C      1  0.5326590000000  0.5836200000000  0.5048510000000 1.0
C      1  0.5241550000000  0.5836190000000  0.4774900000000 1.0
C      1  0.4974620000000  0.5836190000000  0.4670800000000 1.0
C      1  0.5231840000000  0.4031150000000  0.5230010000000 1.0
C      1  0.5324370000000  0.4031140000000  0.4962160000000 1.0
C      1  0.5172650000000  0.4031140000000  0.4722810000000 1.0
C      1  0.4890920000000  0.4031140000000  0.4692190000000 1.0
C      1  0.4691330000000  0.4031140000000  0.4893370000000 1.0
C      1  0.4724180000000  0.4031150000000  0.5174850000000 1.0
C      1  0.4964730000000  0.4031150000000  0.5324670000000 1.0
C      1  0.5870200000000  0.4531710000000  0.4914310000000 1.0
C      1  0.5475560000000  0.4531710000000  0.4266230000000 1.0
C      1  0.4722820000000  0.4531700000000  0.4170690000000 1.0
C      1  0.4178800000000  0.4531710000000  0.4699640000000 1.0
C      1  0.4253160000000  0.4531710000000  0.5454770000000 1.0
C      1  0.4889910000000  0.4531720000000  0.5867450000000 1.0
C      1  0.5609560000000  0.4531720000000  0.5626920000000 1.0
C      1  0.5390820000000  0.4944750000000  0.5796020000000 1.0
C      1  0.5866030000000  0.4944750000000  0.5190760000000 1.0
C      1  0.5689100000000  0.4944740000000  0.4441850000000 1.0
C      1  0.4993270000000  0.4944740000000  0.4113240000000 1.0
C      1  0.4302500000000  0.4944740000000  0.4452380000000 1.0
C      1  0.4136970000000  0.4944750000000  0.5203890000000 1.0
C      1  0.4621310000000  0.4944750000000  0.5801870000000 1.0
C      1  0.5992590000000  0.5444190000000  0.5159340000000 1.0
C      1  0.5743450000000  0.5444180000000  0.4323300000000 1.0
C      1  0.4934470000000  0.5444170000000  0.3996830000000 1.0
C      1  0.4174840000000  0.5444180000000  0.4425770000000 1.0
C      1  0.4036570000000  0.5444180000000  0.5287110000000 1.0
C      1  0.4623780000000  0.5444190000000  0.5932250000000 1.0
C      1  0.5494300000000  0.5444190000000  0.5875380000000 1.0
C      1  0.5563730000000  0.5183140000000  0.4827860000000 1.0
C      1  0.5216900000000  0.5183140000000  0.4451930000000 1.0
C      1  0.4706740000000  0.5183140000000  0.4488710000000 1.0
C      1  0.4417410000000  0.5183140000000  0.4910500000000 1.0
C      1  0.4566780000000  0.5183140000000  0.5399680000000 1.0
C      1  0.5042380000000  0.5183150000000  0.5587900000000 1.0
C      1  0.5486060000000  0.5183150000000  0.5333410000000 1.0
C      1  0.5599190000000  0.4093320000000  0.4930210000000 1.0
C      1  0.5319020000000  0.4093310000000  0.4488030000000 1.0
C      1  0.4798630000000  0.4093310000000  0.4431370000000 1.0
C      1  0.4429870000000  0.4093310000000  0.4802910000000 1.0
C      1  0.4490430000000  0.4093320000000  0.5322870000000 1.0
C      1  0.4934710000000  0.4093320000000  0.5599700000000 1.0
C      1  0.5428160000000  0.4093320000000  0.5424960000000 1.0
C      1  0.5618490000000  0.5656680000000  0.4427270000000 1.0
C      1  0.4937850000000  0.5656680000000  0.4159350000000 1.0
C      1  0.4304010000000  0.5656680000000  0.4524460000000 1.0
C      1  0.4194260000000  0.5656680000000  0.5247650000000 1.0
C      1  0.4691260000000  0.5656690000000  0.5784350000000 1.0
C      1  0.5420740000000  0.5656690000000  0.5730420000000 1.0
C      1  0.5833390000000  0.5656690000000  0.5126460000000 1.0
C      1  0.4251180000000  0.4278760000000  0.4736230000000 1.0
C      1  0.4326890000000  0.4278760000000  0.5420990000000 1.0
C      1  0.4909470000000  0.4278770000000  0.5788750000000 1.0
C      1  0.5560220000000  0.4278770000000  0.5562560000000 1.0
C      1  0.5789110000000  0.4278760000000  0.4912760000000 1.0
C      1  0.5423790000000  0.4278760000000  0.4328660000000 1.0
C      1  0.4739350000000  0.4278760000000  0.4250090000000 1.0
C      1  0.4777420000000  0.5791990000000  0.5570560000000 1.0
C      1  0.5307310000000  0.5791990000000  0.5529750000000 1.0
C      1  0.5605790000000  0.5791990000000  0.5090030000000 1.0
C      1  0.5448090000000  0.5791990000000  0.4582500000000 1.0
C      1  0.4952970000000  0.5791980000000  0.4389360000000 1.0
C      1  0.4493260000000  0.5791990000000  0.4656030000000 1.0
C      1  0.4415140000000  0.5791990000000  0.5181720000000 1.0
C      1  0.4754870000000  0.4806230000000  0.4205150000000 1.0
C      1  0.4225720000000  0.4806240000000  0.4696070000000 1.0
C      1  0.4279620000000  0.4806240000000  0.5415850000000 1.0
C      1  0.4875980000000  0.4806250000000  0.5822500000000 1.0
C      1  0.5565730000000  0.4806250000000  0.5609780000000 1.0
C      1  0.5829470000000  0.4806240000000  0.4937890000000 1.0
C      1  0.5468610000000  0.4806240000000  0.4312770000000 1.0
C      1  0.5106680000000  0.4960390000000  0.5748290000000 1.0
C      1  0.5651550000000  0.4960390000000  0.5383150000000 1.0
C      1  0.5705790000000  0.4960380000000  0.4729490000000 1.0
C      1  0.5228560000000  0.4960380000000  0.4279530000000 1.0
C      1  0.4579220000000  0.4960370000000  0.4372100000000 1.0
C      1  0.4246730000000  0.4960380000000  0.4937490000000 1.0
C      1  0.4481470000000  0.4960380000000  0.5549950000000 1.0
END
