TITL C-3623285-6872-1546 -4640.43564908204 125000 -1189.30855766081 0 0 195 (C1) n - 1
REM
REM in /home/nfs/bkarasulu/CARBON/AIRSS/Generating-Clusters/LCBOP/Higher-Symm/SD-CG/FIRE-CG
REM
REM
REM
REM
REM
REM ./C.cell (b20cbc046b6831c77cfcea5457e17084)
REM AIRSS Version 0.9.1 bugfix July 2018 build 013d7b7c2542+ Fri, 06 Jul 2018 19:26:36 +0100
REM compiler GCC version 9.2.1 20190827 (Red Hat 9.2.1-1)
REM options -cpp -mtune=generic -march=x86-64 -g -O0 -fpre-include=/usr/include/finclude/math-vector-fortran.h
REM seed 1611822602 319856527 -542536344 -1831772834 -1900275645 -3768802 -1137217320 1027578955 1423431582 -758649682 1827676103 1526216533 789553209 42783682 -2019169838 -1804786388 -1947909082 1692216409 1602136937 -682986698 -1713848670 -241335345 -1315236319 -811218372 -642051510 -1567326315 -1862398666 -1740529076 -1497663057 -1694631145 -1191141956 1778815471 278594509
REM
CELL 1.54180   50.00000   50.00000   50.00000   90.00000   90.00000   90.00000
LATT -1
SFAC C  
C      1  0.5798480000000  0.5466250000000  0.5528830000000 1.0
C      1  0.5794150000000  0.5643100000000  0.4726550000000 1.0
C      1  0.5794650000000  0.4934010000000  0.4304750000000 1.0
C      1  0.5786490000000  0.4320970000000  0.4844980000000 1.0
C      1  0.5810370000000  0.4640800000000  0.5617390000000 1.0
C      1  0.5221930000000  0.5240940000000  0.4596800000000 1.0
C      1  0.5225840000000  0.4703360000000  0.4633610000000 1.0
C      1  0.5232590000000  0.4568020000000  0.5205040000000 1.0
C      1  0.5243240000000  0.5046280000000  0.5471060000000 1.0
C      1  0.5233850000000  0.5447710000000  0.5099820000000 1.0
C      1  0.5466640000000  0.5712090000000  0.5864400000000 1.0
C      1  0.5462490000000  0.6039400000000  0.4598930000000 1.0
C      1  0.5468970000000  0.4936620000000  0.3883650000000 1.0
C      1  0.5458700000000  0.3925020000000  0.4707850000000 1.0
C      1  0.5478990000000  0.4392640000000  0.5951180000000 1.0
C      1  0.3800810000000  0.5761330000000  0.5251830000000 1.0
C      1  0.3800520000000  0.5475620000000  0.4338660000000 1.0
C      1  0.3801580000000  0.4523140000000  0.4332880000000 1.0
C      1  0.3796020000000  0.4238650000000  0.5238650000000 1.0
C      1  0.3805180000000  0.4986220000000  0.5846430000000 1.0
C      1  0.4911520000000  0.4812890000000  0.5776820000000 1.0
C      1  0.4901560000000  0.5682170000000  0.5428570000000 1.0
C      1  0.4901770000000  0.5621800000000  0.4470360000000 1.0
C      1  0.4900620000000  0.4698910000000  0.4251780000000 1.0
C      1  0.4904070000000  0.4184280000000  0.5053440000000 1.0
C      1  0.5269320000000  0.4929250000000  0.3684360000000 1.0
C      1  0.5265490000000  0.3728220000000  0.4649810000000 1.0
C      1  0.5268470000000  0.4276520000000  0.6099320000000 1.0
C      1  0.5268200000000  0.5834700000000  0.6022790000000 1.0
C      1  0.5264380000000  0.6228200000000  0.4530750000000 1.0
C      1  0.5444810000000  0.4768490000000  0.5091880000000 1.0
C      1  0.5465970000000  0.5020650000000  0.5253650000000 1.0
C      1  0.5470410000000  0.5252250000000  0.5060030000000 1.0
C      1  0.5456750000000  0.5138460000000  0.4780050000000 1.0
C      1  0.5446390000000  0.4841010000000  0.4803760000000 1.0
C      1  0.4353100000000  0.4102070000000  0.4395900000000 1.0
C      1  0.4342310000000  0.4175300000000  0.5669940000000 1.0
C      1  0.4354360000000  0.5379110000000  0.6024930000000 1.0
C      1  0.4351120000000  0.6066820000000  0.4952190000000 1.0
C      1  0.4350020000000  0.5283250000000  0.3954420000000 1.0
C      1  0.4078260000000  0.4993480000000  0.5848650000000 1.0
C      1  0.4072600000000  0.5785900000000  0.5260780000000 1.0
C      1  0.4073140000000  0.5487390000000  0.4325140000000 1.0
C      1  0.4074090000000  0.4513630000000  0.4318020000000 1.0
C      1  0.4068080000000  0.4215860000000  0.5248800000000 1.0
C      1  0.5457110000000  0.3851910000000  0.6757480000000 1.0
C      1  0.5500240000000  0.6364480000000  0.6583380000000 1.0
C      1  0.5498960000000  0.6930590000000  0.4213920000000 1.0
C      1  0.5499800000000  0.4840140000000  0.2917680000000 1.0
C      1  0.5516050000000  0.2978900000000  0.4493640000000 1.0
C      1  0.4782980000000  0.4063130000000  0.5518460000000 1.0
C      1  0.4805670000000  0.5212550000000  0.6050530000000 1.0
C      1  0.4799160000000  0.6053070000000  0.5122520000000 1.0
C      1  0.4798020000000  0.5445120000000  0.4017740000000 1.0
C      1  0.4803140000000  0.4220020000000  0.4277840000000 1.0
C      1  0.5955870000000  0.5417520000000  0.4670080000000 1.0
C      1  0.5955410000000  0.4811840000000  0.4503510000000 1.0
C      1  0.5946240000000  0.4466610000000  0.5027720000000 1.0
C      1  0.5963470000000  0.4859650000000  0.5522600000000 1.0
C      1  0.5960730000000  0.5447750000000  0.5297460000000 1.0
C      1  0.4112810000000  0.4674630000000  0.3608610000000 1.0
C      1  0.4108270000000  0.3568130000000  0.4913910000000 1.0
C      1  0.4153960000000  0.4441260000000  0.6310790000000 1.0
C      1  0.4113770000000  0.6115920000000  0.5912070000000 1.0
C      1  0.4106530000000  0.6212520000000  0.4263810000000 1.0
C      1  0.5263450000000  0.4554760000000  0.5506450000000 1.0
C      1  0.5230260000000  0.5325570000000  0.5573450000000 1.0
C      1  0.5216870000000  0.5640760000000  0.4870110000000 1.0
C      1  0.5221010000000  0.5080610000000  0.4340920000000 1.0
C      1  0.5216730000000  0.4418370000000  0.4731020000000 1.0
C      1  0.5424580000000  0.4868400000000  0.3165680000000 1.0
C      1  0.5434240000000  0.3221080000000  0.4544800000000 1.0
C      1  0.5395640000000  0.3989780000000  0.6544930000000 1.0
C      1  0.5424410000000  0.6193480000000  0.6401800000000 1.0
C      1  0.5422280000000  0.6703150000000  0.4315680000000 1.0
C      1  0.4261340000000  0.4764060000000  0.4884960000000 1.0
C      1  0.4263640000000  0.4820090000000  0.5192840000000 1.0
C      1  0.4254030000000  0.5128890000000  0.5238650000000 1.0
C      1  0.4260540000000  0.5263280000000  0.4950410000000 1.0
C      1  0.4264410000000  0.5032840000000  0.4737850000000 1.0
C      1  0.4213960000000  0.4081230000000  0.5043920000000 1.0
C      1  0.4233260000000  0.4756130000000  0.5878690000000 1.0
C      1  0.4215930000000  0.5775090000000  0.5506530000000 1.0
C      1  0.4217740000000  0.5710340000000  0.4428390000000 1.0
C      1  0.4219860000000  0.4678800000000  0.4137800000000 1.0
C      1  0.4707580000000  0.4613150000000  0.5793400000000 1.0
C      1  0.4695620000000  0.5655820000000  0.5629690000000 1.0
C      1  0.4695680000000  0.5794720000000  0.4570290000000 1.0
C      1  0.4697400000000  0.4838740000000  0.4108900000000 1.0
C      1  0.4694600000000  0.4094060000000  0.4872830000000 1.0
C      1  0.5971940000000  0.5954410000000  0.5195990000000 1.0
C      1  0.5966270000000  0.5479720000000  0.4156060000000 1.0
C      1  0.5973450000000  0.4344560000000  0.4282970000000 1.0
C      1  0.5948890000000  0.4109310000000  0.5402970000000 1.0
C      1  0.5975470000000  0.5119210000000  0.5970040000000 1.0
C      1  0.4367200000000  0.4594230000000  0.5404970000000 1.0
C      1  0.4348740000000  0.5280460000000  0.5545770000000 1.0
C      1  0.4367270000000  0.5573350000000  0.4904060000000 1.0
C      1  0.4370020000000  0.5088920000000  0.4407350000000 1.0
C      1  0.4360790000000  0.4464130000000  0.4727480000000 1.0
C      1  0.4424130000000  0.4212160000000  0.4901710000000 1.0
C      1  0.4439430000000  0.4681570000000  0.5693520000000 1.0
C      1  0.4422590000000  0.5582190000000  0.5543360000000 1.0
C      1  0.4429650000000  0.5677520000000  0.4617920000000 1.0
C      1  0.4431080000000  0.4846870000000  0.4230140000000 1.0
C      1  0.5272350000000  0.6265140000000  0.5241640000000 1.0
C      1  0.5273090000000  0.5619750000000  0.3856510000000 1.0
C      1  0.5276920000000  0.4122540000000  0.4055850000000 1.0
C      1  0.5253480000000  0.3820020000000  0.5551400000000 1.0
C      1  0.5279630000000  0.5166810000000  0.6286990000000 1.0
C      1  0.5344630000000  0.6471910000000  0.4419070000000 1.0
C      1  0.5348270000000  0.4897010000000  0.3417780000000 1.0
C      1  0.5351240000000  0.3467230000000  0.4596900000000 1.0
C      1  0.5333300000000  0.4130090000000  0.6329010000000 1.0
C      1  0.5347560000000  0.6019750000000  0.6217120000000 1.0
C      1  0.4634780000000  0.4543230000000  0.4628650000000 1.0
C      1  0.4619120000000  0.4483220000000  0.5274590000000 1.0
C      1  0.4621590000000  0.5149660000000  0.5590030000000 1.0
C      1  0.4632540000000  0.5573650000000  0.5058620000000 1.0
C      1  0.4624890000000  0.5242310000000  0.4450270000000 1.0
C      1  0.4751990000000  0.3933670000000  0.4645800000000 1.0
C      1  0.4758000000000  0.4350390000000  0.5887580000000 1.0
C      1  0.4755330000000  0.5657410000000  0.5907730000000 1.0
C      1  0.4751630000000  0.6059060000000  0.4656150000000 1.0
C      1  0.4754430000000  0.4998080000000  0.3881050000000 1.0
C      1  0.4156520000000  0.5955650000000  0.5711100000000 1.0
C      1  0.4154180000000  0.5967440000000  0.4338420000000 1.0
C      1  0.4158540000000  0.4671760000000  0.3865130000000 1.0
C      1  0.4152690000000  0.3815360000000  0.4983240000000 1.0
C      1  0.4187160000000  0.4594290000000  0.6102500000000 1.0
C      1  0.5761130000000  0.3943960000000  0.5494370000000 1.0
C      1  0.5788420000000  0.5156300000000  0.6156060000000 1.0
C      1  0.5782550000000  0.6140580000000  0.5217580000000 1.0
C      1  0.5779890000000  0.5557710000000  0.3982410000000 1.0
C      1  0.5786440000000  0.4206930000000  0.4152360000000 1.0
C      1  0.4746660000000  0.4657510000000  0.5099120000000 1.0
C      1  0.4726670000000  0.5137220000000  0.5337850000000 1.0
C      1  0.4729240000000  0.5319180000000  0.5109350000000 1.0
C      1  0.4723330000000  0.5211670000000  0.4705150000000 1.0
C      1  0.4763080000000  0.4691670000000  0.4824770000000 1.0
C      1  0.4217220000000  0.4330520000000  0.5460730000000 1.0
C      1  0.4218930000000  0.5236320000000  0.5814710000000 1.0
C      1  0.4226000000000  0.5817820000000  0.5025430000000 1.0
C      1  0.4223640000000  0.5275300000000  0.4213530000000 1.0
C      1  0.4225070000000  0.4343600000000  0.4485400000000 1.0
C      1  0.4628080000000  0.5255850000000  0.3889280000000 1.0
C      1  0.4630770000000  0.4032900000000  0.4405580000000 1.0
C      1  0.4620470000000  0.4149490000000  0.5735430000000 1.0
C      1  0.4633590000000  0.5440260000000  0.6051590000000 1.0
C      1  0.4627840000000  0.6122820000000  0.4906430000000 1.0
C      1  0.4783490000000  0.4479030000000  0.4390660000000 1.0
C      1  0.4767050000000  0.4238440000000  0.5299440000000 1.0
C      1  0.4786920000000  0.5067750000000  0.5808520000000 1.0
C      1  0.4780820000000  0.5780150000000  0.5189950000000 1.0
C      1  0.4779430000000  0.5429700000000  0.4298040000000 1.0
C      1  0.4996500000000  0.4298890000000  0.6027590000000 1.0
C      1  0.4993660000000  0.5778170000000  0.5994600000000 1.0
C      1  0.4989320000000  0.6182530000000  0.4571350000000 1.0
C      1  0.4994240000000  0.4953990000000  0.3740990000000 1.0
C      1  0.4989680000000  0.3784370000000  0.4641790000000 1.0
C      1  0.5014110000000  0.5571230000000  0.3894130000000 1.0
C      1  0.5019120000000  0.4147620000000  0.4116670000000 1.0
C      1  0.4995160000000  0.3883790000000  0.5545170000000 1.0
C      1  0.5021390000000  0.5179280000000  0.6224150000000 1.0
C      1  0.5014460000000  0.6209230000000  0.5207240000000 1.0
C      1  0.5652980000000  0.5591980000000  0.5715030000000 1.0
C      1  0.5647970000000  0.5859310000000  0.4667040000000 1.0
C      1  0.5652860000000  0.4944370000000  0.4077770000000 1.0
C      1  0.5642080000000  0.4111860000000  0.4761270000000 1.0
C      1  0.5670030000000  0.4500500000000  0.5797660000000 1.0
C      1  0.5541910000000  0.4139220000000  0.4072110000000 1.0
C      1  0.5517980000000  0.3844890000000  0.5537580000000 1.0
C      1  0.5544460000000  0.5164510000000  0.6261990000000 1.0
C      1  0.5537350000000  0.6241600000000  0.5239970000000 1.0
C      1  0.5537300000000  0.5610200000000  0.3886370000000 1.0
C      1  0.5993370000000  0.4913440000000  0.4767910000000 1.0
C      1  0.5991660000000  0.4748300000000  0.5013950000000 1.0
C      1  0.5997410000000  0.4930580000000  0.5247510000000 1.0
C      1  0.5999540000000  0.5209090000000  0.5145010000000 1.0
C      1  0.5996920000000  0.5198210000000  0.4848830000000 1.0
C      1  0.5162250000000  0.4794170000000  0.4345000000000 1.0
C      1  0.5146740000000  0.4343970000000  0.5003320000000 1.0
C      1  0.5177000000000  0.4798110000000  0.5648590000000 1.0
C      1  0.5150310000000  0.5532050000000  0.5387920000000 1.0
C      1  0.5146410000000  0.5540140000000  0.4607580000000 1.0
C      1  0.6043880000000  0.5410190000000  0.4402180000000 1.0
C      1  0.6048270000000  0.4556500000000  0.4427650000000 1.0
C      1  0.6029330000000  0.4311730000000  0.5248190000000 1.0
C      1  0.6052060000000  0.5028590000000  0.5730550000000 1.0
C      1  0.6050740000000  0.5699170000000  0.5206490000000 1.0
C      1  0.4990300000000  0.5127730000000  0.4768780000000 1.0
C      1  0.4986700000000  0.4837930000000  0.4756510000000 1.0
C      1  0.4986510000000  0.4748890000000  0.5201380000000 1.0
C      1  0.5009660000000  0.5021130000000  0.5282890000000 1.0
C      1  0.5019280000000  0.5244110000000  0.5034980000000 1.0
END
