TITL C-3623287-7182-1987 78.6442573729668 125000 -1051.78752197045 0 0 173 (C1) n - 1
REM
REM in /home/nfs/bkarasulu/CARBON/AIRSS/Generating-Clusters/LCBOP/Higher-Symm/SD-CG/FIRE-CG
REM
REM
REM
REM
REM
REM ./C.cell (b20cbc046b6831c77cfcea5457e17084)
REM AIRSS Version 0.9.1 bugfix July 2018 build 013d7b7c2542+ Fri, 06 Jul 2018 19:26:36 +0100
REM compiler GCC version 9.2.1 20190827 (Red Hat 9.2.1-1)
REM options -cpp -mtune=generic -march=x86-64 -g -O0 -fpre-include=/usr/include/finclude/math-vector-fortran.h
REM seed -1526930614 -2017136025 1700230560 685507659 -2035122546 255142512 1462425972 1945643030 54261692 -1433990671 -502084048 2092437487 851876046 -546481143 -1397435560 -1352744458 -1363245255 -1826125875 398544879 -927676560 -1910009619 54560128 -1861414764 -507301421 291033174 -987403544 967058800 527976129 977247749 1720400916 -1981553686 -505962720 -1435163392
REM
CELL 1.54180   50.00000   50.00000   50.00000   90.00000   90.00000   90.00000
LATT -1
SFAC C  
C      1  0.5680910000000  0.4819570000000  0.5006790000000 1.0
C      1  0.4972400000000  0.5651370000000  0.4873910000000 1.0
C      1  0.4842420000000  0.4993890000000  0.5624510000000 1.0
C      1  0.5680570000000  0.5088510000000  0.5058830000000 1.0
C      1  0.4338490000000  0.5108620000000  0.4965950000000 1.0
C      1  0.4329770000000  0.4832240000000  0.4998270000000 1.0
C      1  0.5045800000000  0.4298930000000  0.5121550000000 1.0
C      1  0.5123770000000  0.4285800000000  0.4858070000000 1.0
C      1  0.5050960000000  0.5647100000000  0.5137270000000 1.0
C      1  0.4887740000000  0.5079700000000  0.4338100000000 1.0
C      1  0.5114990000000  0.5036320000000  0.5646740000000 1.0
C      1  0.5156730000000  0.5017160000000  0.4355500000000 1.0
C      1  0.4897780000000  0.6116300000000  0.4887530000000 1.0
C      1  0.4842220000000  0.4993020000000  0.6101260000000 1.0
C      1  0.6157500000000  0.4826920000000  0.4963450000000 1.0
C      1  0.4934930000000  0.3857940000000  0.5118090000000 1.0
C      1  0.5094800000000  0.3822160000000  0.4875360000000 1.0
C      1  0.5086930000000  0.6119570000000  0.5108430000000 1.0
C      1  0.4897900000000  0.5109290000000  0.3868120000000 1.0
C      1  0.5093770000000  0.5134770000000  0.6112440000000 1.0
C      1  0.5163060000000  0.4989980000000  0.3881470000000 1.0
C      1  0.6149640000000  0.5067200000000  0.5125910000000 1.0
C      1  0.3854600000000  0.5116260000000  0.4961050000000 1.0
C      1  0.3856600000000  0.4904700000000  0.5159140000000 1.0
C      1  0.4952150000000  0.5891790000000  0.4711890000000 1.0
C      1  0.4694950000000  0.5061140000000  0.5856900000000 1.0
C      1  0.5923620000000  0.4658870000000  0.5015150000000 1.0
C      1  0.5056350000000  0.4071270000000  0.5292840000000 1.0
C      1  0.5060410000000  0.4050050000000  0.4698020000000 1.0
C      1  0.5042700000000  0.5894870000000  0.5288430000000 1.0
C      1  0.4736620000000  0.5028010000000  0.4092490000000 1.0
C      1  0.5260860000000  0.5039080000000  0.5897950000000 1.0
C      1  0.5312280000000  0.5075180000000  0.4122460000000 1.0
C      1  0.5928400000000  0.5237680000000  0.5044580000000 1.0
C      1  0.4096400000000  0.5263740000000  0.5000910000000 1.0
C      1  0.4069970000000  0.4730840000000  0.5049580000000 1.0
C      1  0.5793280000000  0.5028900000000  0.4188220000000 1.0
C      1  0.4078510000000  0.5742480000000  0.4951430000000 1.0
C      1  0.4950730000000  0.4176700000000  0.5756400000000 1.0
C      1  0.5759420000000  0.5027520000000  0.5914770000000 1.0
C      1  0.4223060000000  0.4963310000000  0.4148770000000 1.0
C      1  0.4221480000000  0.5037110000000  0.5869010000000 1.0
C      1  0.4010330000000  0.4279200000000  0.5013330000000 1.0
C      1  0.5904900000000  0.4167300000000  0.4909450000000 1.0
C      1  0.5913950000000  0.5736780000000  0.5059420000000 1.0
C      1  0.4863330000000  0.5876730000000  0.4210280000000 1.0
C      1  0.5111900000000  0.5910360000000  0.5787440000000 1.0
C      1  0.5085770000000  0.4132790000000  0.4198270000000 1.0
C      1  0.6117930000000  0.4437630000000  0.4522290000000 1.0
C      1  0.4464000000000  0.6109420000000  0.4427030000000 1.0
C      1  0.4426110000000  0.4609820000000  0.6086740000000 1.0
C      1  0.6111050000000  0.5536690000000  0.5490310000000 1.0
C      1  0.3853120000000  0.5451460000000  0.4568930000000 1.0
C      1  0.3873690000000  0.4474370000000  0.5490280000000 1.0
C      1  0.4506780000000  0.3992440000000  0.5517100000000 1.0
C      1  0.5483290000000  0.3852910000000  0.4369270000000 1.0
C      1  0.5515810000000  0.6121970000000  0.5559290000000 1.0
C      1  0.4342780000000  0.5406770000000  0.3908880000000 1.0
C      1  0.5601600000000  0.5460100000000  0.6141860000000 1.0
C      1  0.5608080000000  0.4614340000000  0.3930800000000 1.0
C      1  0.5674560000000  0.5365060000000  0.5500770000000 1.0
C      1  0.5514080000000  0.5675330000000  0.5418710000000 1.0
C      1  0.5435600000000  0.5501220000000  0.5706140000000 1.0
C      1  0.5687430000000  0.4614890000000  0.4537290000000 1.0
C      1  0.4298880000000  0.4668820000000  0.5499290000000 1.0
C      1  0.4297520000000  0.5338330000000  0.4519810000000 1.0
C      1  0.5559930000000  0.4277210000000  0.4544270000000 1.0
C      1  0.4461210000000  0.4415750000000  0.5331040000000 1.0
C      1  0.4435780000000  0.5666470000000  0.4578220000000 1.0
C      1  0.5420350000000  0.4522800000000  0.4348220000000 1.0
C      1  0.4573340000000  0.4532990000000  0.5650280000000 1.0
C      1  0.4544650000000  0.5472240000000  0.4322160000000 1.0
C      1  0.6110460000000  0.5686410000000  0.5263820000000 1.0
C      1  0.5295360000000  0.6118870000000  0.5717330000000 1.0
C      1  0.5718750000000  0.5215600000000  0.6128310000000 1.0
C      1  0.6105510000000  0.4251130000000  0.4719950000000 1.0
C      1  0.3856860000000  0.4322410000000  0.5263130000000 1.0
C      1  0.3880360000000  0.5649800000000  0.4757280000000 1.0
C      1  0.5263870000000  0.3907270000000  0.4218430000000 1.0
C      1  0.4731090000000  0.4002010000000  0.5671450000000 1.0
C      1  0.4685740000000  0.6092560000000  0.4272540000000 1.0
C      1  0.5742350000000  0.4847960000000  0.3966280000000 1.0
C      1  0.4298890000000  0.4850340000000  0.6078440000000 1.0
C      1  0.4207440000000  0.5173610000000  0.3952520000000 1.0
C      1  0.4238150000000  0.5967180000000  0.4866340000000 1.0
C      1  0.4862990000000  0.4356390000000  0.5966580000000 1.0
C      1  0.5997870000000  0.4917520000000  0.4360640000000 1.0
C      1  0.4241690000000  0.4094870000000  0.5071340000000 1.0
C      1  0.5736990000000  0.3950040000000  0.4814370000000 1.0
C      1  0.5736060000000  0.5955560000000  0.5123660000000 1.0
C      1  0.4767270000000  0.5707440000000  0.3994280000000 1.0
C      1  0.5195240000000  0.5750720000000  0.6012510000000 1.0
C      1  0.5173880000000  0.4334600000000  0.4005520000000 1.0
C      1  0.5975960000000  0.5103730000000  0.5739870000000 1.0
C      1  0.4037740000000  0.4971280000000  0.4379540000000 1.0
C      1  0.3994270000000  0.4931060000000  0.5726870000000 1.0
C      1  0.4935650000000  0.4532230000000  0.5215380000000 1.0
C      1  0.5275900000000  0.4926200000000  0.4589930000000 1.0
C      1  0.4577750000000  0.5266050000000  0.5016270000000 1.0
C      1  0.4996070000000  0.5414300000000  0.4719330000000 1.0
C      1  0.5032800000000  0.5407460000000  0.5297410000000 1.0
C      1  0.5070490000000  0.4527790000000  0.4722010000000 1.0
C      1  0.5277830000000  0.4958580000000  0.5422910000000 1.0
C      1  0.4727870000000  0.5050040000000  0.4570290000000 1.0
C      1  0.4729250000000  0.4916390000000  0.5380680000000 1.0
C      1  0.4574240000000  0.4695330000000  0.4935050000000 1.0
C      1  0.5437550000000  0.4668160000000  0.5010440000000 1.0
C      1  0.5444400000000  0.5243330000000  0.4999880000000 1.0
C      1  0.5452880000000  0.5411620000000  0.4503400000000 1.0
C      1  0.4462160000000  0.5452380000000  0.5233320000000 1.0
C      1  0.5400080000000  0.4452610000000  0.5461490000000 1.0
C      1  0.5440200000000  0.4739370000000  0.5561350000000 1.0
C      1  0.4553800000000  0.4830310000000  0.4486680000000 1.0
C      1  0.4567210000000  0.5419590000000  0.5510890000000 1.0
C      1  0.4611580000000  0.4607430000000  0.4652340000000 1.0
C      1  0.5523010000000  0.4436310000000  0.5187370000000 1.0
C      1  0.5561410000000  0.5426450000000  0.4783880000000 1.0
C      1  0.5168010000000  0.5514590000000  0.4491600000000 1.0
C      1  0.4852290000000  0.5511990000000  0.5523080000000 1.0
C      1  0.4838460000000  0.4451850000000  0.4560030000000 1.0
C      1  0.4937210000000  0.4182500000000  0.4449020000000 1.0
C      1  0.4494020000000  0.4884770000000  0.4204070000000 1.0
C      1  0.3993500000000  0.4538380000000  0.4846080000000 1.0
C      1  0.4962030000000  0.5799170000000  0.5563410000000 1.0
C      1  0.5030890000000  0.5789000000000  0.4434670000000 1.0
C      1  0.5158150000000  0.4204500000000  0.5544850000000 1.0
C      1  0.4452730000000  0.5199750000000  0.5767220000000 1.0
C      1  0.5556160000000  0.5199630000000  0.4248640000000 1.0
C      1  0.5516080000000  0.4890310000000  0.5826090000000 1.0
C      1  0.4187360000000  0.5524670000000  0.5110420000000 1.0
C      1  0.5835010000000  0.5496030000000  0.4914420000000 1.0
C      1  0.5810180000000  0.4383890000000  0.5081160000000 1.0
C      1  0.5928860000000  0.5347580000000  0.5596600000000 1.0
C      1  0.5613830000000  0.5925770000000  0.5381030000000 1.0
C      1  0.5431140000000  0.5596200000000  0.5961450000000 1.0
C      1  0.5942090000000  0.4648570000000  0.4449120000000 1.0
C      1  0.4044900000000  0.4677020000000  0.5597840000000 1.0
C      1  0.4039190000000  0.5253300000000  0.4477070000000 1.0
C      1  0.5615340000000  0.4011720000000  0.4562460000000 1.0
C      1  0.4379750000000  0.4156890000000  0.5321840000000 1.0
C      1  0.4353520000000  0.5924030000000  0.4608650000000 1.0
C      1  0.5416200000000  0.4470410000000  0.4082310000000 1.0
C      1  0.4603820000000  0.4472270000000  0.5912660000000 1.0
C      1  0.4537480000000  0.5548290000000  0.4060710000000 1.0
C      1  0.4976370000000  0.4502350000000  0.6178700000000 1.0
C      1  0.6227050000000  0.5007450000000  0.4496690000000 1.0
C      1  0.4389040000000  0.6155100000000  0.5010910000000 1.0
C      1  0.4901550000000  0.5604800000000  0.3770860000000 1.0
C      1  0.5045110000000  0.5632570000000  0.6217640000000 1.0
C      1  0.5066030000000  0.4487160000000  0.3793440000000 1.0
C      1  0.6193140000000  0.4967270000000  0.5626840000000 1.0
C      1  0.3913260000000  0.4785350000000  0.4584610000000 1.0
C      1  0.3761310000000  0.5046820000000  0.5624730000000 1.0
C      1  0.4415100000000  0.3896250000000  0.4958990000000 1.0
C      1  0.5598390000000  0.3747110000000  0.4949950000000 1.0
C      1  0.5591640000000  0.6142510000000  0.4971270000000 1.0
C      1  0.5075750000000  0.5368510000000  0.6266630000000 1.0
C      1  0.6273840000000  0.5027910000000  0.5375670000000 1.0
C      1  0.5340270000000  0.6221200000000  0.5034440000000 1.0
C      1  0.5154440000000  0.4740530000000  0.3745720000000 1.0
C      1  0.4875650000000  0.4747630000000  0.6240300000000 1.0
C      1  0.4888780000000  0.5341810000000  0.3710940000000 1.0
C      1  0.6302160000000  0.4880380000000  0.4725770000000 1.0
C      1  0.3690440000000  0.4965530000000  0.5376760000000 1.0
C      1  0.3747640000000  0.4977600000000  0.4732290000000 1.0
C      1  0.5337940000000  0.3685000000000  0.4913700000000 1.0
C      1  0.4657070000000  0.3816340000000  0.5059650000000 1.0
C      1  0.4644640000000  0.6221250000000  0.4953120000000 1.0
C      1  0.4803650000000  0.4777890000000  0.5125120000000 1.0
C      1  0.4826780000000  0.5179720000000  0.4826050000000 1.0
C      1  0.5202560000000  0.4772210000000  0.4834420000000 1.0
C      1  0.5196200000000  0.5150010000000  0.5177100000000 1.0
C      1  0.5006280000000  0.4970740000000  0.4988000000000 1.0
END
