TITL C-3623282-6910-1003 2.79194434398836e-06 125000 -368.514325134011 0 0 62 (C1) n - 1
REM
REM in /home/nfs/bkarasulu/CARBON/AIRSS/Generating-Clusters/LCBOP/Higher-Symm/SD-CG/FIRE-CG
REM
REM
REM
REM
REM
REM ./C.cell (b20cbc046b6831c77cfcea5457e17084)
REM AIRSS Version 0.9.1 bugfix July 2018 build 013d7b7c2542+ Fri, 06 Jul 2018 19:26:36 +0100
REM compiler GCC version 9.2.1 20190827 (Red Hat 9.2.1-1)
REM options -cpp -mtune=generic -march=x86-64 -g -O0 -fpre-include=/usr/include/finclude/math-vector-fortran.h
REM seed 1285016879 -438346201 316931316 1816257295 3798531 -216147044 648846345 -1150550259 1850971624 183128560 -987663024 -1759786363 -770392083 778998529 -2124622666 -1752025459 -1453256798 129038582 -1766086172 1093145076 329691997 1414937680 -1516974288 340413629 -56745737 -1166772970 -269797543 1363547013 -2025775323 761873009 -690597921 -1961803225 -812904636
REM
CELL 1.54180   50.00000   50.00000   50.00000   90.00000   90.00000   90.00000
LATT -1
SFAC C  
C      1  0.3743080000000  0.4602440000000  0.4830530000000 1.0
C      1  0.6299760000000  0.4550140000000  0.4918430000000 1.0
C      1  0.5196650000000  0.5318930000000  0.4703080000000 1.0
C      1  0.4645660000000  0.5496370000000  0.4783860000000 1.0
C      1  0.5344350000000  0.5067490000000  0.4705420000000 1.0
C      1  0.4671910000000  0.5201990000000  0.4698420000000 1.0
C      1  0.5203720000000  0.5486510000000  0.4478060000000 1.0
C      1  0.4653900000000  0.5710740000000  0.4593330000000 1.0
C      1  0.5806550000000  0.5382290000000  0.4989490000000 1.0
C      1  0.4283430000000  0.5446470000000  0.4913260000000 1.0
C      1  0.5219770000000  0.4501330000000  0.5159650000000 1.0
C      1  0.4815750000000  0.4504130000000  0.5148680000000 1.0
C      1  0.5513150000000  0.5023930000000  0.4931930000000 1.0
C      1  0.4516850000000  0.5056000000000  0.4902480000000 1.0
C      1  0.3996770000000  0.4703030000000  0.4844360000000 1.0
C      1  0.6041550000000  0.4639220000000  0.4917900000000 1.0
C      1  0.5597030000000  0.4091950000000  0.4686410000000 1.0
C      1  0.4440950000000  0.4162250000000  0.4621670000000 1.0
C      1  0.4714190000000  0.4938990000000  0.5387890000000 1.0
C      1  0.5307130000000  0.4950610000000  0.5393470000000 1.0
C      1  0.4760770000000  0.5061100000000  0.5647660000000 1.0
C      1  0.5276290000000  0.5062920000000  0.5657200000000 1.0
C      1  0.5071750000000  0.5683230000000  0.4353320000000 1.0
C      1  0.4829900000000  0.5788230000000  0.4405720000000 1.0
C      1  0.4869150000000  0.4717670000000  0.5313750000000 1.0
C      1  0.5162440000000  0.4719160000000  0.5319870000000 1.0
C      1  0.4184190000000  0.5642360000000  0.5361050000000 1.0
C      1  0.5610510000000  0.5813150000000  0.5108830000000 1.0
C      1  0.5166290000000  0.5755120000000  0.5414220000000 1.0
C      1  0.4902660000000  0.5696850000000  0.5318520000000 1.0
C      1  0.5982980000000  0.4912870000000  0.4896220000000 1.0
C      1  0.4042860000000  0.4980350000000  0.4827440000000 1.0
C      1  0.4873120000000  0.5330460000000  0.5656480000000 1.0
C      1  0.5168490000000  0.5331370000000  0.5667400000000 1.0
C      1  0.4812810000000  0.5519740000000  0.5067750000000 1.0
C      1  0.5107700000000  0.5424720000000  0.4963660000000 1.0
C      1  0.4598230000000  0.5087620000000  0.5179580000000 1.0
C      1  0.5394430000000  0.5110240000000  0.5181490000000 1.0
C      1  0.5587760000000  0.5542170000000  0.5085980000000 1.0
C      1  0.4333460000000  0.5504100000000  0.5183290000000 1.0
C      1  0.5313200000000  0.4883420000000  0.4497280000000 1.0
C      1  0.4724700000000  0.5090270000000  0.4449610000000 1.0
C      1  0.5152640000000  0.4165910000000  0.4796920000000 1.0
C      1  0.4876200000000  0.4180040000000  0.4780600000000 1.0
C      1  0.4878580000000  0.4890740000000  0.5847500000000 1.0
C      1  0.5153430000000  0.4891280000000  0.5852490000000 1.0
C      1  0.5342810000000  0.5391760000000  0.5134620000000 1.0
C      1  0.4588800000000  0.5370610000000  0.5225870000000 1.0
C      1  0.5337240000000  0.4011700000000  0.4638000000000 1.0
C      1  0.4694580000000  0.4056340000000  0.4594410000000 1.0
C      1  0.4218110000000  0.4531660000000  0.4875790000000 1.0
C      1  0.5826620000000  0.4459720000000  0.4938930000000 1.0
C      1  0.4435220000000  0.4365490000000  0.4828740000000 1.0
C      1  0.5603590000000  0.4306490000000  0.4880960000000 1.0
C      1  0.4245330000000  0.5167670000000  0.4857840000000 1.0
C      1  0.5786690000000  0.5107650000000  0.4918200000000 1.0
C      1  0.4766360000000  0.5572840000000  0.5552100000000 1.0
C      1  0.5283840000000  0.5581030000000  0.5592270000000 1.0
C      1  0.4872000000000  0.4925960000000  0.4299510000000 1.0
C      1  0.5120020000000  0.4826280000000  0.4320520000000 1.0
C      1  0.4708710000000  0.4364300000000  0.4937780000000 1.0
C      1  0.5323430000000  0.4340610000000  0.4962270000000 1.0
END
