TITL C-3623285-6872-159 1.13226672697217 125000 -707.99035903585 0 0 117 (C1) n - 1
REM
REM in /home/nfs/bkarasulu/CARBON/AIRSS/Generating-Clusters/LCBOP/Higher-Symm/SD-CG/FIRE-CG
REM
REM
REM
REM
REM
REM ./C.cell (b20cbc046b6831c77cfcea5457e17084)
REM AIRSS Version 0.9.1 bugfix July 2018 build 013d7b7c2542+ Fri, 06 Jul 2018 19:26:36 +0100
REM compiler GCC version 9.2.1 20190827 (Red Hat 9.2.1-1)
REM options -cpp -mtune=generic -march=x86-64 -g -O0 -fpre-include=/usr/include/finclude/math-vector-fortran.h
REM seed 1521458168 575289675 1945384123 -2046206350 1073307701 -573512513 1646820963 -33024877 909629559 -2091856024 -2093499565 1638685664 282028166 951598686 1760284415 -1443917054 221352819 -866189034 648519972 1505837823 324257205 -2073485022 1986636734 100125340 1813600895 -2052088526 -1353421179 -1677800509 -825591661 -388578850 -1343848788 -2050503100 -1513574497
REM
CELL 1.54180   50.00000   50.00000   50.00000   90.00000   90.00000   90.00000
LATT -1
SFAC C  
C      1  0.5326610000000  0.4367600000000  0.5242510000000 1.0
C      1  0.4647160000000  0.4370780000000  0.4735210000000 1.0
C      1  0.4669550000000  0.4350690000000  0.5265750000000 1.0
C      1  0.5353430000000  0.4340870000000  0.4720040000000 1.0
C      1  0.4829720000000  0.4153040000000  0.4824230000000 1.0
C      1  0.5153300000000  0.4147320000000  0.5140840000000 1.0
C      1  0.5157200000000  0.4147960000000  0.4833130000000 1.0
C      1  0.4845920000000  0.4144390000000  0.5145060000000 1.0
C      1  0.4209210000000  0.4500180000000  0.4615340000000 1.0
C      1  0.5759520000000  0.4520460000000  0.5372210000000 1.0
C      1  0.5778370000000  0.4532240000000  0.4640440000000 1.0
C      1  0.4257150000000  0.4538410000000  0.5417300000000 1.0
C      1  0.5952250000000  0.4715330000000  0.5290060000000 1.0
C      1  0.4058850000000  0.4744250000000  0.4656050000000 1.0
C      1  0.4142820000000  0.4806110000000  0.5399200000000 1.0
C      1  0.5946280000000  0.4770120000000  0.4699570000000 1.0
C      1  0.4595380000000  0.4897830000000  0.4502850000000 1.0
C      1  0.5306810000000  0.4877750000000  0.5486790000000 1.0
C      1  0.5562290000000  0.4919240000000  0.4492810000000 1.0
C      1  0.4736110000000  0.4830630000000  0.5542380000000 1.0
C      1  0.4323210000000  0.5454910000000  0.5102610000000 1.0
C      1  0.5695970000000  0.5498500000000  0.4970060000000 1.0
C      1  0.5704130000000  0.5418150000000  0.5244910000000 1.0
C      1  0.4420430000000  0.5320090000000  0.4875730000000 1.0
C      1  0.5230010000000  0.4863000000000  0.5217920000000 1.0
C      1  0.4640780000000  0.4896580000000  0.4775690000000 1.0
C      1  0.4680320000000  0.4851450000000  0.5276390000000 1.0
C      1  0.5410490000000  0.4888020000000  0.4725770000000 1.0
C      1  0.5132210000000  0.6013350000000  0.5154920000000 1.0
C      1  0.4845720000000  0.6103050000000  0.4687350000000 1.0
C      1  0.4870270000000  0.5916850000000  0.5261260000000 1.0
C      1  0.5076460000000  0.6034370000000  0.4566220000000 1.0
C      1  0.5165520000000  0.4650420000000  0.5603740000000 1.0
C      1  0.4792900000000  0.4695150000000  0.4422420000000 1.0
C      1  0.4891460000000  0.4617830000000  0.5629430000000 1.0
C      1  0.5040250000000  0.4685860000000  0.4556870000000 1.0
C      1  0.5549000000000  0.5542150000000  0.5451830000000 1.0
C      1  0.4374170000000  0.5627800000000  0.4434200000000 1.0
C      1  0.4594800000000  0.5687190000000  0.5634110000000 1.0
C      1  0.5428310000000  0.5714780000000  0.4351080000000 1.0
C      1  0.4259580000000  0.5266530000000  0.5556460000000 1.0
C      1  0.5749090000000  0.5364060000000  0.4503480000000 1.0
C      1  0.5518990000000  0.5073850000000  0.5525830000000 1.0
C      1  0.4296860000000  0.5103980000000  0.4448850000000 1.0
C      1  0.4435390000000  0.4494940000000  0.5664310000000 1.0
C      1  0.5616000000000  0.4496410000000  0.4375220000000 1.0
C      1  0.5603710000000  0.4520710000000  0.5632170000000 1.0
C      1  0.4381520000000  0.4503600000000  0.4345630000000 1.0
C      1  0.5389920000000  0.4313100000000  0.4418900000000 1.0
C      1  0.4711310000000  0.4367190000000  0.5575830000000 1.0
C      1  0.4666880000000  0.4414750000000  0.4427640000000 1.0
C      1  0.5322810000000  0.4398490000000  0.5552520000000 1.0
C      1  0.4869650000000  0.5285000000000  0.4662330000000 1.0
C      1  0.5075760000000  0.5317440000000  0.5211800000000 1.0
C      1  0.5168900000000  0.5320760000000  0.4684040000000 1.0
C      1  0.4843020000000  0.5267200000000  0.5357930000000 1.0
C      1  0.5168760000000  0.5760270000000  0.4507470000000 1.0
C      1  0.4853280000000  0.5776670000000  0.5532700000000 1.0
C      1  0.4944830000000  0.5612530000000  0.4343480000000 1.0
C      1  0.5104020000000  0.5639390000000  0.5620690000000 1.0
C      1  0.4493180000000  0.5414430000000  0.5645440000000 1.0
C      1  0.5520560000000  0.5441750000000  0.4349770000000 1.0
C      1  0.5474480000000  0.5335510000000  0.5649590000000 1.0
C      1  0.4326820000000  0.5377420000000  0.4337800000000 1.0
C      1  0.4645080000000  0.4901580000000  0.5960760000000 1.0
C      1  0.5320790000000  0.4855060000000  0.4100680000000 1.0
C      1  0.5332420000000  0.4921260000000  0.5949480000000 1.0
C      1  0.4648790000000  0.4934560000000  0.4073820000000 1.0
C      1  0.5151720000000  0.4236620000000  0.4281590000000 1.0
C      1  0.4892030000000  0.4153580000000  0.5684210000000 1.0
C      1  0.4878640000000  0.4248650000000  0.4292710000000 1.0
C      1  0.5168090000000  0.4175940000000  0.5680730000000 1.0
C      1  0.4456030000000  0.4724950000000  0.4125700000000 1.0
C      1  0.5526810000000  0.4727020000000  0.5858580000000 1.0
C      1  0.5532320000000  0.4753070000000  0.4264230000000 1.0
C      1  0.4480120000000  0.4689620000000  0.5885290000000 1.0
C      1  0.4230520000000  0.5166720000000  0.4739660000000 1.0
C      1  0.5714500000000  0.5133930000000  0.5311880000000 1.0
C      1  0.5798710000000  0.5292290000000  0.4778470000000 1.0
C      1  0.4184170000000  0.5272500000000  0.5271620000000 1.0
C      1  0.6199800000000  0.4771870000000  0.4587760000000 1.0
C      1  0.4176090000000  0.4995380000000  0.5627630000000 1.0
C      1  0.4075970000000  0.4905770000000  0.4405880000000 1.0
C      1  0.6218650000000  0.4679430000000  0.5340030000000 1.0
C      1  0.5857630000000  0.4950110000000  0.5154780000000 1.0
C      1  0.4098200000000  0.4945180000000  0.4881380000000 1.0
C      1  0.4107390000000  0.4990370000000  0.5168580000000 1.0
C      1  0.5875510000000  0.5006530000000  0.4868480000000 1.0
C      1  0.4638340000000  0.5946610000000  0.4796020000000 1.0
C      1  0.5383170000000  0.5954390000000  0.5040700000000 1.0
C      1  0.5498780000000  0.5714470000000  0.4899640000000 1.0
C      1  0.4642760000000  0.5877250000000  0.5076970000000 1.0
C      1  0.4865030000000  0.5123840000000  0.4175860000000 1.0
C      1  0.5119530000000  0.5141960000000  0.5905880000000 1.0
C      1  0.5160670000000  0.5082270000000  0.4179250000000 1.0
C      1  0.4832450000000  0.5105830000000  0.5862070000000 1.0
C      1  0.5235570000000  0.5598000000000  0.4773950000000 1.0
C      1  0.4427400000000  0.5709270000000  0.5155090000000 1.0
C      1  0.4467110000000  0.5811080000000  0.4609950000000 1.0
C      1  0.5296380000000  0.5662540000000  0.5389600000000 1.0
C      1  0.5246010000000  0.4633890000000  0.4768940000000 1.0
C      1  0.4744050000000  0.4619240000000  0.5142030000000 1.0
C      1  0.4719430000000  0.4640000000000  0.4869930000000 1.0
C      1  0.5223320000000  0.4622000000000  0.5080860000000 1.0
C      1  0.4679910000000  0.5173370000000  0.4882280000000 1.0
C      1  0.5203990000000  0.5102620000000  0.5094590000000 1.0
C      1  0.5294040000000  0.5115040000000  0.4837300000000 1.0
C      1  0.4697630000000  0.5107470000000  0.5175080000000 1.0
C      1  0.4348240000000  0.4362070000000  0.4847700000000 1.0
C      1  0.5622290000000  0.4379110000000  0.5150000000000 1.0
C      1  0.5637540000000  0.4377950000000  0.4856560000000 1.0
C      1  0.4359000000000  0.4368810000000  0.5177890000000 1.0
C      1  0.4824680000000  0.5348090000000  0.4374890000000 1.0
C      1  0.5218100000000  0.5392620000000  0.5777130000000 1.0
C      1  0.5298740000000  0.5265570000000  0.4354520000000 1.0
C      1  0.4738100000000  0.5260150000000  0.5628610000000 1.0
C      1  0.5172900000000  0.5562640000000  0.5149320000000 1.0
END
