TITL C-3623288-6813-168 21.0480665129557 125000 -577.118274723317 0 0 97 (C1) n - 1
REM
REM in /home/nfs/bkarasulu/CARBON/AIRSS/Generating-Clusters/LCBOP/Higher-Symm/SD-CG/FIRE-CG
REM
REM
REM
REM
REM
REM ./C.cell (b20cbc046b6831c77cfcea5457e17084)
REM AIRSS Version 0.9.1 bugfix July 2018 build 013d7b7c2542+ Fri, 06 Jul 2018 19:26:36 +0100
REM compiler GCC version 9.2.1 20190827 (Red Hat 9.2.1-1)
REM options -cpp -mtune=generic -march=x86-64 -g -O0 -fpre-include=/usr/include/finclude/math-vector-fortran.h
REM seed 252796125 -1853840041 -163826061 213607318 1293258915 48047732 1810938001 385201946 1603351892 -891857999 -1571339802 -1721441429 1976750643 1421228969 1210185753 1272735576 -1419118339 -688551134 -762677477 436986137 1731044010 1103515430 1853028705 -2097912619 -1494619800 -1017056033 -1064372880 527716832 1177905738 -1637894920 -1753522202 1832736438 -1097031894
REM
CELL 1.54180   50.00000   50.00000   50.00000   90.00000   90.00000   90.00000
LATT -1
SFAC C  
C      1  0.5361880000000  0.4928950000000  0.4404860000000 1.0
C      1  0.5415510000000  0.5147840000000  0.5509900000000 1.0
C      1  0.4572100000000  0.4801200000000  0.5575570000000 1.0
C      1  0.4685170000000  0.5111180000000  0.4423580000000 1.0
C      1  0.4676240000000  0.4429240000000  0.4171030000000 1.0
C      1  0.4715870000000  0.5515870000000  0.5780510000000 1.0
C      1  0.5281920000000  0.4496670000000  0.5829810000000 1.0
C      1  0.5320160000000  0.5564500000000  0.4115310000000 1.0
C      1  0.5148070000000  0.5807300000000  0.5703780000000 1.0
C      1  0.5122440000000  0.4218300000000  0.4312140000000 1.0
C      1  0.4872720000000  0.5789990000000  0.4255160000000 1.0
C      1  0.4869930000000  0.4168760000000  0.5769430000000 1.0
C      1  0.4887380000000  0.5723250000000  0.5776180000000 1.0
C      1  0.4866770000000  0.4243450000000  0.4197700000000 1.0
C      1  0.5106130000000  0.5723820000000  0.4121520000000 1.0
C      1  0.5102240000000  0.4299230000000  0.5849970000000 1.0
C      1  0.5147620000000  0.5504370000000  0.5246170000000 1.0
C      1  0.4985940000000  0.4695020000000  0.4690980000000 1.0
C      1  0.5083300000000  0.5347020000000  0.4658280000000 1.0
C      1  0.4907490000000  0.4531050000000  0.5310140000000 1.0
C      1  0.5945440000000  0.4634940000000  0.5009960000000 1.0
C      1  0.5996840000000  0.5325700000000  0.4966410000000 1.0
C      1  0.4036500000000  0.4666180000000  0.4958350000000 1.0
C      1  0.4017600000000  0.5319720000000  0.5050140000000 1.0
C      1  0.4516740000000  0.4879940000000  0.4410800000000 1.0
C      1  0.4468750000000  0.5069340000000  0.5587450000000 1.0
C      1  0.5538180000000  0.4896980000000  0.5567770000000 1.0
C      1  0.5534600000000  0.5158520000000  0.4389210000000 1.0
C      1  0.4748250000000  0.6021470000000  0.4369310000000 1.0
C      1  0.4810650000000  0.3910970000000  0.5643610000000 1.0
C      1  0.5225120000000  0.6052920000000  0.5578620000000 1.0
C      1  0.5226520000000  0.3978120000000  0.4421710000000 1.0
C      1  0.5469660000000  0.5365820000000  0.4211230000000 1.0
C      1  0.5418680000000  0.4708070000000  0.5739630000000 1.0
C      1  0.4600970000000  0.5280520000000  0.5721850000000 1.0
C      1  0.4575550000000  0.4666940000000  0.4237340000000 1.0
C      1  0.5251390000000  0.4462810000000  0.4362720000000 1.0
C      1  0.5330300000000  0.5593150000000  0.5673490000000 1.0
C      1  0.4653010000000  0.4316340000000  0.5641290000000 1.0
C      1  0.4739920000000  0.5591760000000  0.4435470000000 1.0
C      1  0.4454710000000  0.4057840000000  0.5192790000000 1.0
C      1  0.4470030000000  0.5857310000000  0.4867020000000 1.0
C      1  0.5427640000000  0.4038910000000  0.4923230000000 1.0
C      1  0.5569440000000  0.5994890000000  0.5153960000000 1.0
C      1  0.4292500000000  0.4849240000000  0.4587290000000 1.0
C      1  0.4227050000000  0.5128070000000  0.5442920000000 1.0
C      1  0.5775690000000  0.4828100000000  0.5421950000000 1.0
C      1  0.5759340000000  0.5184440000000  0.4567940000000 1.0
C      1  0.4234410000000  0.4625250000000  0.4759860000000 1.0
C      1  0.4174650000000  0.5360560000000  0.5282140000000 1.0
C      1  0.5799710000000  0.4599740000000  0.5249470000000 1.0
C      1  0.5826160000000  0.5399340000000  0.4751880000000 1.0
C      1  0.5965860000000  0.5032710000000  0.5383550000000 1.0
C      1  0.5910270000000  0.4947440000000  0.4604850000000 1.0
C      1  0.4123330000000  0.5072620000000  0.4618910000000 1.0
C      1  0.4049530000000  0.4912230000000  0.5401050000000 1.0
C      1  0.4864690000000  0.5488970000000  0.5230070000000 1.0
C      1  0.4828020000000  0.4902030000000  0.4811560000000 1.0
C      1  0.5232900000000  0.5138660000000  0.4775780000000 1.0
C      1  0.5069050000000  0.4759790000000  0.5286250000000 1.0
C      1  0.4775060000000  0.5067360000000  0.5035930000000 1.0
C      1  0.4710650000000  0.5338560000000  0.5064240000000 1.0
C      1  0.5303060000000  0.4786650000000  0.5133170000000 1.0
C      1  0.5355490000000  0.4969350000000  0.4943170000000 1.0
C      1  0.4366200000000  0.4377970000000  0.4785710000000 1.0
C      1  0.4296570000000  0.5613790000000  0.5290170000000 1.0
C      1  0.5653450000000  0.4361120000000  0.5267510000000 1.0
C      1  0.5730860000000  0.5664430000000  0.4774260000000 1.0
C      1  0.5413130000000  0.6050940000000  0.5365100000000 1.0
C      1  0.5330620000000  0.3978190000000  0.4682910000000 1.0
C      1  0.4573800000000  0.5826510000000  0.4617150000000 1.0
C      1  0.4548720000000  0.4033240000000  0.5448250000000 1.0
C      1  0.5674260000000  0.5868960000000  0.4940550000000 1.0
C      1  0.5528720000000  0.4166550000000  0.5134080000000 1.0
C      1  0.4386530000000  0.5794010000000  0.5112730000000 1.0
C      1  0.4411240000000  0.4175980000000  0.4956580000000 1.0
C      1  0.5011240000000  0.6517910000000  0.5749630000000 1.0
C      1  0.5226220000000  0.3526430000000  0.4126270000000 1.0
C      1  0.4708390000000  0.6551230000000  0.4333070000000 1.0
C      1  0.4986700000000  0.3407570000000  0.5641940000000 1.0
C      1  0.5195500000000  0.4711100000000  0.4486100000000 1.0
C      1  0.5306900000000  0.5404390000000  0.5464670000000 1.0
C      1  0.4696180000000  0.4553440000000  0.5505220000000 1.0
C      1  0.4838230000000  0.5338110000000  0.4503700000000 1.0
C      1  0.5974910000000  0.4750140000000  0.4771820000000 1.0
C      1  0.6042620000000  0.5213560000000  0.5203280000000 1.0
C      1  0.3977120000000  0.4745630000000  0.5205520000000 1.0
C      1  0.4013910000000  0.5237610000000  0.4796960000000 1.0
C      1  0.5227930000000  0.3743680000000  0.4270200000000 1.0
C      1  0.5116850000000  0.6294650000000  0.5666470000000 1.0
C      1  0.4899570000000  0.3653180000000  0.5644420000000 1.0
C      1  0.4728360000000  0.6291880000000  0.4349270000000 1.0
C      1  0.5250900000000  0.5627830000000  0.5015860000000 1.0
C      1  0.4953650000000  0.4444490000000  0.4823870000000 1.0
C      1  0.5171780000000  0.5597120000000  0.4759550000000 1.0
C      1  0.4911110000000  0.4369280000000  0.5079610000000 1.0
C      1  0.4906890000000  0.4984800000000  0.5272180000000 1.0
END
