TITL C-3623288-6813-561 5.33940381028908e-07 125000 -249.175985577004 0 0 40 (Td) n - 1
REM
REM in /home/nfs/bkarasulu/CARBON/AIRSS/Generating-Clusters/LCBOP/Higher-Symm/SD-CG/FIRE-CG
REM
REM
REM
REM
REM
REM ./C.cell (b20cbc046b6831c77cfcea5457e17084)
REM AIRSS Version 0.9.1 bugfix July 2018 build 013d7b7c2542+ Fri, 06 Jul 2018 19:26:36 +0100
REM compiler GCC version 9.2.1 20190827 (Red Hat 9.2.1-1)
REM options -cpp -mtune=generic -march=x86-64 -g -O0 -fpre-include=/usr/include/finclude/math-vector-fortran.h
REM seed -1143083766 -1772864492 391400648 -1432003648 1804608025 -1250805728 -860839383 -1616960286 -1690683345 1593208242 -1619849946 -1150533448 -967965695 -1762673007 -78599451 1322392178 -56621877 253863351 -1516419880 -1141798979 1594602540 -1801536006 233504880 400046686 -1502589698 2095776381 -1629431138 -1597512476 -2058794662 -1743459028 -1405913675 -480398817 -1866660744
REM
CELL 1.54180   50.00000   50.00000   50.00000   90.00000   90.00000   90.00000
LATT -1
SFAC C  
C      1  0.4948040000000  0.5577950000000  0.5226960000000 1.0
C      1  0.5225350000000  0.4953350000000  0.5574250000000 1.0
C      1  0.5572630000000  0.5230660000000  0.4949650000000 1.0
C      1  0.4948040000000  0.4418820000000  0.4762410000000 1.0
C      1  0.5038110000000  0.4418820000000  0.5226960000000 1.0
C      1  0.5038110000000  0.5577950000000  0.4762410000000 1.0
C      1  0.5225350000000  0.5043420000000  0.4415120000000 1.0
C      1  0.4760790000000  0.5043420000000  0.5574250000000 1.0
C      1  0.4760790000000  0.4953350000000  0.4415120000000 1.0
C      1  0.5572630000000  0.4766110000000  0.5039720000000 1.0
C      1  0.4413510000000  0.4766110000000  0.4949650000000 1.0
C      1  0.4413510000000  0.5230660000000  0.5039720000000 1.0
C      1  0.4948040000000  0.5230660000000  0.5574250000000 1.0
C      1  0.5225350000000  0.5577950000000  0.4949650000000 1.0
C      1  0.5572630000000  0.4953350000000  0.5226960000000 1.0
C      1  0.4948040000000  0.4766110000000  0.4415120000000 1.0
C      1  0.5038110000000  0.5230660000000  0.4415120000000 1.0
C      1  0.5038110000000  0.4766110000000  0.5574250000000 1.0
C      1  0.5225350000000  0.4418820000000  0.5039720000000 1.0
C      1  0.4760790000000  0.5577950000000  0.5039720000000 1.0
C      1  0.4760790000000  0.4418820000000  0.4949650000000 1.0
C      1  0.5572630000000  0.5043420000000  0.4762410000000 1.0
C      1  0.4413510000000  0.4953350000000  0.4762410000000 1.0
C      1  0.4413510000000  0.5043420000000  0.5226960000000 1.0
C      1  0.4571050000000  0.5420410000000  0.4914140000000 1.0
C      1  0.5415090000000  0.4917840000000  0.4572660000000 1.0
C      1  0.5415090000000  0.4576360000000  0.4914140000000 1.0
C      1  0.5415090000000  0.5078930000000  0.5416710000000 1.0
C      1  0.4571050000000  0.5078930000000  0.4572660000000 1.0
C      1  0.4571050000000  0.4917840000000  0.5416710000000 1.0
C      1  0.4912530000000  0.5420410000000  0.4572660000000 1.0
C      1  0.4912530000000  0.4576360000000  0.5416710000000 1.0
C      1  0.5073620000000  0.5420410000000  0.5416710000000 1.0
C      1  0.5415090000000  0.5420410000000  0.5075230000000 1.0
C      1  0.4571050000000  0.4576360000000  0.5075230000000 1.0
C      1  0.5073620000000  0.4576360000000  0.4572660000000 1.0
C      1  0.5340870000000  0.4650590000000  0.4646880000000 1.0
C      1  0.4645270000000  0.5346190000000  0.4646880000000 1.0
C      1  0.4645270000000  0.4650590000000  0.5342480000000 1.0
C      1  0.5340870000000  0.5346190000000  0.5342480000000 1.0
END
