TITL C-3623282-6910-992 1331.77336783743 125000 -901.412331755525 0 0 147 (C1) n - 1
REM
REM in /home/nfs/bkarasulu/CARBON/AIRSS/Generating-Clusters/LCBOP/Higher-Symm/SD-CG/FIRE-CG
REM
REM
REM
REM
REM
REM ./C.cell (b20cbc046b6831c77cfcea5457e17084)
REM AIRSS Version 0.9.1 bugfix July 2018 build 013d7b7c2542+ Fri, 06 Jul 2018 19:26:36 +0100
REM compiler GCC version 9.2.1 20190827 (Red Hat 9.2.1-1)
REM options -cpp -mtune=generic -march=x86-64 -g -O0 -fpre-include=/usr/include/finclude/math-vector-fortran.h
REM seed -350457825 2022591258 2139794888 -1956991463 623983963 -360150859 1916916952 78756835 45665724 -1179864898 -727894685 1868726291 -2078909685 123465828 -1137283925 1151394126 -1336971230 -1540617579 289472775 965097644 -423608602 -781057251 -1181395524 -701487798 46399732 2096183806 -166178950 1919418151 998231116 834574417 -514770680 -2070062351 1324510853
REM
CELL 1.54180   50.00000   50.00000   50.00000   90.00000   90.00000   90.00000
LATT -1
SFAC C  
C      1  0.4914020000000  0.3908460000000  0.5329710000000 1.0
C      1  0.5372960000000  0.4814240000000  0.4098760000000 1.0
C      1  0.5139860000000  0.5187310000000  0.4288630000000 1.0
C      1  0.4690970000000  0.4053300000000  0.5228510000000 1.0
C      1  0.4973680000000  0.4390490000000  0.4262560000000 1.0
C      1  0.5506580000000  0.4177500000000  0.4503800000000 1.0
C      1  0.5554320000000  0.5162250000000  0.5799890000000 1.0
C      1  0.5897810000000  0.4717690000000  0.5629170000000 1.0
C      1  0.5226450000000  0.5683910000000  0.5429650000000 1.0
C      1  0.5162890000000  0.3879650000000  0.5172560000000 1.0
C      1  0.3933750000000  0.4818190000000  0.4780840000000 1.0
C      1  0.4929000000000  0.4595230000000  0.5146990000000 1.0
C      1  0.4597250000000  0.4388590000000  0.5773430000000 1.0
C      1  0.4984710000000  0.4821360000000  0.4957920000000 1.0
C      1  0.5982150000000  0.5380430000000  0.5287300000000 1.0
C      1  0.3775970000000  0.4984490000000  0.6517050000000 1.0
C      1  0.4448960000000  0.5916060000000  0.4380970000000 1.0
C      1  0.4480330000000  0.6153150000000  0.4213580000000 1.0
C      1  0.4202720000000  0.5693180000000  0.5595570000000 1.0
C      1  0.5712010000000  0.5807100000000  0.5458390000000 1.0
C      1  0.5425510000000  0.6001860000000  0.5118040000000 1.0
C      1  0.4352500000000  0.5483470000000  0.5174310000000 1.0
C      1  0.5891790000000  0.5101400000000  0.4341990000000 1.0
C      1  0.5416630000000  0.4992470000000  0.3883390000000 1.0
C      1  0.6054140000000  0.5161570000000  0.5455720000000 1.0
C      1  0.5334620000000  0.4065340000000  0.5303120000000 1.0
C      1  0.4104020000000  0.4480320000000  0.5524490000000 1.0
C      1  0.4325160000000  0.4217610000000  0.4621640000000 1.0
C      1  0.5298520000000  0.5523700000000  0.3884790000000 1.0
C      1  0.4093800000000  0.4488610000000  0.5232520000000 1.0
C      1  0.4467770000000  0.4980830000000  0.4172370000000 1.0
C      1  0.4305870000000  0.4856000000000  0.5044570000000 1.0
C      1  0.3942480000000  0.5182230000000  0.6578140000000 1.0
C      1  0.5240320000000  0.4935610000000  0.4821680000000 1.0
C      1  0.4368640000000  0.5694610000000  0.5365850000000 1.0
C      1  0.4382430000000  0.4813120000000  0.4766820000000 1.0
C      1  0.4738870000000  0.5841090000000  0.4410060000000 1.0
C      1  0.5151930000000  0.3973110000000  0.6059240000000 1.0
C      1  0.5595120000000  0.5219360000000  0.5070010000000 1.0
C      1  0.4518230000000  0.5253320000000  0.5202780000000 1.0
C      1  0.4211840000000  0.4178490000000  0.4862430000000 1.0
C      1  0.5109500000000  0.5037250000000  0.5390030000000 1.0
C      1  0.4934370000000  0.6005840000000  0.4259940000000 1.0
C      1  0.4577370000000  0.4619720000000  0.4699100000000 1.0
C      1  0.6000270000000  0.5261110000000  0.4787130000000 1.0
C      1  0.4120970000000  0.5368970000000  0.6516340000000 1.0
C      1  0.4647830000000  0.5202760000000  0.4104930000000 1.0
C      1  0.4749870000000  0.6203660000000  0.4146320000000 1.0
C      1  0.3717380000000  0.4593310000000  0.5879420000000 1.0
C      1  0.4341640000000  0.4401720000000  0.5673450000000 1.0
C      1  0.4270010000000  0.4294180000000  0.5111720000000 1.0
C      1  0.5192650000000  0.4359900000000  0.4810240000000 1.0
C      1  0.5078180000000  0.4103370000000  0.4771710000000 1.0
C      1  0.5270090000000  0.5520200000000  0.5191870000000 1.0
C      1  0.5194430000000  0.5434270000000  0.4907740000000 1.0
C      1  0.4718490000000  0.5157510000000  0.4589170000000 1.0
C      1  0.5202170000000  0.6166920000000  0.5076270000000 1.0
C      1  0.5279520000000  0.4352130000000  0.4290960000000 1.0
C      1  0.5644110000000  0.4830390000000  0.4614560000000 1.0
C      1  0.6191420000000  0.4770070000000  0.5228000000000 1.0
C      1  0.5579490000000  0.4620910000000  0.5061230000000 1.0
C      1  0.5209640000000  0.4302990000000  0.5371580000000 1.0
C      1  0.5945690000000  0.4166660000000  0.4897300000000 1.0
C      1  0.4252860000000  0.5092940000000  0.4372800000000 1.0
C      1  0.5711310000000  0.5815520000000  0.4294270000000 1.0
C      1  0.3667330000000  0.4808650000000  0.6350300000000 1.0
C      1  0.5135490000000  0.4384390000000  0.5790460000000 1.0
C      1  0.5506580000000  0.3989650000000  0.4802070000000 1.0
C      1  0.5279250000000  0.4949170000000  0.4333150000000 1.0
C      1  0.6252780000000  0.4859120000000  0.4981230000000 1.0
C      1  0.4887480000000  0.4043280000000  0.4583190000000 1.0
C      1  0.5415740000000  0.4481360000000  0.4899590000000 1.0
C      1  0.5490430000000  0.4432720000000  0.5718630000000 1.0
C      1  0.5648000000000  0.4673040000000  0.5769330000000 1.0
C      1  0.4782440000000  0.4254410000000  0.4436170000000 1.0
C      1  0.5551280000000  0.4908760000000  0.5887230000000 1.0
C      1  0.5555790000000  0.5874550000000  0.4896470000000 1.0
C      1  0.5277190000000  0.4803510000000  0.5388590000000 1.0
C      1  0.5354930000000  0.5172110000000  0.4915940000000 1.0
C      1  0.5237980000000  0.3906040000000  0.4895410000000 1.0
C      1  0.5228500000000  0.5622910000000  0.4146990000000 1.0
C      1  0.6199690000000  0.5058920000000  0.4808310000000 1.0
C      1  0.4669780000000  0.4549440000000  0.5251800000000 1.0
C      1  0.5764310000000  0.4317570000000  0.4453370000000 1.0
C      1  0.5736990000000  0.4550310000000  0.4278400000000 1.0
C      1  0.3873350000000  0.4539550000000  0.5671760000000 1.0
C      1  0.4938790000000  0.6181860000000  0.5114810000000 1.0
C      1  0.4842360000000  0.5061670000000  0.5757260000000 1.0
C      1  0.4315170000000  0.5662040000000  0.5849670000000 1.0
C      1  0.5533480000000  0.4784400000000  0.5271440000000 1.0
C      1  0.4543310000000  0.4295010000000  0.5202810000000 1.0
C      1  0.5134280000000  0.4561910000000  0.5333000000000 1.0
C      1  0.4757950000000  0.4805000000000  0.5663840000000 1.0
C      1  0.4293680000000  0.5412210000000  0.4354370000000 1.0
C      1  0.4820310000000  0.4581670000000  0.4108170000000 1.0
C      1  0.5206510000000  0.5906560000000  0.4208880000000 1.0
C      1  0.5815420000000  0.4819140000000  0.4384940000000 1.0
C      1  0.4444650000000  0.4978490000000  0.5257580000000 1.0
C      1  0.5894030000000  0.5338230000000  0.4523090000000 1.0
C      1  0.5366880000000  0.4864120000000  0.4586180000000 1.0
C      1  0.4943360000000  0.5051310000000  0.5157660000000 1.0
C      1  0.4780340000000  0.5418520000000  0.4651670000000 1.0
C      1  0.5653760000000  0.4243250000000  0.5545490000000 1.0
C      1  0.5393530000000  0.5258530000000  0.3840540000000 1.0
C      1  0.5268400000000  0.5689400000000  0.3667850000000 1.0
C      1  0.4256970000000  0.5690980000000  0.4466560000000 1.0
C      1  0.4594200000000  0.4783610000000  0.5416110000000 1.0
C      1  0.5615840000000  0.4095620000000  0.5292330000000 1.0
C      1  0.4162320000000  0.4915350000000  0.4600470000000 1.0
C      1  0.4040700000000  0.4723590000000  0.5055830000000 1.0
C      1  0.5445580000000  0.5880950000000  0.5384230000000 1.0
C      1  0.5758150000000  0.5607020000000  0.4495120000000 1.0
C      1  0.4897410000000  0.5438270000000  0.4903570000000 1.0
C      1  0.5030890000000  0.5217740000000  0.5611570000000 1.0
C      1  0.4589520000000  0.4728920000000  0.4112450000000 1.0
C      1  0.4925930000000  0.5170340000000  0.4099410000000 1.0
C      1  0.5488580000000  0.5977030000000  0.4246160000000 1.0
C      1  0.6059150000000  0.4875980000000  0.5455360000000 1.0
C      1  0.4122990000000  0.5703270000000  0.4720110000000 1.0
C      1  0.5553970000000  0.5674530000000  0.4693660000000 1.0
C      1  0.5965520000000  0.4269670000000  0.4646680000000 1.0
C      1  0.4333340000000  0.5611120000000  0.6109340000000 1.0
C      1  0.4533110000000  0.5914600000000  0.5310160000000 1.0
C      1  0.5228360000000  0.5445510000000  0.4374050000000 1.0
C      1  0.4838930000000  0.4932350000000  0.4524680000000 1.0
C      1  0.4263120000000  0.5516040000000  0.6347000000000 1.0
C      1  0.4855320000000  0.4539660000000  0.5766670000000 1.0
C      1  0.4783030000000  0.5274730000000  0.5104730000000 1.0
C      1  0.5469280000000  0.5330980000000  0.5595730000000 1.0
C      1  0.4832590000000  0.4734570000000  0.4717170000000 1.0
C      1  0.5304760000000  0.5539760000000  0.4645090000000 1.0
C      1  0.4960870000000  0.3942960000000  0.5613190000000 1.0
C      1  0.5465010000000  0.4551420000000  0.4160260000000 1.0
C      1  0.5910590000000  0.5633740000000  0.5396270000000 1.0
C      1  0.4708590000000  0.6084260000000  0.5205480000000 1.0
C      1  0.3645400000000  0.4677180000000  0.6120690000000 1.0
C      1  0.5199650000000  0.5458600000000  0.5632560000000 1.0
C      1  0.4549630000000  0.4374370000000  0.4555630000000 1.0
C      1  0.4217420000000  0.5544270000000  0.4933850000000 1.0
C      1  0.3932020000000  0.5724510000000  0.5568150000000 1.0
C      1  0.4742820000000  0.5566960000000  0.4421150000000 1.0
C      1  0.3906310000000  0.5866920000000  0.4753310000000 1.0
C      1  0.5082720000000  0.4095010000000  0.5823300000000 1.0
C      1  0.5862310000000  0.5301560000000  0.5032630000000 1.0
C      1  0.5709560000000  0.4060000000000  0.5014210000000 1.0
C      1  0.5485600000000  0.5337440000000  0.5306190000000 1.0
C      1  0.4564570000000  0.5436850000000  0.4235930000000 1.0
END
