TITL C-3623283-6828-1643 -1742.31357534545 125000 -1231.26851849141 0 0 199 (C1) n - 1
REM
REM in /home/nfs/bkarasulu/CARBON/AIRSS/Generating-Clusters/LCBOP/Higher-Symm/SD-CG/FIRE-CG
REM
REM
REM
REM
REM
REM ./C.cell (b20cbc046b6831c77cfcea5457e17084)
REM AIRSS Version 0.9.1 bugfix July 2018 build 013d7b7c2542+ Fri, 06 Jul 2018 19:26:36 +0100
REM compiler GCC version 9.2.1 20190827 (Red Hat 9.2.1-1)
REM options -cpp -mtune=generic -march=x86-64 -g -O0 -fpre-include=/usr/include/finclude/math-vector-fortran.h
REM seed 645952087 1373691652 -1644304648 -201589209 -559886252 1999732121 -644326377 -579605996 -1291455317 1019224667 -1425808772 32826014 1264426952 -972307018 -1370991469 2094070818 -1643968219 -2080341933 1819625291 395993560 -117818253 -2053468384 2060295419 -1008238369 1912163664 1273898912 1536747321 1528149657 1336567459 -2043524675 -158763014 -36254169 -1619279385
REM
CELL 1.54180   50.00000   50.00000   50.00000   90.00000   90.00000   90.00000
LATT -1
SFAC C  
C      1  0.4821650000000  0.5601740000000  0.5203190000000 1.0
C      1  0.4827320000000  0.4351690000000  0.4810500000000 1.0
C      1  0.6065740000000  0.4560830000000  0.4548710000000 1.0
C      1  0.6081090000000  0.5437350000000  0.5430480000000 1.0
C      1  0.4658440000000  0.5438610000000  0.4168770000000 1.0
C      1  0.4612320000000  0.4509640000000  0.5866250000000 1.0
C      1  0.4314130000000  0.4393530000000  0.4723260000000 1.0
C      1  0.4317010000000  0.5591810000000  0.5291050000000 1.0
C      1  0.5084890000000  0.4537580000000  0.4051370000000 1.0
C      1  0.5100930000000  0.5430980000000  0.5955720000000 1.0
C      1  0.4773240000000  0.5718240000000  0.4206680000000 1.0
C      1  0.4701260000000  0.4250620000000  0.5758610000000 1.0
C      1  0.5485120000000  0.5529090000000  0.4525170000000 1.0
C      1  0.5535390000000  0.4448410000000  0.5487890000000 1.0
C      1  0.3951690000000  0.5019560000000  0.4722120000000 1.0
C      1  0.3924060000000  0.4987750000000  0.5296880000000 1.0
C      1  0.4886430000000  0.5279220000000  0.4707230000000 1.0
C      1  0.4934720000000  0.4732960000000  0.5274690000000 1.0
C      1  0.5306470000000  0.4988160000000  0.6465270000000 1.0
C      1  0.5373190000000  0.5080870000000  0.3593890000000 1.0
C      1  0.5994820000000  0.5688300000000  0.5310650000000 1.0
C      1  0.5986850000000  0.4308920000000  0.4673610000000 1.0
C      1  0.4605670000000  0.4549470000000  0.3953360000000 1.0
C      1  0.4606540000000  0.5438320000000  0.6006800000000 1.0
C      1  0.4399050000000  0.5013130000000  0.4954060000000 1.0
C      1  0.4428340000000  0.4866030000000  0.5200560000000 1.0
C      1  0.4329840000000  0.4024640000000  0.5014550000000 1.0
C      1  0.4383330000000  0.5929160000000  0.4923770000000 1.0
C      1  0.5223650000000  0.5902690000000  0.4152700000000 1.0
C      1  0.5299840000000  0.4158860000000  0.5857930000000 1.0
C      1  0.4325530000000  0.5016410000000  0.3959690000000 1.0
C      1  0.4255650000000  0.5018350000000  0.6132380000000 1.0
C      1  0.4862140000000  0.5351300000000  0.6094270000000 1.0
C      1  0.4872720000000  0.4625100000000  0.3882840000000 1.0
C      1  0.4381510000000  0.4111070000000  0.4732460000000 1.0
C      1  0.4408990000000  0.5861460000000  0.5224360000000 1.0
C      1  0.5977100000000  0.5243200000000  0.4364440000000 1.0
C      1  0.6029110000000  0.4759980000000  0.5604700000000 1.0
C      1  0.6078360000000  0.5254110000000  0.5186950000000 1.0
C      1  0.6072580000000  0.4746330000000  0.4789980000000 1.0
C      1  0.4514190000000  0.4574310000000  0.5174810000000 1.0
C      1  0.4467780000000  0.5283160000000  0.4990800000000 1.0
C      1  0.4796310000000  0.6116580000000  0.5471140000000 1.0
C      1  0.4770210000000  0.3864230000000  0.4508970000000 1.0
C      1  0.4299570000000  0.4968420000000  0.5653010000000 1.0
C      1  0.4387910000000  0.5028050000000  0.4458020000000 1.0
C      1  0.5163230000000  0.4640020000000  0.5895910000000 1.0
C      1  0.5152910000000  0.5424160000000  0.4094900000000 1.0
C      1  0.5511580000000  0.4316690000000  0.4183300000000 1.0
C      1  0.5527060000000  0.5660400000000  0.5824320000000 1.0
C      1  0.5627680000000  0.5614950000000  0.4103470000000 1.0
C      1  0.5713040000000  0.4338630000000  0.5686080000000 1.0
C      1  0.5764990000000  0.5840980000000  0.5390870000000 1.0
C      1  0.5758680000000  0.4145260000000  0.4608150000000 1.0
C      1  0.4756730000000  0.5866990000000  0.5912270000000 1.0
C      1  0.4752130000000  0.4112600000000  0.4068110000000 1.0
C      1  0.4048670000000  0.5294140000000  0.4640100000000 1.0
C      1  0.3974310000000  0.4708560000000  0.5411350000000 1.0
C      1  0.5545490000000  0.5651510000000  0.4774120000000 1.0
C      1  0.5563440000000  0.4341970000000  0.5225230000000 1.0
C      1  0.5766590000000  0.4200460000000  0.5080910000000 1.0
C      1  0.5752620000000  0.5797530000000  0.4912300000000 1.0
C      1  0.5651470000000  0.4029970000000  0.4866980000000 1.0
C      1  0.5646830000000  0.5962260000000  0.5139200000000 1.0
C      1  0.4529160000000  0.4187520000000  0.4245200000000 1.0
C      1  0.4532830000000  0.5804530000000  0.5729260000000 1.0
C      1  0.5321740000000  0.5633300000000  0.4942100000000 1.0
C      1  0.5327370000000  0.4355120000000  0.5076030000000 1.0
C      1  0.5132560000000  0.4717860000000  0.4265760000000 1.0
C      1  0.5167270000000  0.5251290000000  0.5742860000000 1.0
C      1  0.5099760000000  0.5564290000000  0.5358420000000 1.0
C      1  0.5092300000000  0.4405240000000  0.4653220000000 1.0
C      1  0.4025030000000  0.4724760000000  0.4536140000000 1.0
C      1  0.4006350000000  0.5284230000000  0.5475420000000 1.0
C      1  0.5017800000000  0.6101560000000  0.5636960000000 1.0
C      1  0.5000190000000  0.3876340000000  0.4356340000000 1.0
C      1  0.3799420000000  0.4383030000000  0.4771990000000 1.0
C      1  0.3817940000000  0.5625970000000  0.5205940000000 1.0
C      1  0.5101560000000  0.5946810000000  0.4416360000000 1.0
C      1  0.5117440000000  0.4102330000000  0.5639520000000 1.0
C      1  0.5995260000000  0.5668580000000  0.5007800000000 1.0
C      1  0.6003990000000  0.4332990000000  0.4976650000000 1.0
C      1  0.3714900000000  0.4402540000000  0.5027830000000 1.0
C      1  0.3777280000000  0.5588720000000  0.4943020000000 1.0
C      1  0.5226110000000  0.4286920000000  0.4080840000000 1.0
C      1  0.5237100000000  0.5687450000000  0.5924250000000 1.0
C      1  0.4410230000000  0.5556140000000  0.5820850000000 1.0
C      1  0.4421720000000  0.4443500000000  0.4160710000000 1.0
C      1  0.5031920000000  0.4066290000000  0.4138910000000 1.0
C      1  0.5039670000000  0.5907320000000  0.5853790000000 1.0
C      1  0.5540080000000  0.5775680000000  0.5563530000000 1.0
C      1  0.5526970000000  0.4196480000000  0.4440730000000 1.0
C      1  0.5236840000000  0.4380930000000  0.6014530000000 1.0
C      1  0.5042300000000  0.5714680000000  0.4043960000000 1.0
C      1  0.5623830000000  0.5073050000000  0.5645830000000 1.0
C      1  0.5600620000000  0.4916180000000  0.4357350000000 1.0
C      1  0.4043330000000  0.5516850000000  0.5330170000000 1.0
C      1  0.4043710000000  0.4485940000000  0.4676980000000 1.0
C      1  0.4385320000000  0.5469890000000  0.4275420000000 1.0
C      1  0.4326990000000  0.4523620000000  0.5763020000000 1.0
C      1  0.5317590000000  0.4951330000000  0.5221350000000 1.0
C      1  0.5266890000000  0.5022860000000  0.4733400000000 1.0
C      1  0.5163690000000  0.4914400000000  0.3596720000000 1.0
C      1  0.5058150000000  0.5092010000000  0.6465980000000 1.0
C      1  0.4858790000000  0.4981180000000  0.5149760000000 1.0
C      1  0.4839710000000  0.5024120000000  0.4857510000000 1.0
C      1  0.4237560000000  0.4644190000000  0.4260820000000 1.0
C      1  0.4186890000000  0.5378110000000  0.5770320000000 1.0
C      1  0.5410230000000  0.5212010000000  0.5227000000000 1.0
C      1  0.5391670000000  0.4775430000000  0.4768560000000 1.0
C      1  0.5964910000000  0.4662180000000  0.4287190000000 1.0
C      1  0.5990650000000  0.5334200000000  0.5696570000000 1.0
C      1  0.5263740000000  0.5388580000000  0.4402710000000 1.0
C      1  0.5306740000000  0.4600610000000  0.5565580000000 1.0
C      1  0.5023890000000  0.5310520000000  0.5506750000000 1.0
C      1  0.5001270000000  0.4656040000000  0.4508650000000 1.0
C      1  0.5082000000000  0.3901120000000  0.5218750000000 1.0
C      1  0.5110570000000  0.6092060000000  0.4830930000000 1.0
C      1  0.5432010000000  0.5446900000000  0.3953860000000 1.0
C      1  0.5333910000000  0.4865200000000  0.5984110000000 1.0
C      1  0.4174640000000  0.5781270000000  0.4753100000000 1.0
C      1  0.4147450000000  0.4241490000000  0.5161320000000 1.0
C      1  0.4532500000000  0.3874790000000  0.5193660000000 1.0
C      1  0.4582600000000  0.6098690000000  0.4762310000000 1.0
C      1  0.4308700000000  0.5749340000000  0.4276810000000 1.0
C      1  0.4306870000000  0.4300750000000  0.5585070000000 1.0
C      1  0.5534580000000  0.6055780000000  0.4449780000000 1.0
C      1  0.5505070000000  0.3880350000000  0.5559690000000 1.0
C      1  0.4830190000000  0.4790710000000  0.4689880000000 1.0
C      1  0.4831210000000  0.5186740000000  0.5340060000000 1.0
C      1  0.4340090000000  0.4376540000000  0.5315290000000 1.0
C      1  0.4139640000000  0.5850910000000  0.4476280000000 1.0
C      1  0.4409590000000  0.4891020000000  0.4708670000000 1.0
C      1  0.4427110000000  0.5047360000000  0.5419440000000 1.0
C      1  0.5224470000000  0.3893200000000  0.5465570000000 1.0
C      1  0.5271790000000  0.6099020000000  0.4589820000000 1.0
C      1  0.4794340000000  0.4476390000000  0.5277710000000 1.0
C      1  0.4828000000000  0.5562960000000  0.4702270000000 1.0
C      1  0.4877250000000  0.5275780000000  0.4049400000000 1.0
C      1  0.4818530000000  0.4687410000000  0.5966710000000 1.0
C      1  0.4814200000000  0.3802090000000  0.5152870000000 1.0
C      1  0.4841380000000  0.6199320000000  0.4850160000000 1.0
C      1  0.4879370000000  0.5111930000000  0.6249930000000 1.0
C      1  0.4932370000000  0.4871450000000  0.3749070000000 1.0
C      1  0.5571860000000  0.4093200000000  0.5761330000000 1.0
C      1  0.5513810000000  0.5877840000000  0.4201760000000 1.0
C      1  0.4228250000000  0.5124380000000  0.5876970000000 1.0
C      1  0.4332210000000  0.4899660000000  0.4212900000000 1.0
C      1  0.4548680000000  0.4568690000000  0.4805000000000 1.0
C      1  0.4533180000000  0.5377830000000  0.5264590000000 1.0
C      1  0.4534680000000  0.4031720000000  0.4498930000000 1.0
C      1  0.4556480000000  0.5954210000000  0.5468640000000 1.0
C      1  0.5121010000000  0.4161300000000  0.5107630000000 1.0
C      1  0.5114890000000  0.5826390000000  0.4930770000000 1.0
C      1  0.5882690000000  0.4958290000000  0.4287190000000 1.0
C      1  0.5914740000000  0.5035690000000  0.5700250000000 1.0
C      1  0.4735890000000  0.4880920000000  0.6160970000000 1.0
C      1  0.4791640000000  0.5099330000000  0.3842130000000 1.0
C      1  0.5427280000000  0.4885440000000  0.6248010000000 1.0
C      1  0.5476430000000  0.5287450000000  0.3728500000000 1.0
C      1  0.5371120000000  0.6007730000000  0.5220440000000 1.0
C      1  0.5369230000000  0.3987120000000  0.4808610000000 1.0
C      1  0.3914580000000  0.4419070000000  0.5223330000000 1.0
C      1  0.4000710000000  0.5544030000000  0.4778480000000 1.0
C      1  0.6118170000000  0.4594230000000  0.5051190000000 1.0
C      1  0.6101640000000  0.5408080000000  0.4921990000000 1.0
C      1  0.5137060000000  0.5219810000000  0.4585470000000 1.0
C      1  0.5193350000000  0.4752500000000  0.5368470000000 1.0
C      1  0.6153560000000  0.4687750000000  0.5334100000000 1.0
C      1  0.6107220000000  0.5326680000000  0.4630320000000 1.0
C      1  0.4561070000000  0.6101170000000  0.4470870000000 1.0
C      1  0.4475370000000  0.3876720000000  0.5477900000000 1.0
C      1  0.5755570000000  0.5167790000000  0.4825260000000 1.0
C      1  0.5774680000000  0.4823950000000  0.5178120000000 1.0
C      1  0.4862700000000  0.5692510000000  0.4953660000000 1.0
C      1  0.4875450000000  0.4289470000000  0.5064420000000 1.0
C      1  0.5853140000000  0.5464540000000  0.4212070000000 1.0
C      1  0.5925740000000  0.4519940000000  0.5740810000000 1.0
C      1  0.5755540000000  0.4485050000000  0.4143410000000 1.0
C      1  0.5781840000000  0.5503000000000  0.5852440000000 1.0
C      1  0.4463170000000  0.4884340000000  0.6238090000000 1.0
C      1  0.4514210000000  0.5101610000000  0.3789640000000 1.0
C      1  0.5625860000000  0.4797480000000  0.4620740000000 1.0
C      1  0.5639080000000  0.5196120000000  0.5383350000000 1.0
C      1  0.4479350000000  0.4089530000000  0.5661930000000 1.0
C      1  0.4544290000000  0.5914930000000  0.4250910000000 1.0
C      1  0.4165880000000  0.4721740000000  0.5638610000000 1.0
C      1  0.4274130000000  0.5287030000000  0.4461350000000 1.0
C      1  0.5283610000000  0.5811940000000  0.5422440000000 1.0
C      1  0.5275110000000  0.4162160000000  0.4591290000000 1.0
C      1  0.5381530000000  0.5067000000000  0.5790150000000 1.0
C      1  0.5354160000000  0.4887090000000  0.4234750000000 1.0
C      1  0.5842190000000  0.4915850000000  0.4761750000000 1.0
C      1  0.5855290000000  0.5079460000000  0.5236110000000 1.0
C      1  0.5284800000000  0.5442300000000  0.5145120000000 1.0
C      1  0.5282660000000  0.4536970000000  0.4860600000000 1.0
C      1  0.4901970000000  0.5741560000000  0.4482360000000 1.0
C      1  0.4902260000000  0.4271070000000  0.5570030000000 1.0
C      1  0.3885560000000  0.4997810000000  0.5006920000000 1.0
END
