TITL C-3623284-6838-1247 0.000125724912532105 125000 -533.888441397172 0 0 88 (C1) n - 1
REM
REM in /home/nfs/bkarasulu/CARBON/AIRSS/Generating-Clusters/LCBOP/Higher-Symm/SD-CG/FIRE-CG
REM
REM
REM
REM
REM
REM ./C.cell (b20cbc046b6831c77cfcea5457e17084)
REM AIRSS Version 0.9.1 bugfix July 2018 build 013d7b7c2542+ Fri, 06 Jul 2018 19:26:36 +0100
REM compiler GCC version 9.2.1 20190827 (Red Hat 9.2.1-1)
REM options -cpp -mtune=generic -march=x86-64 -g -O0 -fpre-include=/usr/include/finclude/math-vector-fortran.h
REM seed 579564603 -117245854 633868794 672668482 1217921608 -854171330 1044906781 -1044586866 1025438369 -1929991075 263615862 1152426406 397735750 -1639003621 -1228322247 -2018104949 1489559462 -377065244 526538873 213723999 -828892654 397374829 1290190646 1373772886 -2078297151 -388227319 -1815780941 700903349 -1628519161 -723756346 845270004 419921162 1188429595
REM
CELL 1.54180   50.00000   50.00000   50.00000   90.00000   90.00000   90.00000
LATT -1
SFAC C  
C      1  0.4405650000000  0.4171300000000  0.4707170000000 1.0
C      1  0.5275170000000  0.4665140000000  0.3839420000000 1.0
C      1  0.4869910000000  0.4567340000000  0.4022940000000 1.0
C      1  0.4678260000000  0.4523060000000  0.4878420000000 1.0
C      1  0.6415130000000  0.5010390000000  0.5925890000000 1.0
C      1  0.4616770000000  0.5404810000000  0.4055230000000 1.0
C      1  0.4136820000000  0.4854450000000  0.4897140000000 1.0
C      1  0.6184950000000  0.4968640000000  0.5811030000000 1.0
C      1  0.3891330000000  0.5252710000000  0.4787200000000 1.0
C      1  0.4778680000000  0.4622080000000  0.6027980000000 1.0
C      1  0.4744280000000  0.4674080000000  0.4637620000000 1.0
C      1  0.5305470000000  0.5989590000000  0.4695210000000 1.0
C      1  0.5328750000000  0.4708720000000  0.5724240000000 1.0
C      1  0.5171360000000  0.4996100000000  0.4665370000000 1.0
C      1  0.5788530000000  0.5167860000000  0.5602060000000 1.0
C      1  0.5020620000000  0.4314980000000  0.4014100000000 1.0
C      1  0.5338470000000  0.5387230000000  0.5526060000000 1.0
C      1  0.5398640000000  0.4434780000000  0.5685050000000 1.0
C      1  0.4641890000000  0.4579710000000  0.4177850000000 1.0
C      1  0.5489130000000  0.5164590000000  0.5663140000000 1.0
C      1  0.5609790000000  0.5429520000000  0.4055420000000 1.0
C      1  0.4729620000000  0.4388480000000  0.5379380000000 1.0
C      1  0.4830300000000  0.4474330000000  0.5122240000000 1.0
C      1  0.5268960000000  0.4392130000000  0.3889510000000 1.0
C      1  0.5659570000000  0.4452320000000  0.5550400000000 1.0
C      1  0.4900690000000  0.4320790000000  0.5607770000000 1.0
C      1  0.5017100000000  0.4758200000000  0.6091300000000 1.0
C      1  0.5180500000000  0.4267830000000  0.5614850000000 1.0
C      1  0.5078720000000  0.5260610000000  0.4739780000000 1.0
C      1  0.5571760000000  0.4803140000000  0.5278390000000 1.0
C      1  0.5297370000000  0.5433270000000  0.4810260000000 1.0
C      1  0.5086540000000  0.5500700000000  0.4168290000000 1.0
C      1  0.4460900000000  0.4451790000000  0.5442960000000 1.0
C      1  0.5936900000000  0.4926990000000  0.5686100000000 1.0
C      1  0.5150510000000  0.5314550000000  0.6012500000000 1.0
C      1  0.4909610000000  0.5336580000000  0.5892290000000 1.0
C      1  0.5214890000000  0.5867240000000  0.5423150000000 1.0
C      1  0.5192620000000  0.5877410000000  0.4480750000000 1.0
C      1  0.5250510000000  0.5311930000000  0.5266860000000 1.0
C      1  0.4801580000000  0.4392560000000  0.5864010000000 1.0
C      1  0.5298960000000  0.6021480000000  0.4961360000000 1.0
C      1  0.4695640000000  0.5872350000000  0.4879220000000 1.0
C      1  0.4573200000000  0.5657700000000  0.4174820000000 1.0
C      1  0.4404960000000  0.5532220000000  0.4698210000000 1.0
C      1  0.4590120000000  0.5212070000000  0.4991680000000 1.0
C      1  0.4132070000000  0.5131370000000  0.4837360000000 1.0
C      1  0.5094320000000  0.4571850000000  0.5130920000000 1.0
C      1  0.5429430000000  0.4893940000000  0.5521430000000 1.0
C      1  0.5247540000000  0.4846220000000  0.5957070000000 1.0
C      1  0.5342200000000  0.5120580000000  0.5935830000000 1.0
C      1  0.4792520000000  0.5128080000000  0.5413640000000 1.0
C      1  0.4967630000000  0.5064300000000  0.3957600000000 1.0
C      1  0.4520750000000  0.4735680000000  0.6033070000000 1.0
C      1  0.5127520000000  0.4852820000000  0.5098720000000 1.0
C      1  0.4278890000000  0.5052240000000  0.4213520000000 1.0
C      1  0.5576730000000  0.4510830000000  0.5276140000000 1.0
C      1  0.5327300000000  0.4906680000000  0.4886630000000 1.0
C      1  0.4206200000000  0.4595370000000  0.4900720000000 1.0
C      1  0.4544030000000  0.4037390000000  0.4519940000000 1.0
C      1  0.4549620000000  0.5131660000000  0.5261980000000 1.0
C      1  0.4854880000000  0.5924560000000  0.5087560000000 1.0
C      1  0.4554460000000  0.4686730000000  0.4420910000000 1.0
C      1  0.4984910000000  0.4807020000000  0.4579610000000 1.0
C      1  0.4304940000000  0.4587920000000  0.5613230000000 1.0
C      1  0.5007670000000  0.5710600000000  0.4352050000000 1.0
C      1  0.5849990000000  0.4649460000000  0.5653440000000 1.0
C      1  0.4601560000000  0.5731460000000  0.4655110000000 1.0
C      1  0.4872570000000  0.5237180000000  0.4943710000000 1.0
C      1  0.4323310000000  0.4712340000000  0.5850780000000 1.0
C      1  0.5701620000000  0.5412690000000  0.5146940000000 1.0
C      1  0.4799080000000  0.5229430000000  0.5673330000000 1.0
C      1  0.4726100000000  0.5738680000000  0.4398750000000 1.0
C      1  0.5030040000000  0.4793940000000  0.3926740000000 1.0
C      1  0.4372360000000  0.5286930000000  0.4831540000000 1.0
C      1  0.4414050000000  0.4410130000000  0.4856490000000 1.0
C      1  0.4917000000000  0.4098690000000  0.4157100000000 1.0
C      1  0.4339410000000  0.4863350000000  0.4393050000000 1.0
C      1  0.5122590000000  0.5954850000000  0.5171780000000 1.0
C      1  0.5020930000000  0.5122470000000  0.5209050000000 1.0
C      1  0.4892090000000  0.5320260000000  0.4050440000000 1.0
C      1  0.5335820000000  0.4416260000000  0.5154240000000 1.0
C      1  0.4736060000000  0.4012070000000  0.4334960000000 1.0
C      1  0.5304930000000  0.5663190000000  0.5574950000000 1.0
C      1  0.5576150000000  0.4910690000000  0.5016260000000 1.0
C      1  0.4401310000000  0.5227070000000  0.4053240000000 1.0
C      1  0.5356840000000  0.5470850000000  0.4102480000000 1.0
C      1  0.5842380000000  0.5321250000000  0.5363330000000 1.0
C      1  0.5429060000000  0.5407140000000  0.5059790000000 1.0
END
