TITL C-3623282-6910-473 -5.67021404348177e-08 125000 -24.5568172496353 0 0 5 (D5h) n - 1
REM
REM in /home/nfs/bkarasulu/CARBON/AIRSS/Generating-Clusters/LCBOP/Higher-Symm/SD-CG/FIRE-CG
REM
REM
REM
REM
REM
REM ./C.cell (b20cbc046b6831c77cfcea5457e17084)
REM AIRSS Version 0.9.1 bugfix July 2018 build 013d7b7c2542+ Fri, 06 Jul 2018 19:26:36 +0100
REM compiler GCC version 9.2.1 20190827 (Red Hat 9.2.1-1)
REM options -cpp -mtune=generic -march=x86-64 -g -O0 -fpre-include=/usr/include/finclude/math-vector-fortran.h
REM seed -1483397022 357204390 1529078345 1691229624 -1136477055 -212380824 -1121997996 2044590817 1411157202 31793391 -628825797 904494171 -2142098248 577224939 460424617 1159030906 332423764 872220377 1940065089 -477444720 560394554 662386885 -590114256 -354387106 -536208295 1580009287 1365780793 1014795360 -729615194 -686575715 1730960549 1858955102 1845713139
REM
CELL 1.54180   50.00000   50.00000   50.00000   90.00000   90.00000   90.00000
LATT -1
SFAC C  
C      1  0.5207660000000  0.4879930000000  0.5000000000000 1.0
C      1  0.4949980000000  0.4765400000000  0.5000000000000 1.0
C      1  0.4761430000000  0.4975080000000  0.5000000000000 1.0
C      1  0.4902570000000  0.5219200000000  0.5000000000000 1.0
C      1  0.5178360000000  0.5160400000000  0.5000000000000 1.0
END
