TITL C-3623282-6910-1164 -3.53488167663469e-07 125000 -859.358604875379 0 0 141 (C1) n - 1
REM
REM in /home/nfs/bkarasulu/CARBON/AIRSS/Generating-Clusters/LCBOP/Higher-Symm/SD-CG/FIRE-CG
REM
REM
REM
REM
REM
REM ./C.cell (b20cbc046b6831c77cfcea5457e17084)
REM AIRSS Version 0.9.1 bugfix July 2018 build 013d7b7c2542+ Fri, 06 Jul 2018 19:26:36 +0100
REM compiler GCC version 9.2.1 20190827 (Red Hat 9.2.1-1)
REM options -cpp -mtune=generic -march=x86-64 -g -O0 -fpre-include=/usr/include/finclude/math-vector-fortran.h
REM seed 1348118626 -582554547 -1566782685 -1517542938 -1293181055 -51100137 -122812857 -904878920 -535297983 -553695220 1983941983 -788227471 2062382889 289289310 985071435 -1437493297 -792353006 -1114145227 663689279 1895619128 -904357362 -88849251 -1526240709 165462449 -426264035 714924963 -954296446 166006250 -985410216 1333846049 687968835 688406291 -1188418579
REM
CELL 1.54180   50.00000   50.00000   50.00000   90.00000   90.00000   90.00000
LATT -1
SFAC C  
C      1  0.5176640000000  0.6127180000000  0.4920550000000 1.0
C      1  0.5903210000000  0.4248680000000  0.4853040000000 1.0
C      1  0.3928220000000  0.4568570000000  0.4903790000000 1.0
C      1  0.5101950000000  0.3966540000000  0.5149610000000 1.0
C      1  0.4048420000000  0.5417840000000  0.5175000000000 1.0
C      1  0.5824300000000  0.5563620000000  0.5208870000000 1.0
C      1  0.4446620000000  0.5187640000000  0.5664640000000 1.0
C      1  0.5377060000000  0.5299290000000  0.5592900000000 1.0
C      1  0.5120780000000  0.4396190000000  0.5609550000000 1.0
C      1  0.5234710000000  0.4754210000000  0.5875670000000 1.0
C      1  0.4757190000000  0.4947190000000  0.5931570000000 1.0
C      1  0.5054040000000  0.5486050000000  0.5905140000000 1.0
C      1  0.4391770000000  0.5614260000000  0.4851420000000 1.0
C      1  0.5841730000000  0.5185220000000  0.4856640000000 1.0
C      1  0.4757790000000  0.4165200000000  0.4824670000000 1.0
C      1  0.4235700000000  0.4327200000000  0.5157720000000 1.0
C      1  0.4795860000000  0.6013880000000  0.5163360000000 1.0
C      1  0.5999770000000  0.4618470000000  0.5120860000000 1.0
C      1  0.5772290000000  0.5078070000000  0.5395030000000 1.0
C      1  0.4726490000000  0.4265130000000  0.5369120000000 1.0
C      1  0.4473530000000  0.5595470000000  0.5384700000000 1.0
C      1  0.4915090000000  0.6018160000000  0.4904330000000 1.0
C      1  0.5937990000000  0.4530630000000  0.4856130000000 1.0
C      1  0.4163620000000  0.4410960000000  0.4894170000000 1.0
C      1  0.4769990000000  0.5610320000000  0.5419180000000 1.0
C      1  0.5657210000000  0.4798730000000  0.5403430000000 1.0
C      1  0.4577510000000  0.4532000000000  0.5429750000000 1.0
C      1  0.5318050000000  0.5011960000000  0.5185520000000 1.0
C      1  0.4903640000000  0.4716970000000  0.5164780000000 1.0
C      1  0.4804200000000  0.5220700000000  0.5188610000000 1.0
C      1  0.5181890000000  0.4392310000000  0.4864960000000 1.0
C      1  0.4386760000000  0.5131250000000  0.4891940000000 1.0
C      1  0.5427930000000  0.5432100000000  0.4910740000000 1.0
C      1  0.5345680000000  0.5281520000000  0.4355980000000 1.0
C      1  0.5066280000000  0.4568060000000  0.4336740000000 1.0
C      1  0.4591860000000  0.5157120000000  0.4355130000000 1.0
C      1  0.5540290000000  0.5079210000000  0.6097120000000 1.0
C      1  0.4655240000000  0.4429700000000  0.6008510000000 1.0
C      1  0.4620390000000  0.5748570000000  0.5974610000000 1.0
C      1  0.4715300000000  0.5043960000000  0.5635980000000 1.0
C      1  0.5109880000000  0.5369290000000  0.5646130000000 1.0
C      1  0.5146150000000  0.4693200000000  0.5596110000000 1.0
C      1  0.4208330000000  0.4070100000000  0.5244670000000 1.0
C      1  0.4589650000000  0.6174360000000  0.5239690000000 1.0
C      1  0.6239940000000  0.4723590000000  0.5194280000000 1.0
C      1  0.5354890000000  0.4611860000000  0.4330550000000 1.0
C      1  0.4483180000000  0.4886660000000  0.4345610000000 1.0
C      1  0.5161480000000  0.5506030000000  0.4366870000000 1.0
C      1  0.4095990000000  0.4763850000000  0.5322630000000 1.0
C      1  0.5232270000000  0.5881490000000  0.5342240000000 1.0
C      1  0.5683260000000  0.4284830000000  0.5288910000000 1.0
C      1  0.4884510000000  0.5703780000000  0.5955670000000 1.0
C      1  0.5426800000000  0.4825490000000  0.6047720000000 1.0
C      1  0.4654050000000  0.4697070000000  0.6011590000000 1.0
C      1  0.5436450000000  0.5759420000000  0.5497850000000 1.0
C      1  0.5481200000000  0.4162330000000  0.5444870000000 1.0
C      1  0.4075880000000  0.4999110000000  0.5478230000000 1.0
C      1  0.4609810000000  0.5662470000000  0.4353990000000 1.0
C      1  0.5773170000000  0.5012110000000  0.4338390000000 1.0
C      1  0.4620150000000  0.4329260000000  0.4325750000000 1.0
C      1  0.4283740000000  0.5368320000000  0.4755670000000 1.0
C      1  0.5685290000000  0.5410040000000  0.4774060000000 1.0
C      1  0.5025410000000  0.4188120000000  0.4728460000000 1.0
C      1  0.5714100000000  0.5412970000000  0.4050550000000 1.0
C      1  0.4983460000000  0.4201600000000  0.4012830000000 1.0
C      1  0.4318360000000  0.5418710000000  0.4035210000000 1.0
C      1  0.5305820000000  0.5655280000000  0.4774780000000 1.0
C      1  0.5430830000000  0.4388730000000  0.4721640000000 1.0
C      1  0.4260730000000  0.4918770000000  0.4743900000000 1.0
C      1  0.4366810000000  0.4453160000000  0.4700030000000 1.0
C      1  0.4847130000000  0.5807040000000  0.4726340000000 1.0
C      1  0.5790220000000  0.4706570000000  0.4688620000000 1.0
C      1  0.5282240000000  0.5077610000000  0.4537630000000 1.0
C      1  0.4930790000000  0.4714040000000  0.4536080000000 1.0
C      1  0.4788550000000  0.5195020000000  0.4553190000000 1.0
C      1  0.4395200000000  0.4468940000000  0.4182650000000 1.0
C      1  0.4842980000000  0.5795850000000  0.4217030000000 1.0
C      1  0.5762650000000  0.4751970000000  0.4181530000000 1.0
C      1  0.4043210000000  0.5016450000000  0.4566440000000 1.0
C      1  0.5499390000000  0.5803420000000  0.4604250000000 1.0
C      1  0.5451360000000  0.4156620000000  0.4537600000000 1.0
C      1  0.5585910000000  0.4510430000000  0.4181530000000 1.0
C      1  0.4276230000000  0.4739930000000  0.4198170000000 1.0
C      1  0.5137910000000  0.5766720000000  0.4234990000000 1.0
C      1  0.5355340000000  0.4878630000000  0.4713660000000 1.0
C      1  0.4727150000000  0.4751010000000  0.4720680000000 1.0
C      1  0.4928740000000  0.5341190000000  0.4742320000000 1.0
C      1  0.5720100000000  0.5170770000000  0.5896930000000 1.0
C      1  0.4748570000000  0.4225580000000  0.5860050000000 1.0
C      1  0.4401930000000  0.5636980000000  0.5863400000000 1.0
C      1  0.5679760000000  0.5649830000000  0.5444410000000 1.0
C      1  0.5258550000000  0.4017820000000  0.5386350000000 1.0
C      1  0.4031130000000  0.5259520000000  0.5415590000000 1.0
C      1  0.5049720000000  0.5590760000000  0.4647130000000 1.0
C      1  0.5500040000000  0.4648840000000  0.4605060000000 1.0
C      1  0.4452830000000  0.4736220000000  0.4618470000000 1.0
C      1  0.4599760000000  0.5068570000000  0.5062410000000 1.0
C      1  0.5269540000000  0.5270650000000  0.5077820000000 1.0
C      1  0.5129400000000  0.4605870000000  0.5035380000000 1.0
C      1  0.4817670000000  0.4111720000000  0.5121700000000 1.0
C      1  0.4302880000000  0.5593400000000  0.5143380000000 1.0
C      1  0.5858320000000  0.5249470000000  0.5159570000000 1.0
C      1  0.4870870000000  0.5313420000000  0.5465380000000 1.0
C      1  0.5364310000000  0.4834380000000  0.5416660000000 1.0
C      1  0.4815110000000  0.4753570000000  0.5452980000000 1.0
C      1  0.4577890000000  0.5730080000000  0.4649720000000 1.0
C      1  0.5854500000000  0.4985000000000  0.4633670000000 1.0
C      1  0.4568100000000  0.4262310000000  0.4618650000000 1.0
C      1  0.5354640000000  0.6039090000000  0.5123740000000 1.0
C      1  0.5746310000000  0.4120840000000  0.5052460000000 1.0
C      1  0.3904240000000  0.4774220000000  0.5097680000000 1.0
C      1  0.5355790000000  0.5259480000000  0.6214790000000 1.0
C      1  0.4896510000000  0.5102520000000  0.6121260000000 1.0
C      1  0.5093530000000  0.5303100000000  0.6119690000000 1.0
C      1  0.4004820000000  0.5285940000000  0.4690860000000 1.0
C      1  0.5752370000000  0.5695550000000  0.4725330000000 1.0
C      1  0.5233160000000  0.3987740000000  0.4659660000000 1.0
C      1  0.5611380000000  0.5240520000000  0.4244470000000 1.0
C      1  0.4893680000000  0.4363750000000  0.4221600000000 1.0
C      1  0.4503220000000  0.5411080000000  0.4244230000000 1.0
C      1  0.5807230000000  0.5583600000000  0.3877010000000 1.0
C      1  0.5075190000000  0.4047250000000  0.3823980000000 1.0
C      1  0.4137970000000  0.5417320000000  0.3847170000000 1.0
C      1  0.4386620000000  0.5469060000000  0.5636760000000 1.0
C      1  0.5647140000000  0.5211810000000  0.5626100000000 1.0
C      1  0.4886240000000  0.4235910000000  0.5613790000000 1.0
C      1  0.4997890000000  0.5293380000000  0.5006290000000 1.0
C      1  0.5288700000000  0.4830830000000  0.4974520000000 1.0
C      1  0.4725730000000  0.4826350000000  0.4985990000000 1.0
C      1  0.5783630000000  0.4561900000000  0.5303960000000 1.0
C      1  0.4302140000000  0.4551080000000  0.5331890000000 1.0
C      1  0.4937320000000  0.5833420000000  0.5339990000000 1.0
C      1  0.5292010000000  0.3883060000000  0.4927530000000 1.0
C      1  0.3887670000000  0.5283700000000  0.4959310000000 1.0
C      1  0.5802700000000  0.5783690000000  0.5000910000000 1.0
C      1  0.5591330000000  0.4230920000000  0.4288140000000 1.0
C      1  0.4033800000000  0.4866760000000  0.4314270000000 1.0
C      1  0.5371920000000  0.5903910000000  0.4358470000000 1.0
C      1  0.3782490000000  0.5025840000000  0.5035790000000 1.0
C      1  0.5635900000000  0.6006860000000  0.5079010000000 1.0
C      1  0.5572190000000  0.3901170000000  0.4995570000000 1.0
END
