TITL C-3623288-6813-1245 -2.7319306220516e-07 125000 -616.560010104347 0 0 101 (C1) n - 1
REM
REM in /home/nfs/bkarasulu/CARBON/AIRSS/Generating-Clusters/LCBOP/Higher-Symm/SD-CG/FIRE-CG
REM
REM
REM
REM
REM
REM ./C.cell (b20cbc046b6831c77cfcea5457e17084)
REM AIRSS Version 0.9.1 bugfix July 2018 build 013d7b7c2542+ Fri, 06 Jul 2018 19:26:36 +0100
REM compiler GCC version 9.2.1 20190827 (Red Hat 9.2.1-1)
REM options -cpp -mtune=generic -march=x86-64 -g -O0 -fpre-include=/usr/include/finclude/math-vector-fortran.h
REM seed 1061566167 186134883 243623079 -927426721 1014360722 -290225371 294269631 44020783 -1474829116 -1325833462 832965931 1215856751 -994143469 -217350140 -2046474043 -728023996 475740075 519685789 -671230098 409329904 196403947 -1947432808 1097237154 1207708203 935638801 -1412484276 618612604 607171137 -289115220 -2030746664 -1620983791 587298273 1844929298
REM
CELL 1.54180   50.00000   50.00000   50.00000   90.00000   90.00000   90.00000
LATT -1
SFAC C  
C      1  0.4373400000000  0.4292580000000  0.4783140000000 1.0
C      1  0.5182620000000  0.4263780000000  0.5525000000000 1.0
C      1  0.5366290000000  0.4258840000000  0.4699730000000 1.0
C      1  0.4834680000000  0.4374630000000  0.4642600000000 1.0
C      1  0.4802980000000  0.4342070000000  0.5219640000000 1.0
C      1  0.5415780000000  0.4448260000000  0.5109290000000 1.0
C      1  0.5934580000000  0.4817590000000  0.5296710000000 1.0
C      1  0.4813030000000  0.4783980000000  0.4086710000000 1.0
C      1  0.4344650000000  0.4767370000000  0.5577370000000 1.0
C      1  0.5238940000000  0.5314200000000  0.5363060000000 1.0
C      1  0.5197660000000  0.5299820000000  0.4615390000000 1.0
C      1  0.4566000000000  0.5301040000000  0.5006330000000 1.0
C      1  0.4720890000000  0.5208000000000  0.5784030000000 1.0
C      1  0.5840600000000  0.5237290000000  0.4850500000000 1.0
C      1  0.4450840000000  0.5242480000000  0.4332570000000 1.0
C      1  0.4913820000000  0.4586730000000  0.5103770000000 1.0
C      1  0.5220130000000  0.4642450000000  0.5103220000000 1.0
C      1  0.4856820000000  0.4597140000000  0.4806810000000 1.0
C      1  0.4355340000000  0.4481620000000  0.5006460000000 1.0
C      1  0.5394580000000  0.4478110000000  0.5553790000000 1.0
C      1  0.5265500000000  0.4458940000000  0.4484780000000 1.0
C      1  0.5074690000000  0.5608100000000  0.4261070000000 1.0
C      1  0.4336770000000  0.5608250000000  0.5313190000000 1.0
C      1  0.5607510000000  0.5631220000000  0.5417060000000 1.0
C      1  0.4140510000000  0.5414920000000  0.5219090000000 1.0
C      1  0.5625450000000  0.5432090000000  0.5630190000000 1.0
C      1  0.5250900000000  0.5399930000000  0.4151850000000 1.0
C      1  0.5052850000000  0.4188520000000  0.5256920000000 1.0
C      1  0.5276670000000  0.4225660000000  0.4991540000000 1.0
C      1  0.4635810000000  0.4194850000000  0.4724030000000 1.0
C      1  0.5251250000000  0.4903050000000  0.5023170000000 1.0
C      1  0.4887520000000  0.4867070000000  0.4729920000000 1.0
C      1  0.4832950000000  0.4864290000000  0.5173540000000 1.0
C      1  0.4391040000000  0.5531150000000  0.5593240000000 1.0
C      1  0.5827930000000  0.5567560000000  0.5230460000000 1.0
C      1  0.4806540000000  0.5547970000000  0.4152640000000 1.0
C      1  0.4512460000000  0.4414530000000  0.5251650000000 1.0
C      1  0.5587120000000  0.4472670000000  0.5333620000000 1.0
C      1  0.4983180000000  0.4421750000000  0.4401720000000 1.0
C      1  0.5447030000000  0.5085090000000  0.4996210000000 1.0
C      1  0.4767970000000  0.5065740000000  0.4587870000000 1.0
C      1  0.4784020000000  0.5051550000000  0.5365940000000 1.0
C      1  0.4263280000000  0.4752480000000  0.4928160000000 1.0
C      1  0.5336480000000  0.4742600000000  0.5672110000000 1.0
C      1  0.5408270000000  0.4720550000000  0.4434550000000 1.0
C      1  0.5365310000000  0.5334390000000  0.5098280000000 1.0
C      1  0.4901950000000  0.5316970000000  0.4627440000000 1.0
C      1  0.4739270000000  0.5309770000000  0.5248290000000 1.0
C      1  0.5060670000000  0.4820240000000  0.5701840000000 1.0
C      1  0.5602660000000  0.4811550000000  0.4631020000000 1.0
C      1  0.4343800000000  0.4845330000000  0.4665130000000 1.0
C      1  0.5074200000000  0.5727190000000  0.4545570000000 1.0
C      1  0.4576300000000  0.5722510000000  0.5161210000000 1.0
C      1  0.5354380000000  0.5742490000000  0.5281990000000 1.0
C      1  0.5500510000000  0.5124600000000  0.5963460000000 1.0
C      1  0.5592630000000  0.5076360000000  0.4121030000000 1.0
C      1  0.3910960000000  0.5115960000000  0.4939430000000 1.0
C      1  0.4552020000000  0.4391430000000  0.4169690000000 1.0
C      1  0.4540040000000  0.4350590000000  0.5731510000000 1.0
C      1  0.5957380000000  0.4395240000000  0.5043870000000 1.0
C      1  0.3934000000000  0.5382050000000  0.5018480000000 1.0
C      1  0.5552200000000  0.5392620000000  0.5908040000000 1.0
C      1  0.5528210000000  0.5345700000000  0.4084640000000 1.0
C      1  0.5718440000000  0.5414820000000  0.4659290000000 1.0
C      1  0.4351900000000  0.5426200000000  0.4532410000000 1.0
C      1  0.4935950000000  0.5397700000000  0.5789780000000 1.0
C      1  0.5375500000000  0.5612390000000  0.5005710000000 1.0
C      1  0.4821140000000  0.5598720000000  0.4666180000000 1.0
C      1  0.4810750000000  0.5590340000000  0.5311360000000 1.0
C      1  0.5851010000000  0.4550360000000  0.5257580000000 1.0
C      1  0.4806500000000  0.4519830000000  0.4190110000000 1.0
C      1  0.4439760000000  0.4506250000000  0.5517980000000 1.0
C      1  0.5527740000000  0.4955230000000  0.5724680000000 1.0
C      1  0.5363930000000  0.4920530000000  0.4223620000000 1.0
C      1  0.4108100000000  0.4945120000000  0.5074620000000 1.0
C      1  0.4503290000000  0.5008070000000  0.4497970000000 1.0
C      1  0.4840150000000  0.4984660000000  0.5637730000000 1.0
C      1  0.5665000000000  0.5004120000000  0.4830300000000 1.0
C      1  0.5858760000000  0.5088170000000  0.5327470000000 1.0
C      1  0.4866220000000  0.5060890000000  0.4108880000000 1.0
C      1  0.4312860000000  0.5047790000000  0.5543600000000 1.0
C      1  0.4677100000000  0.5288390000000  0.4151530000000 1.0
C      1  0.4452210000000  0.5264530000000  0.5689900000000 1.0
C      1  0.5895130000000  0.5304410000000  0.5129050000000 1.0
C      1  0.4319430000000  0.4338770000000  0.4295020000000 1.0
C      1  0.4765920000000  0.4239070000000  0.5822150000000 1.0
C      1  0.5869710000000  0.4265390000000  0.4824360000000 1.0
C      1  0.5134240000000  0.5390850000000  0.5602350000000 1.0
C      1  0.5455360000000  0.5387380000000  0.4587620000000 1.0
C      1  0.4412610000000  0.5393020000000  0.4798580000000 1.0
C      1  0.4726600000000  0.5772790000000  0.4898780000000 1.0
C      1  0.5050550000000  0.5777210000000  0.5280050000000 1.0
C      1  0.5218180000000  0.5779060000000  0.4808790000000 1.0
C      1  0.5141020000000  0.5116010000000  0.4166240000000 1.0
C      1  0.4193800000000  0.5125250000000  0.5296080000000 1.0
C      1  0.5676540000000  0.5143760000000  0.5542010000000 1.0
C      1  0.4219000000000  0.4308500000000  0.4545180000000 1.0
C      1  0.5021800000000  0.4201640000000  0.5751060000000 1.0
C      1  0.5649950000000  0.4202790000000  0.4680270000000 1.0
C      1  0.4996290000000  0.5878040000000  0.4994820000000 1.0
C      1  0.4991740000000  0.4993060000000  0.4964380000000 1.0
END
