TITL C-3623282-6910-1910 -1.72365365947032e-07 125000 -262.995749073063 0 0 46 (Ci) n - 1
REM
REM in /home/nfs/bkarasulu/CARBON/AIRSS/Generating-Clusters/LCBOP/Higher-Symm/SD-CG/FIRE-CG
REM
REM
REM
REM
REM
REM ./C.cell (b20cbc046b6831c77cfcea5457e17084)
REM AIRSS Version 0.9.1 bugfix July 2018 build 013d7b7c2542+ Fri, 06 Jul 2018 19:26:36 +0100
REM compiler GCC version 9.2.1 20190827 (Red Hat 9.2.1-1)
REM options -cpp -mtune=generic -march=x86-64 -g -O0 -fpre-include=/usr/include/finclude/math-vector-fortran.h
REM seed -2137797056 1761339815 -1611661005 1797073910 359242184 564655579 977890533 -181757450 114644711 -1989292012 942048511 -1163559634 -2015343571 -882892187 -1871272636 -1626364352 927612826 -476939769 1545773870 -2071672140 -277491650 1595581074 855077391 1902506298 -1367210179 -1021446199 -1702377681 372082119 1255694207 1755102452 2001123880 1919171320 1172673748
REM
CELL 1.54180   50.00000   50.00000   50.00000   90.00000   90.00000   90.00000
LATT -1
SFAC C  
C      1  0.4532160000000  0.5171070000000  0.5434860000000 1.0
C      1  0.5467840000000  0.4828930000000  0.4565140000000 1.0
C      1  0.4821790000000  0.5718830000000  0.4888430000000 1.0
C      1  0.5178210000000  0.4281170000000  0.5111570000000 1.0
C      1  0.4506180000000  0.5544340000000  0.4225600000000 1.0
C      1  0.5493820000000  0.4455660000000  0.5774400000000 1.0
C      1  0.4691600000000  0.5410450000000  0.5501110000000 1.0
C      1  0.5308400000000  0.4589550000000  0.4498890000000 1.0
C      1  0.4954680000000  0.4821990000000  0.5241610000000 1.0
C      1  0.5045320000000  0.5178010000000  0.4758390000000 1.0
C      1  0.5673530000000  0.5092260000000  0.4972200000000 1.0
C      1  0.4326470000000  0.4907740000000  0.5027800000000 1.0
C      1  0.4591440000000  0.5144500000000  0.4483250000000 1.0
C      1  0.5408560000000  0.4855500000000  0.5516750000000 1.0
C      1  0.5559680000000  0.4866770000000  0.4839260000000 1.0
C      1  0.4440320000000  0.5133230000000  0.5160740000000 1.0
C      1  0.4601960000000  0.5432870000000  0.4465240000000 1.0
C      1  0.5398040000000  0.4567130000000  0.5534760000000 1.0
C      1  0.4400520000000  0.4810170000000  0.4783090000000 1.0
C      1  0.5599480000000  0.5189830000000  0.5216910000000 1.0
C      1  0.4777950000000  0.4727010000000  0.5441810000000 1.0
C      1  0.5222050000000  0.5272990000000  0.4558190000000 1.0
C      1  0.4609400000000  0.4926010000000  0.5556540000000 1.0
C      1  0.5390600000000  0.5073990000000  0.4443460000000 1.0
C      1  0.5406530000000  0.5130830000000  0.5422090000000 1.0
C      1  0.4593470000000  0.4869170000000  0.4577910000000 1.0
C      1  0.4704580000000  0.4218960000000  0.5601740000000 1.0
C      1  0.5295420000000  0.5781040000000  0.4398260000000 1.0
C      1  0.5147030000000  0.5266700000000  0.5407520000000 1.0
C      1  0.4852970000000  0.4733300000000  0.4592480000000 1.0
C      1  0.4956400000000  0.5500960000000  0.5401650000000 1.0
C      1  0.5043600000000  0.4499040000000  0.4598350000000 1.0
C      1  0.5061980000000  0.4431810000000  0.4893450000000 1.0
C      1  0.4938020000000  0.5568190000000  0.5106550000000 1.0
C      1  0.5247280000000  0.5539310000000  0.4483030000000 1.0
C      1  0.4752720000000  0.4460690000000  0.5516970000000 1.0
C      1  0.4902910000000  0.5280460000000  0.4995860000000 1.0
C      1  0.5097090000000  0.4719540000000  0.5004140000000 1.0
C      1  0.5394020000000  0.4729190000000  0.5019830000000 1.0
C      1  0.4605980000000  0.5270810000000  0.4980170000000 1.0
C      1  0.4700070000000  0.5621450000000  0.4661590000000 1.0
C      1  0.5299930000000  0.4378550000000  0.5338410000000 1.0
C      1  0.4421020000000  0.5648470000000  0.4002390000000 1.0
C      1  0.5578980000000  0.4351530000000  0.5997610000000 1.0
C      1  0.4998570000000  0.5100620000000  0.5223280000000 1.0
C      1  0.5001430000000  0.4899380000000  0.4776720000000 1.0
END
