TITL C-3623286-7563-745 1122620.54331797 125000 -983.705235404835 0 0 164 (C1) n - 1
REM
REM in /home/nfs/bkarasulu/CARBON/AIRSS/Generating-Clusters/LCBOP/Higher-Symm/SD-CG/FIRE-CG
REM
REM
REM
REM
REM
REM ./C.cell (b20cbc046b6831c77cfcea5457e17084)
REM AIRSS Version 0.9.1 bugfix July 2018 build 013d7b7c2542+ Fri, 06 Jul 2018 19:26:36 +0100
REM compiler GCC version 9.2.1 20190827 (Red Hat 9.2.1-1)
REM options -cpp -mtune=generic -march=x86-64 -g -O0 -fpre-include=/usr/include/finclude/math-vector-fortran.h
REM seed 612426245 -1046696435 -820888396 -956964398 150691882 -1148884168 19268138 1995458423 1275969438 1433573008 -1580272528 174468970 1523124482 -2007488829 -894797221 1714290002 -1943311234 635989883 -905700702 -950894016 -1380062629 -650618343 1674231151 1731793560 425903850 -2376446 38929627 -210831676 208622664 -668962290 6792686 -30834382 1180197958
REM
CELL 1.54180   50.00000   50.00000   50.00000   90.00000   90.00000   90.00000
LATT -1
SFAC C  
C      1  0.5447070000000  0.3887850000000  0.5299880000000 1.0
C      1  0.5565380000000  0.5211670000000  0.5156780000000 1.0
C      1  0.5035110000000  0.5393750000000  0.5502830000000 1.0
C      1  0.5687370000000  0.5649000000000  0.5586610000000 1.0
C      1  0.5415950000000  0.4843250000000  0.4610850000000 1.0
C      1  0.4751830000000  0.5662610000000  0.5212280000000 1.0
C      1  0.4797930000000  0.6001930000000  0.4487060000000 1.0
C      1  0.4861620000000  0.3915950000000  0.4803310000000 1.0
C      1  0.4567410000000  0.3994050000000  0.4850690000000 1.0
C      1  0.5655270000000  0.5504310000000  0.4730360000000 1.0
C      1  0.4960290000000  0.3989720000000  0.4522540000000 1.0
C      1  0.5042990000000  0.5626120000000  0.5307690000000 1.0
C      1  0.4487880000000  0.5735910000000  0.4811300000000 1.0
C      1  0.4519020000000  0.4881400000000  0.4073800000000 1.0
C      1  0.5265710000000  0.4070310000000  0.4528300000000 1.0
C      1  0.4824510000000  0.4042430000000  0.5436910000000 1.0
C      1  0.5281880000000  0.4456880000000  0.4951870000000 1.0
C      1  0.4763050000000  0.4391410000000  0.4974820000000 1.0
C      1  0.4977240000000  0.4918080000000  0.5481950000000 1.0
C      1  0.3755760000000  0.4832180000000  0.4953070000000 1.0
C      1  0.4182520000000  0.5021880000000  0.5884910000000 1.0
C      1  0.4635170000000  0.5859960000000  0.5030200000000 1.0
C      1  0.5454120000000  0.4013160000000  0.4088720000000 1.0
C      1  0.5211290000000  0.4744760000000  0.6046060000000 1.0
C      1  0.4656080000000  0.4538770000000  0.5569080000000 1.0
C      1  0.5078190000000  0.4898040000000  0.3972480000000 1.0
C      1  0.4082650000000  0.5558390000000  0.4689330000000 1.0
C      1  0.5740260000000  0.5390240000000  0.5699350000000 1.0
C      1  0.4817240000000  0.5472420000000  0.4595650000000 1.0
C      1  0.4906140000000  0.3871820000000  0.5630940000000 1.0
C      1  0.4149130000000  0.5046470000000  0.5374280000000 1.0
C      1  0.6214820000000  0.5032240000000  0.5088410000000 1.0
C      1  0.4722840000000  0.4108750000000  0.4394360000000 1.0
C      1  0.3921960000000  0.4644450000000  0.4480160000000 1.0
C      1  0.4785550000000  0.5205610000000  0.4459220000000 1.0
C      1  0.3707570000000  0.5123770000000  0.4891050000000 1.0
C      1  0.4808920000000  0.6164200000000  0.4701390000000 1.0
C      1  0.4207960000000  0.4377590000000  0.5104930000000 1.0
C      1  0.4352610000000  0.4607050000000  0.4932960000000 1.0
C      1  0.5867700000000  0.5069040000000  0.4603650000000 1.0
C      1  0.4826860000000  0.4511180000000  0.4120260000000 1.0
C      1  0.4304510000000  0.5710780000000  0.4577760000000 1.0
C      1  0.4128050000000  0.4653090000000  0.4305130000000 1.0
C      1  0.5529730000000  0.5473800000000  0.5020840000000 1.0
C      1  0.5576960000000  0.5179100000000  0.5808920000000 1.0
C      1  0.4578630000000  0.4121980000000  0.5330640000000 1.0
C      1  0.4384720000000  0.5140690000000  0.4030330000000 1.0
C      1  0.5599980000000  0.6005390000000  0.4892690000000 1.0
C      1  0.4906310000000  0.4970370000000  0.4920500000000 1.0
C      1  0.5276930000000  0.5332990000000  0.4501190000000 1.0
C      1  0.6118710000000  0.5419340000000  0.4828020000000 1.0
C      1  0.5978780000000  0.5001870000000  0.5541130000000 1.0
C      1  0.6186880000000  0.4817530000000  0.4810330000000 1.0
C      1  0.5327310000000  0.5791990000000  0.4467330000000 1.0
C      1  0.4037840000000  0.5702920000000  0.5435940000000 1.0
C      1  0.5299880000000  0.5210210000000  0.5903280000000 1.0
C      1  0.5110030000000  0.5395120000000  0.4939480000000 1.0
C      1  0.4374050000000  0.4881860000000  0.5341930000000 1.0
C      1  0.4537310000000  0.5424000000000  0.5921900000000 1.0
C      1  0.4528690000000  0.4173960000000  0.4615980000000 1.0
C      1  0.5134610000000  0.5142910000000  0.5363990000000 1.0
C      1  0.4953380000000  0.3747380000000  0.5855100000000 1.0
C      1  0.5827190000000  0.5683920000000  0.5309750000000 1.0
C      1  0.5758410000000  0.4551740000000  0.4249750000000 1.0
C      1  0.4745520000000  0.4237900000000  0.4138610000000 1.0
C      1  0.4544040000000  0.4459140000000  0.4747990000000 1.0
C      1  0.5807380000000  0.6163140000000  0.4782990000000 1.0
C      1  0.4254310000000  0.5736160000000  0.5612930000000 1.0
C      1  0.6079660000000  0.4880850000000  0.4539330000000 1.0
C      1  0.5345370000000  0.4574070000000  0.5607140000000 1.0
C      1  0.5357040000000  0.4005740000000  0.4826590000000 1.0
C      1  0.4090740000000  0.5275250000000  0.4646290000000 1.0
C      1  0.4871890000000  0.5084310000000  0.6106590000000 1.0
C      1  0.4813530000000  0.5335610000000  0.5960350000000 1.0
C      1  0.5578430000000  0.5641890000000  0.4474660000000 1.0
C      1  0.4763250000000  0.5295560000000  0.4191340000000 1.0
C      1  0.4837410000000  0.5003810000000  0.4648490000000 1.0
C      1  0.5981180000000  0.4683910000000  0.4345860000000 1.0
C      1  0.6021200000000  0.4607400000000  0.4922630000000 1.0
C      1  0.4483280000000  0.5288460000000  0.4978900000000 1.0
C      1  0.5256590000000  0.5575790000000  0.5099920000000 1.0
C      1  0.4198990000000  0.4828750000000  0.4811220000000 1.0
C      1  0.5783580000000  0.4161190000000  0.5175570000000 1.0
C      1  0.5058730000000  0.5156550000000  0.5063240000000 1.0
C      1  0.6302530000000  0.6328440000000  0.4759140000000 1.0
C      1  0.5623030000000  0.5457180000000  0.4007550000000 1.0
C      1  0.4401530000000  0.4723470000000  0.4297150000000 1.0
C      1  0.5949920000000  0.4666470000000  0.5202030000000 1.0
C      1  0.5047530000000  0.4346110000000  0.5327210000000 1.0
C      1  0.5369480000000  0.4908060000000  0.4349960000000 1.0
C      1  0.4780590000000  0.5712520000000  0.4399220000000 1.0
C      1  0.5852080000000  0.4304550000000  0.5405290000000 1.0
C      1  0.5547720000000  0.4523970000000  0.4994240000000 1.0
C      1  0.5516460000000  0.4802830000000  0.5473240000000 1.0
C      1  0.5397210000000  0.5177440000000  0.4306320000000 1.0
C      1  0.4274790000000  0.5117760000000  0.4821590000000 1.0
C      1  0.5147130000000  0.4594900000000  0.5819380000000 1.0
C      1  0.5426390000000  0.5259340000000  0.4035010000000 1.0
C      1  0.5043220000000  0.4298300000000  0.5040530000000 1.0
C      1  0.4592970000000  0.5399890000000  0.5243480000000 1.0
C      1  0.4511850000000  0.4771210000000  0.5124600000000 1.0
C      1  0.4997630000000  0.5412600000000  0.4075100000000 1.0
C      1  0.3741450000000  0.5376730000000  0.5040360000000 1.0
C      1  0.5471010000000  0.4480410000000  0.4209940000000 1.0
C      1  0.5092130000000  0.5442290000000  0.4675630000000 1.0
C      1  0.4748090000000  0.6107850000000  0.4959100000000 1.0
C      1  0.6050180000000  0.6263730000000  0.4748240000000 1.0
C      1  0.4301890000000  0.4758210000000  0.5801630000000 1.0
C      1  0.3662360000000  0.5416440000000  0.5312140000000 1.0
C      1  0.4724920000000  0.5017540000000  0.5580190000000 1.0
C      1  0.5286950000000  0.4322430000000  0.5482190000000 1.0
C      1  0.4490450000000  0.5386400000000  0.4140330000000 1.0
C      1  0.4961110000000  0.4697030000000  0.5308080000000 1.0
C      1  0.5368160000000  0.5961890000000  0.4711430000000 1.0
C      1  0.5669530000000  0.4889290000000  0.4742340000000 1.0
C      1  0.5387620000000  0.4060280000000  0.5502830000000 1.0
C      1  0.4450250000000  0.5653970000000  0.5779130000000 1.0
C      1  0.5703860000000  0.5604480000000  0.4221640000000 1.0
C      1  0.4586450000000  0.4626640000000  0.4501040000000 1.0
C      1  0.5155120000000  0.5017450000000  0.6074880000000 1.0
C      1  0.4878580000000  0.4506980000000  0.5754660000000 1.0
C      1  0.5889130000000  0.5339420000000  0.4686380000000 1.0
C      1  0.5068320000000  0.5380600000000  0.5796530000000 1.0
C      1  0.5660090000000  0.5906280000000  0.5162920000000 1.0
C      1  0.5967900000000  0.5286480000000  0.5543850000000 1.0
C      1  0.3833610000000  0.4733540000000  0.5217730000000 1.0
C      1  0.5417980000000  0.5094080000000  0.5381740000000 1.0
C      1  0.4515780000000  0.4809300000000  0.5591960000000 1.0
C      1  0.3824970000000  0.5172420000000  0.4628430000000 1.0
C      1  0.5299450000000  0.4725140000000  0.4138270000000 1.0
C      1  0.4020710000000  0.4508650000000  0.5312450000000 1.0
C      1  0.5850230000000  0.4492580000000  0.5600670000000 1.0
C      1  0.5737760000000  0.4879240000000  0.5660830000000 1.0
C      1  0.4677990000000  0.4878080000000  0.6149670000000 1.0
C      1  0.4483430000000  0.4711630000000  0.6051410000000 1.0
C      1  0.5063700000000  0.4550460000000  0.4554390000000 1.0
C      1  0.5157380000000  0.5199670000000  0.3939970000000 1.0
C      1  0.5641080000000  0.4978300000000  0.5024150000000 1.0
C      1  0.4798320000000  0.4776750000000  0.3991160000000 1.0
C      1  0.3803160000000  0.5554060000000  0.5501130000000 1.0
C      1  0.5754940000000  0.4589910000000  0.4795160000000 1.0
C      1  0.5501370000000  0.6021660000000  0.5382300000000 1.0
C      1  0.3933840000000  0.4743020000000  0.4742590000000 1.0
C      1  0.4410890000000  0.4083580000000  0.5095380000000 1.0
C      1  0.4672760000000  0.5269420000000  0.5477470000000 1.0
C      1  0.5641260000000  0.4719180000000  0.5208720000000 1.0
C      1  0.3893230000000  0.4960410000000  0.5383480000000 1.0
C      1  0.4788790000000  0.4796020000000  0.5098590000000 1.0
C      1  0.6019520000000  0.5449970000000  0.5304390000000 1.0
C      1  0.6100350000000  0.4883380000000  0.5311670000000 1.0
C      1  0.4048580000000  0.5749140000000  0.5154380000000 1.0
C      1  0.4321440000000  0.5240670000000  0.5966340000000 1.0
C      1  0.5514370000000  0.5874270000000  0.5614610000000 1.0
C      1  0.4467700000000  0.5639490000000  0.4318210000000 1.0
C      1  0.6161480000000  0.5317010000000  0.5086670000000 1.0
C      1  0.4103790000000  0.4549450000000  0.5603350000000 1.0
C      1  0.3935310000000  0.5590360000000  0.4943050000000 1.0
C      1  0.4609330000000  0.5475370000000  0.4797760000000 1.0
C      1  0.5562510000000  0.3997490000000  0.5055040000000 1.0
C      1  0.5391570000000  0.4199640000000  0.4288300000000 1.0
C      1  0.4619300000000  0.4403830000000  0.5312640000000 1.0
C      1  0.4847420000000  0.4587090000000  0.4399730000000 1.0
C      1  0.5069920000000  0.5674080000000  0.4248310000000 1.0
C      1  0.5083310000000  0.4016740000000  0.4958550000000 1.0
END
